
  xtb     02102218233D
 energy: -205.862247775662 gnorm: 0.000484388002 xtb: 6.4.1 (unknown)
101113  0     0  0            999 V2000
    3.3407    6.1980   -5.6858 C   0  0  0  0  0  0  0  0  0  0  0  0
    4.1027    7.3391   -5.7872 C   0  0  0  0  0  0  0  0  0  0  0  0
    5.1749    7.7320   -4.8688 C   0  0  0  0  0  0  0  0  0  0  0  0
    5.5803    7.1195   -3.8991 O   0  0  0  0  0  0  0  0  0  0  0  0
    5.6744    9.0312   -5.3621 C   0  0  0  0  0  0  0  0  0  0  0  0
    6.6749    9.8468   -4.8562 C   0  0  0  0  0  0  0  0  0  0  0  0
    7.5527    9.4075   -3.4523 Cl  0  0  0  0  0  0  0  0  0  0  0  0
    6.9605   11.0438   -5.5090 C   0  0  0  0  0  0  0  0  0  0  0  0
    6.2429   11.3881   -6.6417 C   0  0  0  0  0  0  0  0  0  0  0  0
    6.6490   13.0221   -7.5117 Br  0  0  0  0  0  0  0  0  0  0  0  0
    5.2351   10.5852   -7.1676 C   0  0  0  0  0  0  0  0  0  0  0  0
    4.9554    9.3985   -6.5152 C   0  0  0  0  0  0  0  0  0  0  0  0
    3.9676    8.3541   -6.8049 C   0  0  0  0  0  0  0  0  0  0  0  0
    3.0861    8.3780   -7.8568 C   0  0  0  0  0  0  0  0  0  0  0  0
    3.0142    9.4123   -8.8135 C   0  0  0  0  0  0  0  0  0  0  0  0
    2.9012   10.2146   -9.6267 N   0  0  0  0  0  0  0  0  0  0  0  0
    2.1219    7.3908   -8.1474 C   0  0  0  0  0  0  0  0  0  0  0  0
    1.3100    6.6389   -8.4583 N   0  0  0  0  0  0  0  0  0  0  0  0
    3.3428    5.1755   -4.7337 C   0  0  0  0  0  0  0  0  0  0  0  0
    4.4041    5.0430   -3.3270 S   0  0  0  0  0  0  0  0  0  0  0  0
    3.5884    3.6067   -2.8503 C   0  0  0  0  0  0  0  0  0  0  0  0
    3.5577    2.6610   -1.8290 C   0  0  0  0  0  0  0  0  0  0  0  0
    4.3522    2.3629   -0.3093 S   0  0  0  0  0  0  0  0  0  0  0  0
    3.2885    1.0242   -0.0696 C   0  0  0  0  0  0  0  0  0  0  0  0
    3.0370    0.0729    0.9365 C   0  0  0  0  0  0  0  0  0  0  0  0
    3.6581   -0.2090    2.1746 C   0  0  0  0  0  0  0  0  0  0  0  0
    3.1429   -1.2771    2.9890 C   0  0  0  0  0  0  0  0  0  0  0  0
    3.8480   -1.4500    4.0956 N   0  0  0  0  0  0  0  0  0  0  0  0
    5.0507   -0.3676    4.1161 S   0  0  0  0  0  0  0  0  0  0  0  0
    4.7189    0.3683    2.7157 N   0  0  0  0  0  0  0  0  0  0  0  0
    1.9552   -1.9349    2.5926 C   0  0  0  0  0  0  0  0  0  0  0  0
    1.0904   -2.8088    3.2642 C   0  0  0  0  0  0  0  0  0  0  0  0
    0.9887   -3.6316    4.7818 S   0  0  0  0  0  0  0  0  0  0  0  0
   -0.6319   -4.1515    4.3568 C   0  0  0  0  0  0  0  0  0  0  0  0
   -1.5871   -4.8831    5.0448 C   0  0  0  0  0  0  0  0  0  0  0  0
   -1.3688   -5.4125    6.4241 C   0  0  0  0  0  0  0  0  0  0  0  0
   -1.9116   -4.4381    7.4736 C   0  0  0  0  0  0  0  0  0  0  0  0
   -2.7784   -4.9986    4.3012 C   0  0  0  0  0  0  0  0  0  0  0  0
   -2.6586   -4.2060    2.7286 S   0  0  0  0  0  0  0  0  0  0  0  0
   -1.0467   -3.7153    3.0836 C   0  0  0  0  0  0  0  0  0  0  0  0
   -0.0512   -2.9618    2.4602 C   0  0  0  0  0  0  0  0  0  0  0  0
    0.1003   -2.2487    1.2999 N   0  0  0  0  0  0  0  0  0  0  0  0
    1.3220   -1.6156    1.3565 C   0  0  0  0  0  0  0  0  0  0  0  0
    1.9465   -0.7029    0.4807 C   0  0  0  0  0  0  0  0  0  0  0  0
    1.5830   -0.3030   -0.8047 N   0  0  0  0  0  0  0  0  0  0  0  0
    2.3833    0.7885   -1.1166 C   0  0  0  0  0  0  0  0  0  0  0  0
    2.5160    1.7451   -2.1321 C   0  0  0  0  0  0  0  0  0  0  0  0
    1.9069    2.1173   -3.3057 N   0  0  0  0  0  0  0  0  0  0  0  0
    2.5503    3.2459   -3.7514 C   0  0  0  0  0  0  0  0  0  0  0  0
    2.4185    4.1233   -4.8064 C   0  0  0  0  0  0  0  0  0  0  0  0
    0.7262    1.5757   -3.9297 C   0  0  0  0  0  0  0  0  0  0  0  0
    1.0634    0.6600   -5.1047 C   0  0  0  0  0  0  0  0  0  0  0  0
    1.2862   -1.2988   -1.8218 C   0  0  0  0  0  0  0  0  0  0  0  0
    2.5591   -1.7792   -2.5185 C   0  0  0  0  0  0  0  0  0  0  0  0
   -1.0244   -1.9856    0.4283 C   0  0  0  0  0  0  0  0  0  0  0  0
   -1.4215   -3.2063   -0.3996 C   0  0  0  0  0  0  0  0  0  0  0  0
   -3.9114   -5.6573    4.7784 C   0  0  0  0  0  0  0  0  0  0  0  0
   -5.1598   -5.8263    4.2234 C   0  0  0  0  0  0  0  0  0  0  0  0
   -5.6133   -5.3079    2.9374 C   0  0  0  0  0  0  0  0  0  0  0  0
   -4.9545   -4.7357    2.0883 O   0  0  0  0  0  0  0  0  0  0  0  0
   -7.0637   -5.5959    2.8711 C   0  0  0  0  0  0  0  0  0  0  0  0
   -7.9762   -5.2149    1.9044 C   0  0  0  0  0  0  0  0  0  0  0  0
   -7.4817   -4.4361    0.4695 Cl  0  0  0  0  0  0  0  0  0  0  0  0
   -9.3343   -5.4753    2.1357 C   0  0  0  0  0  0  0  0  0  0  0  0
  -10.4973   -5.0546    0.9548 Cl  0  0  0  0  0  0  0  0  0  0  0  0
   -9.7409   -6.0332    3.3462 C   0  0  0  0  0  0  0  0  0  0  0  0
  -11.4110   -6.2453    3.6495 Cl  0  0  0  0  0  0  0  0  0  0  0  0
   -8.8087   -6.4096    4.3282 C   0  0  0  0  0  0  0  0  0  0  0  0
   -9.4012   -6.9140    5.8564 Cl  0  0  0  0  0  0  0  0  0  0  0  0
   -7.4557   -6.2586    4.0525 C   0  0  0  0  0  0  0  0  0  0  0  0
   -6.2516   -6.5705    4.8218 C   0  0  0  0  0  0  0  0  0  0  0  0
   -6.1310   -7.5402    5.7851 C   0  0  0  0  0  0  0  0  0  0  0  0
   -4.9550   -7.7987    6.5221 C   0  0  0  0  0  0  0  0  0  0  0  0
   -4.0487   -8.0561    7.1798 N   0  0  0  0  0  0  0  0  0  0  0  0
   -7.0870   -8.5382    6.0739 C   0  0  0  0  0  0  0  0  0  0  0  0
   -7.7407   -9.4531    6.3033 N   0  0  0  0  0  0  0  0  0  0  0  0
    2.5900    6.0553   -6.4536 H   0  0  0  0  0  0  0  0  0  0  0  0
    7.7340   11.6930   -5.1311 H   0  0  0  0  0  0  0  0  0  0  0  0
    4.7045   10.8974   -8.0517 H   0  0  0  0  0  0  0  0  0  0  0  0
   -1.8438   -6.3869    6.5484 H   0  0  0  0  0  0  0  0  0  0  0  0
   -0.2946   -5.5339    6.5761 H   0  0  0  0  0  0  0  0  0  0  0  0
   -2.9807   -4.2858    7.3443 H   0  0  0  0  0  0  0  0  0  0  0  0
   -1.7365   -4.8349    8.4695 H   0  0  0  0  0  0  0  0  0  0  0  0
   -1.4123   -3.4757    7.3892 H   0  0  0  0  0  0  0  0  0  0  0  0
    1.6992    4.0522   -5.6027 H   0  0  0  0  0  0  0  0  0  0  0  0
    0.1470    1.0441   -3.1716 H   0  0  0  0  0  0  0  0  0  0  0  0
    0.1218    2.4157   -4.2862 H   0  0  0  0  0  0  0  0  0  0  0  0
    1.6265    1.2088   -5.8551 H   0  0  0  0  0  0  0  0  0  0  0  0
    0.1487    0.2897   -5.5595 H   0  0  0  0  0  0  0  0  0  0  0  0
    1.6606   -0.1875   -4.7800 H   0  0  0  0  0  0  0  0  0  0  0  0
    0.5873   -0.8842   -2.5512 H   0  0  0  0  0  0  0  0  0  0  0  0
    0.8207   -2.1509   -1.3343 H   0  0  0  0  0  0  0  0  0  0  0  0
    3.2362   -2.2251   -1.7928 H   0  0  0  0  0  0  0  0  0  0  0  0
    3.0762   -0.9545   -3.0032 H   0  0  0  0  0  0  0  0  0  0  0  0
    2.3096   -2.5277   -3.2663 H   0  0  0  0  0  0  0  0  0  0  0  0
   -1.8765   -1.7055    1.0575 H   0  0  0  0  0  0  0  0  0  0  0  0
   -0.7794   -1.1332   -0.2063 H   0  0  0  0  0  0  0  0  0  0  0  0
   -1.8006   -3.9924    0.2468 H   0  0  0  0  0  0  0  0  0  0  0  0
   -2.2092   -2.9309   -1.0946 H   0  0  0  0  0  0  0  0  0  0  0  0
   -0.5814   -3.6055   -0.9634 H   0  0  0  0  0  0  0  0  0  0  0  0
   -3.7793   -6.0731    5.7676 H   0  0  0  0  0  0  0  0  0  0  0  0
  1  2  2  0  0  0  0
  2  3  1  0  0  0  0
  3  4  2  0  0  0  0
  3  5  1  0  0  0  0
  5  6  2  0  0  0  0
  6  7  1  0  0  0  0
  6  8  1  0  0  0  0
  8  9  2  0  0  0  0
  9 10  1  0  0  0  0
  9 11  1  0  0  0  0
 11 12  2  0  0  0  0
 12 13  1  0  0  0  0
 13 14  2  0  0  0  0
 14 15  1  0  0  0  0
 15 16  3  0  0  0  0
 14 17  1  0  0  0  0
 17 18  3  0  0  0  0
  1 19  1  0  0  0  0
 19 20  1  0  0  0  0
 20 21  1  0  0  0  0
 21 22  1  0  0  0  0
 22 23  1  0  0  0  0
 23 24  1  0  0  0  0
 24 25  1  0  0  0  0
 25 26  1  0  0  0  0
 26 27  1  0  0  0  0
 27 28  2  0  0  0  0
 28 29  1  0  0  0  0
 29 30  1  0  0  0  0
 27 31  1  0  0  0  0
 31 32  1  0  0  0  0
 32 33  1  0  0  0  0
 33 34  1  0  0  0  0
 34 35  1  0  0  0  0
 35 36  1  0  0  0  0
 36 37  1  0  0  0  0
 35 38  2  0  0  0  0
 38 39  1  0  0  0  0
 39 40  1  0  0  0  0
 40 41  1  0  0  0  0
 41 42  1  0  0  0  0
 42 43  1  0  0  0  0
 43 44  1  0  0  0  0
 44 45  1  0  0  0  0
 45 46  1  0  0  0  0
 46 47  1  0  0  0  0
 47 48  1  0  0  0  0
 48 49  1  0  0  0  0
 49 50  1  0  0  0  0
 48 51  1  0  0  0  0
 51 52  1  0  0  0  0
 45 53  1  0  0  0  0
 53 54  1  0  0  0  0
 42 55  1  0  0  0  0
 55 56  1  0  0  0  0
 38 57  1  0  0  0  0
 57 58  2  0  0  0  0
 58 59  1  0  0  0  0
 59 60  2  0  0  0  0
 59 61  1  0  0  0  0
 61 62  2  0  0  0  0
 62 63  1  0  0  0  0
 62 64  1  0  0  0  0
 64 65  1  0  0  0  0
 64 66  2  0  0  0  0
 66 67  1  0  0  0  0
 66 68  1  0  0  0  0
 68 69  1  0  0  0  0
 68 70  2  0  0  0  0
 70 71  1  0  0  0  0
 71 72  2  0  0  0  0
 72 73  1  0  0  0  0
 73 74  3  0  0  0  0
 72 75  1  0  0  0  0
 75 76  3  0  0  0  0
 13  2  1  0  0  0  0
 50 19  2  0  0  0  0
 71 58  1  0  0  0  0
 12  5  1  0  0  0  0
 49 21  2  0  0  0  0
 70 61  1  0  0  0  0
 47 22  2  0  0  0  0
 46 24  2  0  0  0  0
 44 25  2  0  0  0  0
 30 26  2  0  0  0  0
 43 31  2  0  0  0  0
 41 32  2  0  0  0  0
 40 34  2  0  0  0  0
  1 77  1  0  0  0  0
  8 78  1  0  0  0  0
 11 79  1  0  0  0  0
 36 80  1  0  0  0  0
 36 81  1  0  0  0  0
 37 82  1  0  0  0  0
 37 83  1  0  0  0  0
 37 84  1  0  0  0  0
 50 85  1  0  0  0  0
 51 86  1  0  0  0  0
 51 87  1  0  0  0  0
 52 88  1  0  0  0  0
 52 89  1  0  0  0  0
 52 90  1  0  0  0  0
 53 91  1  0  0  0  0
 53 92  1  0  0  0  0
 54 93  1  0  0  0  0
 54 94  1  0  0  0  0
 54 95  1  0  0  0  0
 55 96  1  0  0  0  0
 55 97  1  0  0  0  0
 56 98  1  0  0  0  0
 56 99  1  0  0  0  0
 56100  1  0  0  0  0
 57101  1  0  0  0  0
M  END
