97

C         -4.52880        6.52500        1.18490
C         -3.73470        7.39700        0.49550
C         -4.34800        8.56750       -0.18050
O         -5.47270        8.98330       -0.02690
C         -3.30660        9.06030       -1.11000
C         -3.36930       10.05840       -2.07130
Cl        -4.79740       10.97420       -2.30550
C         -2.24520       10.31050       -2.85450
C         -1.09500        9.56370       -2.66020
Br         0.41100        9.91290       -3.75600
C         -1.00250        8.56560       -1.69540
C         -2.12070        8.32360       -0.92040
C         -2.32730        7.38520        0.18450
C         -1.32860        6.84010        0.95020
C         -1.56230        6.22230        2.19680
N         -1.70500        5.76120        3.23860
C          0.04100        6.89970        0.62740
N          1.16580        6.88520        0.39860
C         -4.27690        5.18380        1.52930
C         -4.95840        4.42970        2.48150
C         -6.07570        4.92980        3.33560
C         -7.42260        4.68710        2.64830
C         -4.46430        3.12600        2.54640
S         -4.85770        1.76060        3.56630
C         -3.62390        0.84350        2.77860
C         -3.02820       -0.42610        2.85730
C         -3.16430       -1.50100        3.76640
C         -2.26640       -2.62180        3.66740
N         -2.46080       -3.50720        4.63140
S         -3.66680       -2.98770        5.57590
N         -3.99130       -1.60970        4.79370
C         -1.37650       -2.69680        2.57070
C         -0.50800       -3.69860        2.10770
S          0.08790       -5.24050        2.60800
C          0.99530       -5.34640        1.11800
C          1.82970       -6.33620        0.59330
C          2.20290       -7.58120        1.32330
C          3.58710       -7.43260        1.96000
C          2.34500       -5.96230       -0.64370
S          1.74410       -4.38590       -1.16460
C          0.83090       -4.22800        0.28850
C         -0.02330       -3.28240        0.85790
N         -0.53380       -2.04760        0.54320
C         -1.33940       -1.66280        1.59780
C         -2.03780       -0.46150        1.83920
N         -1.97920        0.76520        1.20370
C         -2.95220        1.55180        1.76990
C         -3.42890        2.85440        1.63920
S         -3.06240        4.22990        0.67180
C         -0.79580        1.38560        0.63580
C         -0.06560        2.23860        1.67290
C         -0.67310       -1.63790       -0.83960
C         -1.52920       -2.63130       -1.62490
C          3.16320       -6.75480       -1.47360
C          3.93590       -6.38620       -2.53440
C          4.31050       -7.39980       -3.55650
O          4.20350       -8.59800       -3.45550
C          4.78040       -6.60600       -4.71590
C          5.14340       -6.99820       -5.99180
F          5.12530       -8.28560       -6.34830
C          5.53300       -6.04710       -6.92750
C          5.55220       -4.70780       -6.57850
C          5.19970       -4.28730       -5.30180
C          4.81740       -5.23970       -4.37340
C          4.43880       -5.10550       -2.96670
C          4.77120       -4.05620       -2.14900
C          4.68250       -4.13460       -0.74330
N          4.67750       -4.19740        0.40290
C          5.31910       -2.84090       -2.60190
N          5.73390       -1.81930       -2.92200
H         -5.51910        6.90110        1.42100
H         -2.27630       11.08180       -3.60740
H         -0.08940        8.00520       -1.57660
H         -6.05490        4.38980        4.28400
H         -5.94890        5.99260        3.54130
H         -7.56450        3.62570        2.45870
H         -7.47330        5.21760        1.70020
H         -8.23110        5.03650        3.28450
H          1.46050       -7.76410        2.10250
H          2.20690       -8.43230        0.63900
H          3.84420       -8.33590        2.50660
H          3.59720       -6.59170        2.64850
H          4.34080       -7.25580        1.19660
H         -0.11410        0.61250        0.28700
H         -1.10690        2.00810       -0.20910
H          0.82140        2.67530        1.22280
H          0.23810        1.62430        2.51760
H         -0.69500        3.04480        2.04050
H          0.32390       -1.56950       -1.28600
H         -1.15730       -0.66400       -0.87680
H         -1.05950       -3.61020       -1.66130
H         -2.50890       -2.73040       -1.16200
H         -1.65830       -2.27360       -2.64250
H          3.10460       -7.82630       -1.30360
H          5.81500       -6.37050       -7.91700
H          5.84940       -3.97520       -7.31290
H          5.21800       -3.23890       -5.05270
