104

C          7.43650        0.82280        0.24930
C          7.97040       -0.38790        0.63520
C          7.22020       -1.61810        0.88440
O          6.01470       -1.78130        0.81120
C          8.22190       -2.64110        1.24270
C          8.04980       -3.97840        1.56430
Cl         6.49160       -4.69000        1.59880
C          9.17050       -4.74870        1.86320
C         10.42490       -4.16330        1.83170
Br        11.93600       -5.23250        2.23850
C         10.62200       -2.82300        1.51230
C          9.50510       -2.06310        1.21750
C          9.37450       -0.64970        0.84850
C         10.42100        0.23230        0.74360
C         10.31830        1.59670        0.40180
N         10.32230        2.71430        0.13420
C         11.77180       -0.10450        0.97210
N         12.88890       -0.30650        1.14290
C          6.11990        1.21010        0.00570
C          5.76780        2.51820       -0.38590
C          6.71040        3.66630       -0.53820
C          6.99490        4.31940        0.81740
C          4.40000        2.63990       -0.56690
S          3.39270        3.98930       -1.05830
C          2.01030        2.95320       -0.94990
C          0.63610        2.99620       -1.19270
C         -0.18140        4.01510       -1.72260
C         -1.54690        3.74640       -1.98880
N         -2.07870        4.84400       -2.52920
N         -1.08080        5.69150       -2.57260
C         -1.25240        7.03280       -3.05010
C         -1.72140        7.94640       -1.92140
N          0.06880        5.26690       -2.11010
C         -2.09180        2.49730       -1.62810
C         -3.40280        2.01870       -1.67210
S         -4.96990        2.53690       -2.19380
C         -5.63750        1.04340       -1.56100
C         -6.93130        0.55130       -1.50760
C         -8.09690        1.26640       -2.10750
C         -8.38930        0.74320       -3.51680
C         -6.97630       -0.70740       -0.87380
S         -5.37610       -1.24600       -0.35550
C         -4.67250        0.19480       -0.98370
C         -3.39700        0.75610       -1.06440
N         -2.12820        0.43720       -0.66630
C         -1.28960        1.48120       -1.01690
C          0.10980        1.70100       -0.88360
N          1.16990        0.89600       -0.50390
C          2.31130        1.64810       -0.53800
C          3.67780        1.45460       -0.32710
S          4.70970        0.15480        0.13470
C          1.28550       -0.52680       -0.27860
C          1.47940       -0.85970        1.20070
C         -1.93300       -0.73630        0.15410
C         -1.92560       -2.02190       -0.67310
C         -8.16030       -1.41730       -0.68210
C         -8.39960       -2.63810       -0.08850
C         -7.39800       -3.51990        0.50610
O         -6.19340       -3.34900        0.58110
C         -8.13850       -4.69330        1.01600
C         -7.64200       -5.80390        1.66780
C         -8.54730       -6.77990        2.05290
F         -8.11100       -7.87450        2.68900
C         -9.90750       -6.63200        1.78410
F        -10.75970       -7.59030        2.16620
C        -10.40520       -5.51430        1.12930
C         -9.50680       -4.53310        0.74190
C         -9.70100       -3.25540        0.05190
C        -10.91330       -2.76600       -0.36490
C        -12.14060       -3.43900       -0.18700
N        -13.17150       -3.93130       -0.07600
C        -11.12660       -1.53760       -1.02400
N        -11.38660       -0.55640       -1.56250
H          8.14990        1.62210        0.10390
H          9.05800       -5.79100        2.11560
H         11.61850       -2.41400        1.50050
H          6.24640        4.40250       -1.19760
H          7.65060        3.34710       -0.99010
H          7.45930        3.60950        1.49770
H          7.67000        5.15980        0.68540
H          6.07130        4.67830        1.26550
H         -0.28840        7.36640       -3.43840
H         -1.99390        7.00560       -3.85090
H         -1.85520        8.95720       -2.29560
H         -0.98520        7.96240       -1.12150
H         -2.66840        7.59080       -1.52280
H         -8.98820        1.15510       -1.48840
H         -7.85150        2.32870       -2.16630
H         -8.62970       -0.31710       -3.49270
H         -9.23560        1.27760       -3.93830
H         -7.52590        0.88960       -4.16150
H          0.42020       -1.03090       -0.69800
H          2.16940       -0.87180       -0.82590
H          0.71520       -0.39620        1.82170
H          1.44360       -1.93610        1.34080
H          2.44870       -0.50530        1.53990
H         -2.77180       -0.78540        0.85690
H         -1.02260       -0.62210        0.73490
H         -1.63230       -2.85880       -0.04600
H         -2.91940       -2.22190       -1.06350
H         -1.24030       -1.95370       -1.51580
H         -9.03150       -0.90700       -1.06900
H         -6.58920       -5.91320        1.87330
H        -11.46520       -5.45020        0.94750
