97

C          0.56590       -7.32650        2.91450
C          1.03390       -8.59850        2.69910
C          1.90450       -8.98680        1.56940
O          2.24810       -8.30030        0.63100
C          2.37800      -10.35050        1.89260
C          3.22640      -11.18290        1.17820
Cl         3.87700      -10.70250       -0.33210
C          3.54170      -12.43380        1.70260
C          3.01230      -12.81350        2.92480
Br         3.46790      -14.51560        3.62270
C          2.16150      -11.99520        3.66130
C          1.84590      -10.75780        3.13030
C          0.98680       -9.68970        3.64320
C          0.20760       -9.75850        4.76880
C         -0.69350       -8.75210        5.17740
N         -1.46290       -7.98700        5.55250
C          0.18040      -10.85810        5.65160
N          0.12160      -11.72070        6.40640
C          0.42730       -6.30030        1.96290
C          0.08230       -6.33660        0.61120
C         -0.32360       -7.57180       -0.11710
C         -1.58000       -7.38650       -0.96390
C          0.05450       -5.04520        0.06880
S         -0.22450       -4.43490       -1.54960
C          0.07120       -2.83180       -0.98220
C          0.14430       -1.52260       -1.48020
C          0.06690       -1.02550       -2.80000
C          0.29120        0.37200       -3.02740
N          0.24750        0.68870       -4.31200
S         -0.05470       -0.65510       -5.16160
N         -0.14150       -1.69320       -3.92400
C          0.44880        1.22600       -1.91330
C          0.49450        2.62340       -1.82700
S          0.49980        3.99430       -2.87610
C          0.42470        5.04000       -1.47530
C          0.36510        6.43260       -1.34330
C          0.54330        7.35870       -2.50290
C         -0.54620        7.19230       -3.56210
C          0.30670        6.80300       -0.00260
S          0.38990        5.41070        1.07990
C          0.42200        4.33320       -0.26220
C          0.46730        2.95140       -0.46530
N          0.43770        1.80750        0.28700
C          0.44560        0.72940       -0.57670
C          0.42800       -0.67440       -0.37090
N          0.56780       -1.46090        0.76300
C          0.35240       -2.76330        0.38620
C          0.35230       -4.02390        0.98630
S          0.62610       -4.65140        2.56360
C          1.37700       -1.23200        1.94190
C          2.84440       -1.55720        1.66620
C          0.13150        1.88150        1.69760
C          1.34920        2.29540        2.52430
C          0.31030        8.07340        0.61110
C         -0.33810        9.19420        0.16360
C         -1.52890        9.15830       -0.71330
O         -2.06390        8.18830       -1.20330
C         -2.03650       10.54890       -0.73830
C         -3.13320       11.04460       -1.41470
C         -3.42020       12.39260       -1.27280
F         -4.46890       12.91810       -1.91730
C         -2.62720       13.20770       -0.46430
F         -2.93200       14.50410       -0.34170
C         -1.52960       12.70800        0.22080
C         -1.23260       11.36160        0.07850
C         -0.16220       10.54440        0.64810
C          0.86860       11.00010        1.42850
C          1.00400       12.33650        1.85790
N          1.16150       13.40780        2.23830
C          1.93760       10.19960        1.88330
N          2.84530        9.61030        2.26670
H          0.32930       -7.04100        3.93340
H          4.19490      -13.09740        1.15870
H          1.77710      -12.32990        4.61060
H          0.50920       -7.88310       -0.75560
H         -0.49120       -8.37020        0.60940
H         -1.40530       -6.70180       -1.78850
H         -2.39630       -7.00130       -0.35680
H         -1.88120       -8.34560       -1.37730
H          1.51340        7.13140       -2.95730
H          0.56750        8.39100       -2.15230
H         -0.38750        7.90790       -4.36470
H         -0.52450        6.18990       -3.98080
H         -1.52380        7.36630       -3.12240
H          0.99290       -1.88630        2.72980
H          1.29350       -0.20450        2.27230
H          2.95910       -2.59750        1.37240
H          3.22770       -0.92750        0.86570
H          3.43410       -1.38440        2.56210
H         -0.28480        0.92660        2.02110
H         -0.64950        2.63920        1.82620
H          1.62140        3.32240        2.29660
H          2.21120        1.66690        2.31250
H          1.11550        2.23120        3.58330
H          0.84530        8.13060        1.55220
H         -3.74620       10.41120       -2.03590
H         -0.95230       13.37610        0.83870
