100

C         -6.26250        0.03070       -4.35450
C         -6.59790       -1.30590       -4.38640
C         -5.87380       -2.39020       -3.72440
O         -4.87230       -2.30390       -3.03530
C         -6.60420       -3.62960       -4.05440
C         -6.34270       -4.93960       -3.68470
Cl        -4.99800       -5.33240       -2.69830
C         -7.19460       -5.94750       -4.12870
C         -8.27820       -5.61830       -4.92520
Br        -9.42430       -7.00710       -5.51680
C         -8.56060       -4.31070       -5.30900
C         -7.71070       -3.31430       -4.86520
C         -7.72940       -1.86490       -5.08830
C         -8.66970       -1.19930       -5.83450
C         -8.70560        0.19160       -6.06540
N         -8.80750        1.31060       -6.30550
C         -9.75330       -1.82220       -6.48870
N        -10.65610       -2.26170       -7.04510
C         -5.21180        0.69850       -3.72800
C         -5.01690        2.09060       -3.83570
C         -5.85080        3.02720       -4.64630
C         -5.41030        3.01930       -6.11290
C         -3.89650        2.50010       -3.13080
S         -3.14800        4.07270       -2.91410
C         -1.94040        3.32480       -1.92820
C         -0.77760        3.67220       -1.23220
C         -0.08000        4.89870       -1.15720
C          1.17650        4.93780       -0.47080
N          1.74660        6.13080       -0.52660
S          0.78130        7.12200       -1.36690
N         -0.40090        6.06500       -1.69400
C          1.62350        3.77740        0.19990
C          2.73760        3.56870        1.02170
S          4.12890        4.42720        1.58620
C          4.57570        3.01620        2.52860
C          5.65110        2.75530        3.36800
C          6.70520        3.76910        3.67200
C          6.39260        4.50550        4.97760
C          5.57310        1.46230        3.91290
S          4.14470        0.58940        3.35590
C          3.67520        1.94540        2.40140
C          2.62980        2.26890        1.53090
N          1.51130        1.66020        1.03100
C          0.87470        2.56190        0.19570
C         -0.28510        2.47930       -0.62010
N         -1.11990        1.43570       -0.97570
C         -2.11310        1.94310       -1.76970
C         -3.22470        1.45910       -2.46170
S         -3.97860       -0.06760       -2.72140
C         -0.90850        0.00540       -0.93270
C          0.34470       -0.39790       -1.70520
C          1.01570        0.45970        1.66800
C         -0.24510        0.74030        2.48170
C          6.54010        0.94290        4.78100
C          6.61970       -0.27030        5.41780
C          5.62770       -1.34760        5.35960
O          4.59270       -1.37280        4.71400
C          6.12770       -2.41270        6.24590
C          5.54830       -3.62740        6.54650
C          6.20370       -4.48770        7.42510
C          5.61820       -5.82210        7.76070
C          7.42400       -4.09380        7.96970
C          8.01250       -2.87400        7.66990
C          7.35940       -2.01760        6.79700
C          7.70060       -0.69100        6.28960
C          8.85040       -0.00330        6.58430
C          9.20340        1.26840        6.08810
N          9.56700        2.29710        5.72610
C          9.86560       -0.49030        7.43430
N         10.72660       -0.82210        8.11760
H         -6.91480        0.68910       -4.91130
H         -7.00850       -6.97300       -3.85210
H         -9.41610       -4.10560       -5.93060
H         -6.90820        2.76600       -4.58460
H         -5.72270        4.03340       -4.24230
H         -5.52350        2.02760       -6.54450
H         -4.36810        3.31860       -6.19620
H         -6.02060        3.71370       -6.68270
H          6.72940        4.49110        2.85330
H          7.68900        3.30320        3.74580
H          7.16260        5.24550        5.17570
H          6.35900        3.81080        5.81370
H          5.43200        5.01040        4.90650
H         -0.87900       -0.34760        0.09810
H         -1.78230       -0.45190       -1.40290
H          0.23910       -0.12340       -2.75220
H          1.23010        0.09700       -1.31250
H          0.48540       -1.47350       -1.64370
H          1.80650        0.11560        2.33870
H          0.85480       -0.32880        0.93300
H         -0.59970       -0.17820        2.94130
H         -0.02550        1.45750        3.26930
H         -1.03640        1.15210        1.85930
H          7.35220        1.63090        4.97230
H          4.60070       -3.89590        6.10360
H          5.87500       -6.11570        8.77580
H          6.01410       -6.57910        7.08280
H          4.53630       -5.80910        7.65530
H          7.93030       -4.76140        8.65160
H          8.95650       -2.61240        8.11890
