
  xtb     01272209443D
 energy: -201.133134736814 gnorm: 0.000598810495 xtb: 6.4.1 (unknown)
104115  0     0  0            999 V2000
    4.1040   -6.4487   -3.2465 C   0  0  0  0  0  0  0  0  0  0  0  0
    3.7342   -6.4965   -4.5729 C   0  0  0  0  0  0  0  0  0  0  0  0
    2.8363   -5.5610   -5.2497 C   0  0  0  0  0  0  0  0  0  0  0  0
    2.2536   -4.6076   -4.7634 O   0  0  0  0  0  0  0  0  0  0  0  0
    2.7680   -6.0058   -6.6550 C   0  0  0  0  0  0  0  0  0  0  0  0
    2.0683   -5.4678   -7.7239 C   0  0  0  0  0  0  0  0  0  0  0  0
    1.0876   -4.0759   -7.5331 Cl  0  0  0  0  0  0  0  0  0  0  0  0
    2.1719   -6.0774   -8.9717 C   0  0  0  0  0  0  0  0  0  0  0  0
    2.9669   -7.2020   -9.1142 C   0  0  0  0  0  0  0  0  0  0  0  0
    3.0941   -8.0134  -10.8222 Br  0  0  0  0  0  0  0  0  0  0  0  0
    3.6771   -7.7605   -8.0554 C   0  0  0  0  0  0  0  0  0  0  0  0
    3.5706   -7.1507   -6.8192 C   0  0  0  0  0  0  0  0  0  0  0  0
    4.1801   -7.4842   -5.5277 C   0  0  0  0  0  0  0  0  0  0  0  0
    5.0106   -8.5542   -5.3058 C   0  0  0  0  0  0  0  0  0  0  0  0
    5.5996   -8.8982   -4.0713 C   0  0  0  0  0  0  0  0  0  0  0  0
    6.1165   -9.2475   -3.1061 N   0  0  0  0  0  0  0  0  0  0  0  0
    5.3964   -9.4814   -6.2967 C   0  0  0  0  0  0  0  0  0  0  0  0
    5.7510  -10.2703   -7.0514 N   0  0  0  0  0  0  0  0  0  0  0  0
    3.7576   -5.5622   -2.2278 C   0  0  0  0  0  0  0  0  0  0  0  0
    4.2630   -5.6707   -0.9162 C   0  0  0  0  0  0  0  0  0  0  0  0
    5.2511   -6.6860   -0.4437 C   0  0  0  0  0  0  0  0  0  0  0  0
    6.6805   -6.2569   -0.7870 C   0  0  0  0  0  0  0  0  0  0  0  0
    3.7716   -4.6637   -0.1017 C   0  0  0  0  0  0  0  0  0  0  0  0
    4.0500   -4.2723    1.5849 S   0  0  0  0  0  0  0  0  0  0  0  0
    2.9808   -2.9218    1.4143 C   0  0  0  0  0  0  0  0  0  0  0  0
    2.5190   -1.8387    2.1669 C   0  0  0  0  0  0  0  0  0  0  0  0
    2.8536   -1.3720    3.4550 C   0  0  0  0  0  0  0  0  0  0  0  0
    2.3481   -0.1224    3.8997 C   0  0  0  0  0  0  0  0  0  0  0  0
    2.8696    0.1199    5.1032 N   0  0  0  0  0  0  0  0  0  0  0  0
    3.6268   -0.9225    5.3377 N   0  0  0  0  0  0  0  0  0  0  0  0
    4.3385   -1.0734    6.5737 C   0  0  0  0  0  0  0  0  0  0  0  0
    3.4570   -1.7490    7.6201 C   0  0  0  0  0  0  0  0  0  0  0  0
    3.6620   -1.8424    4.4061 N   0  0  0  0  0  0  0  0  0  0  0  0
    1.4133    0.5739    3.1059 C   0  0  0  0  0  0  0  0  0  0  0  0
    0.6699    1.7350    3.3376 C   0  0  0  0  0  0  0  0  0  0  0  0
    0.5205    2.9755    4.5346 S   0  0  0  0  0  0  0  0  0  0  0  0
   -0.7728    3.6875    3.5872 C   0  0  0  0  0  0  0  0  0  0  0  0
   -1.5688    4.8017    3.7885 C   0  0  0  0  0  0  0  0  0  0  0  0
   -1.3970    5.7211    4.9523 C   0  0  0  0  0  0  0  0  0  0  0  0
   -0.5059    6.9089    4.5771 C   0  0  0  0  0  0  0  0  0  0  0  0
   -2.4933    4.9698    2.7351 C   0  0  0  0  0  0  0  0  0  0  0  0
   -2.3393    3.7051    1.5098 S   0  0  0  0  0  0  0  0  0  0  0  0
   -1.0569    2.9808    2.4010 C   0  0  0  0  0  0  0  0  0  0  0  0
   -0.2197    1.8736    2.2627 C   0  0  0  0  0  0  0  0  0  0  0  0
   -0.0286    0.8627    1.3560 N   0  0  0  0  0  0  0  0  0  0  0  0
    0.9847    0.0514    1.8476 C   0  0  0  0  0  0  0  0  0  0  0  0
    1.6397   -1.0918    1.3227 C   0  0  0  0  0  0  0  0  0  0  0  0
    1.6232   -1.6909    0.0773 N   0  0  0  0  0  0  0  0  0  0  0  0
    2.4278   -2.7962    0.1313 C   0  0  0  0  0  0  0  0  0  0  0  0
    2.8840   -3.7807   -0.7469 C   0  0  0  0  0  0  0  0  0  0  0  0
    2.6581   -4.1915   -2.4040 S   0  0  0  0  0  0  0  0  0  0  0  0
    1.1988   -1.1801   -1.2072 C   0  0  0  0  0  0  0  0  0  0  0  0
   -0.0101   -1.9345   -1.7583 C   0  0  0  0  0  0  0  0  0  0  0  0
   -1.1315    0.5199    0.4810 C   0  0  0  0  0  0  0  0  0  0  0  0
   -2.0501   -0.5055    1.1420 C   0  0  0  0  0  0  0  0  0  0  0  0
   -3.4072    6.0188    2.6946 C   0  0  0  0  0  0  0  0  0  0  0  0
   -4.3725    6.3505    1.7653 C   0  0  0  0  0  0  0  0  0  0  0  0
   -4.6706    5.6139    0.5397 C   0  0  0  0  0  0  0  0  0  0  0  0
   -4.1365    4.6031    0.1249 O   0  0  0  0  0  0  0  0  0  0  0  0
   -5.7805    6.3503   -0.1113 C   0  0  0  0  0  0  0  0  0  0  0  0
   -6.1294    7.4607    0.6773 C   0  0  0  0  0  0  0  0  0  0  0  0
   -7.1474    8.3102    0.2805 C   0  0  0  0  0  0  0  0  0  0  0  0
   -7.8055    8.0310   -0.9095 C   0  0  0  0  0  0  0  0  0  0  0  0
   -8.7912    8.8381   -1.3098 F   0  0  0  0  0  0  0  0  0  0  0  0
   -7.4715    6.9351   -1.7010 C   0  0  0  0  0  0  0  0  0  0  0  0
   -8.1291    6.7004   -2.8400 F   0  0  0  0  0  0  0  0  0  0  0  0
   -6.4429    6.0819   -1.2949 C   0  0  0  0  0  0  0  0  0  0  0  0
   -6.1248    5.0350   -2.0517 F   0  0  0  0  0  0  0  0  0  0  0  0
   -5.2615    7.4840    1.8586 C   0  0  0  0  0  0  0  0  0  0  0  0
   -5.3183    8.4311    2.8516 C   0  0  0  0  0  0  0  0  0  0  0  0
   -6.2290    9.5081    2.8707 C   0  0  0  0  0  0  0  0  0  0  0  0
   -6.9413   10.4046    2.9512 N   0  0  0  0  0  0  0  0  0  0  0  0
   -4.4911    8.4810    3.9927 C   0  0  0  0  0  0  0  0  0  0  0  0
   -3.8599    8.5969    4.9461 N   0  0  0  0  0  0  0  0  0  0  0  0
    4.7852   -7.2238   -2.9237 H   0  0  0  0  0  0  0  0  0  0  0  0
    1.6363   -5.6735   -9.8159 H   0  0  0  0  0  0  0  0  0  0  0  0
    4.2824   -8.6368   -8.2172 H   0  0  0  0  0  0  0  0  0  0  0  0
    5.1572   -6.7733    0.6406 H   0  0  0  0  0  0  0  0  0  0  0  0
    5.0512   -7.6640   -0.8840 H   0  0  0  0  0  0  0  0  0  0  0  0
    6.9116   -5.3025   -0.3195 H   0  0  0  0  0  0  0  0  0  0  0  0
    7.3837   -7.0022   -0.4270 H   0  0  0  0  0  0  0  0  0  0  0  0
    6.8060   -6.1567   -1.8625 H   0  0  0  0  0  0  0  0  0  0  0  0
    4.6317   -0.0766    6.9084 H   0  0  0  0  0  0  0  0  0  0  0  0
    5.2231   -1.6792    6.3690 H   0  0  0  0  0  0  0  0  0  0  0  0
    2.5687   -1.1495    7.8037 H   0  0  0  0  0  0  0  0  0  0  0  0
    3.1532   -2.7342    7.2747 H   0  0  0  0  0  0  0  0  0  0  0  0
    4.0060   -1.8574    8.5509 H   0  0  0  0  0  0  0  0  0  0  0  0
   -0.9225    5.1622    5.7613 H   0  0  0  0  0  0  0  0  0  0  0  0
   -2.3595    6.0896    5.3097 H   0  0  0  0  0  0  0  0  0  0  0  0
   -0.3770    7.5574    5.4386 H   0  0  0  0  0  0  0  0  0  0  0  0
   -0.9541    7.4889    3.7740 H   0  0  0  0  0  0  0  0  0  0  0  0
    0.4713    6.5602    4.2513 H   0  0  0  0  0  0  0  0  0  0  0  0
    2.0336   -1.3116   -1.9046 H   0  0  0  0  0  0  0  0  0  0  0  0
    1.0159   -0.1087   -1.1159 H   0  0  0  0  0  0  0  0  0  0  0  0
   -0.3658   -1.4475   -2.6619 H   0  0  0  0  0  0  0  0  0  0  0  0
   -0.8202   -1.9766   -1.0352 H   0  0  0  0  0  0  0  0  0  0  0  0
    0.2731   -2.9521   -2.0128 H   0  0  0  0  0  0  0  0  0  0  0  0
   -1.6840    1.4441    0.2948 H   0  0  0  0  0  0  0  0  0  0  0  0
   -0.7775    0.1455   -0.4737 H   0  0  0  0  0  0  0  0  0  0  0  0
   -1.5070   -1.4236    1.3597 H   0  0  0  0  0  0  0  0  0  0  0  0
   -2.8822   -0.7347    0.4822 H   0  0  0  0  0  0  0  0  0  0  0  0
   -2.4470   -0.1117    2.0751 H   0  0  0  0  0  0  0  0  0  0  0  0
   -3.3360    6.6809    3.5463 H   0  0  0  0  0  0  0  0  0  0  0  0
   -7.4514    9.1730    0.8494 H   0  0  0  0  0  0  0  0  0  0  0  0
  1  2  2  0  0  0  0
  2  3  1  0  0  0  0
  3  4  2  0  0  0  0
  3  5  1  0  0  0  0
  5  6  2  0  0  0  0
  6  7  1  0  0  0  0
  6  8  1  0  0  0  0
  8  9  2  0  0  0  0
  9 10  1  0  0  0  0
  9 11  1  0  0  0  0
 11 12  2  0  0  0  0
 12 13  1  0  0  0  0
 13 14  2  0  0  0  0
 14 15  1  0  0  0  0
 15 16  3  0  0  0  0
 14 17  1  0  0  0  0
 17 18  3  0  0  0  0
  1 19  1  0  0  0  0
 19 20  2  0  0  0  0
 20 21  1  0  0  0  0
 21 22  1  0  0  0  0
 20 23  1  0  0  0  0
 23 24  1  0  0  0  0
 24 25  1  0  0  0  0
 25 26  1  0  0  0  0
 26 27  1  0  0  0  0
 27 28  1  0  0  0  0
 28 29  2  0  0  0  0
 29 30  1  0  0  0  0
 30 31  1  0  0  0  0
 31 32  1  0  0  0  0
 30 33  1  0  0  0  0
 28 34  1  0  0  0  0
 34 35  1  0  0  0  0
 35 36  1  0  0  0  0
 36 37  1  0  0  0  0
 37 38  1  0  0  0  0
 38 39  1  0  0  0  0
 39 40  1  0  0  0  0
 38 41  2  0  0  0  0
 41 42  1  0  0  0  0
 42 43  1  0  0  0  0
 43 44  1  0  0  0  0
 44 45  1  0  0  0  0
 45 46  1  0  0  0  0
 46 47  1  0  0  0  0
 47 48  1  0  0  0  0
 48 49  1  0  0  0  0
 49 50  1  0  0  0  0
 50 51  1  0  0  0  0
 48 52  1  0  0  0  0
 52 53  1  0  0  0  0
 45 54  1  0  0  0  0
 54 55  1  0  0  0  0
 41 56  1  0  0  0  0
 56 57  2  0  0  0  0
 57 58  1  0  0  0  0
 58 59  2  0  0  0  0
 58 60  1  0  0  0  0
 60 61  2  0  0  0  0
 61 62  1  0  0  0  0
 62 63  2  0  0  0  0
 63 64  1  0  0  0  0
 63 65  1  0  0  0  0
 65 66  1  0  0  0  0
 65 67  2  0  0  0  0
 67 68  1  0  0  0  0
 61 69  1  0  0  0  0
 69 70  2  0  0  0  0
 70 71  1  0  0  0  0
 71 72  3  0  0  0  0
 70 73  1  0  0  0  0
 73 74  3  0  0  0  0
 13  2  1  0  0  0  0
 51 19  1  0  0  0  0
 69 57  1  0  0  0  0
 12  5  1  0  0  0  0
 50 23  2  0  0  0  0
 67 60  1  0  0  0  0
 49 25  2  0  0  0  0
 47 26  2  0  0  0  0
 33 27  2  0  0  0  0
 46 34  2  0  0  0  0
 44 35  2  0  0  0  0
 43 37  2  0  0  0  0
  1 75  1  0  0  0  0
  8 76  1  0  0  0  0
 11 77  1  0  0  0  0
 21 78  1  0  0  0  0
 21 79  1  0  0  0  0
 22 80  1  0  0  0  0
 22 81  1  0  0  0  0
 22 82  1  0  0  0  0
 31 83  1  0  0  0  0
 31 84  1  0  0  0  0
 32 85  1  0  0  0  0
 32 86  1  0  0  0  0
 32 87  1  0  0  0  0
 39 88  1  0  0  0  0
 39 89  1  0  0  0  0
 40 90  1  0  0  0  0
 40 91  1  0  0  0  0
 40 92  1  0  0  0  0
 52 93  1  0  0  0  0
 52 94  1  0  0  0  0
 53 95  1  0  0  0  0
 53 96  1  0  0  0  0
 53 97  1  0  0  0  0
 54 98  1  0  0  0  0
 54 99  1  0  0  0  0
 55100  1  0  0  0  0
 55101  1  0  0  0  0
 55102  1  0  0  0  0
 56103  1  0  0  0  0
 62104  1  0  0  0  0
M  END
