155

C         -5.59840       -3.90710        5.40370
C         -6.52970       -4.89180        5.23650
C         -7.79970       -4.84330        6.00350
O         -8.04250       -4.14630        6.96070
C         -8.70280       -5.78480        5.30260
C        -10.05070       -6.04380        5.50240
Cl       -10.92970       -5.25650        6.74390
C        -10.69100       -6.96050        4.67170
C         -9.97420       -7.58960        3.66720
Br       -10.87750       -8.81400        2.53840
C         -8.61960       -7.35640        3.45280
C         -7.99110       -6.44920        4.28420
C         -6.59320       -6.01730        4.33750
C         -5.52660       -6.74000        3.86940
C         -5.64600       -7.90130        3.08100
N         -5.69500       -8.84000        2.42230
C         -4.19270       -6.45270        4.22820
N         -3.10390       -6.28390        4.55010
C         -4.57800       -3.49090        4.52820
S         -4.59730       -3.87950        2.80350
C         -3.16990       -2.95760        2.56490
C         -2.28810       -2.55710        1.56550
S         -2.08150       -2.68200       -0.15050
C         -0.69680       -1.64760       -0.02210
C          0.14140       -0.98830       -0.97240
C          0.13510       -1.01980       -2.36370
C          0.98200       -0.15390       -3.01560
C          1.15620        0.04410       -4.51160
C         -0.19980        0.35720       -5.11940
C         -0.65540        1.66420       -5.22400
C         -1.90820        1.92500       -5.74870
C         -2.73670        0.89480       -6.17250
C         -4.11110        1.18080       -6.70530
C         -5.13440        1.18620       -5.56780
C         -2.28160       -0.41160       -6.04720
C         -1.03030       -0.67980       -5.52610
C          1.83420       -1.12440       -5.20510
C          1.85170       -1.17050       -6.59410
C          2.49820       -2.19720       -7.25400
C          3.14720       -3.20200       -6.54720
C          3.88460       -4.29530       -7.26490
C          5.34590       -3.89830       -7.48550
C          3.13860       -3.14270       -5.16060
C          2.49450       -2.11570       -4.49400
C          2.10950        1.21060       -4.53770
C          2.44480        1.58090       -3.24040
C          1.77940        0.75850       -2.28540
C          1.80430        0.77110       -0.89150
C          1.00350       -0.13510       -0.24070
C          0.85320       -0.37990        1.25820
C          0.63210        0.90590        2.03220
C         -0.52610        1.63130        1.77060
C         -0.80470        2.79250        2.46390
C          0.07060        3.27090        3.43110
C         -0.21330        4.54530        4.17090
C          0.39360        5.74110        3.43460
C          1.23570        2.55800        3.67090
C          1.51140        1.38500        2.99130
C          2.07340       -1.17820        1.70750
C          1.95430       -2.45110        2.25120
C          3.07340       -3.16290        2.64610
C          4.34700       -2.63100        2.50710
C          5.56130       -3.42470        2.89100
C          6.03980       -4.26930        1.70780
C          4.46700       -1.36520        1.94890
C          3.35170       -0.65190        1.55330
C         -0.38000       -1.24870        1.26770
C         -1.29680       -1.75460        2.18800
N         -1.55960       -1.66290        3.53670
C         -2.71440       -2.37780        3.77350
C         -3.51990       -2.65730        4.86670
C         -0.92160       -0.84060        4.45500
C          0.38150       -0.87570        4.84660
C          0.65810        0.15650        5.76180
S          2.06790        0.69160        6.60120
C          1.16610        1.99850        7.34300
C          1.88680        2.92220        8.26670
C          1.03530        4.09860        8.72880
C         -0.14000        2.00670        6.96450
C         -0.42920        0.96220        6.06310
S         -1.83980        0.45910        5.20650
S          3.51320        2.91510       -3.19030
C          3.51550        2.99040       -4.94930
C          2.74300        1.97670       -5.50310
C          4.26830        3.94850       -5.65960
C          4.71800        5.16190       -5.22830
C          5.86530        5.82070       -5.90240
O          6.35760        5.52140       -6.96610
C          6.30450        6.87710       -4.96330
C          7.40310        7.71140       -5.03720
C          7.62400        8.61020       -4.00400
C          6.75170        8.65200       -2.92620
I          7.12990       10.01110       -1.35520
C          5.63670        7.82970       -2.84090
C          5.41450        6.93810       -3.87570
C          4.33010        5.98320       -4.10400
C          3.07640        6.06800       -3.55660
C          1.97410        5.33130       -4.03780
N          1.04330        4.79120       -4.43790
C          2.72800        6.95960       -2.52300
N          2.40180        7.65390       -1.66900
H         -5.72150       -3.30350        6.29810
H        -11.73890       -7.17300        4.81190
H         -8.09720       -7.86280        2.65730
H         -0.52280       -1.68700       -2.89830
H         -0.03600        2.48820       -4.90250
H         -2.24220        2.94900       -5.83130
H         -4.12040        2.15320       -7.20170
H         -4.39080        0.42000       -7.43710
H         -6.13030        1.39330       -5.95260
H         -4.87930        1.94770       -4.83420
H         -5.14890        0.22060       -5.06700
H         -2.91200       -1.22980       -6.36590
H         -0.69010       -1.70280       -5.44950
H          1.34240       -0.40340       -7.15930
H          2.49620       -2.22130       -8.33440
H          3.84680       -5.21470       -6.67720
H          3.41420       -4.48720       -8.23110
H          5.83610       -3.71450       -6.53190
H          5.40550       -2.98980       -8.08070
H          5.88110       -4.68990       -8.00480
H          3.64060       -3.91180       -4.59090
H          2.50460       -2.09230       -3.41380
H          2.40680        1.49600       -0.36620
H         -1.21830        1.27600        1.01960
H         -1.71750        3.33200        2.25560
H          0.21160        4.48630        5.17560
H         -1.29210        4.68650        4.26260
H          0.18380        6.66420        3.96950
H         -0.02040        5.81890        2.43210
H          1.47180        5.62600        3.35000
H          1.93520        2.91490        4.41370
H          2.41260        0.84090        3.22980
H          0.98350       -2.90900        2.36900
H          2.94900       -4.14910        3.07000
H          5.32420       -4.08220        3.72960
H          6.36270       -2.75030        3.19980
H          5.25840       -4.95840        1.39460
H          6.92070       -4.84420        1.98290
H          6.29090       -3.63070        0.86350
H          5.44760       -0.92920        1.82150
H          3.48450        0.32680        1.12100
H         -3.35100       -2.30990        5.86940
H          1.09880       -1.59430        4.49690
H          2.78340        3.29420        7.76150
H          2.22820        2.35430        9.13810
H          0.16840        3.75160        9.28520
H          1.62180        4.74470        9.37700
H          0.69360        4.68440        7.87870
H         -0.86780        2.72060        7.29960
H          2.62620        1.86030       -6.56520
H          4.58990        3.65690       -6.65490
H          8.07100        7.65920       -5.88290
H          8.47440        9.27350       -4.03670
H          4.97840        7.88150       -1.98850
