163

C          6.74320       -3.56610        5.85990
C          6.99880       -4.66290        6.65220
C          6.01920       -5.68160        7.03570
O          4.84180       -5.72990        6.73160
C          6.74950       -6.65110        7.87680
C          6.29670       -7.80540        8.49670
Cl         4.66590       -8.30940        8.35160
C          7.19360       -8.56130        9.24780
C          8.50890       -8.14330        9.35650
Br         9.71060       -9.18790       10.38440
C          8.98580       -6.98900        8.74270
C          8.09100       -6.24270        7.99800
C          8.27370       -5.00130        7.23860
C          9.45990       -4.31970        7.12560
C          9.66250       -3.13180        6.39310
N          9.91680       -2.16690        5.82320
C         10.66830       -4.71830        7.73420
N         11.68460       -4.98610        8.19650
C          5.57040       -3.14600        5.22920
S          3.99620       -3.94900        5.28580
C          3.34150       -2.73960        4.25480
C          2.16000       -2.38200        3.60850
S          0.54970       -2.98150        3.36940
C          0.26020       -1.67260        2.27290
C         -0.78760       -1.35900        1.35340
C         -1.99600       -2.00210        1.10180
C         -2.73230       -1.55970        0.02770
C         -4.07700       -2.06480       -0.46720
C         -5.09980       -1.76750        0.61870
C         -5.81690       -0.57910        0.62860
C         -6.71220       -0.31410        1.64890
C         -6.90540       -1.21660        2.68560
C         -7.91370       -0.94560        3.76480
C         -9.28120       -1.50740        3.37040
C         -6.17670       -2.39900        2.67480
C         -5.28170       -2.67130        1.65810
C         -4.09290       -3.52360       -0.87870
C         -2.92370       -4.22430       -1.13600
C         -2.97510       -5.54360       -1.54950
C         -4.18960       -6.19190       -1.72440
C         -4.24300       -7.61130       -2.21100
C         -4.31520       -7.65040       -3.73890
C         -5.35790       -5.47880       -1.48560
C         -5.31240       -4.16230       -1.07100
C         -4.26760       -1.21610       -1.69670
C         -3.20770       -0.33060       -1.83540
C         -2.25820       -0.50280       -0.78420
C         -1.06630        0.16450       -0.50950
C         -0.34590       -0.25670        0.58180
C          0.96530        0.29410        1.13480
C          0.63890        1.60080        1.84740
C          0.15780        2.68810        1.12600
C         -0.13860        3.88140        1.75530
C          0.02470        4.02610        3.12680
C         -0.23930        5.34050        3.80130
C          1.03460        6.18800        3.82640
C          0.48650        2.93530        3.84790
C          0.78550        1.73930        3.22080
C          2.04430        0.42120        0.07630
C          2.71040        1.60580       -0.20090
C          3.71900        1.63860       -1.14670
C          4.09810        0.49410       -1.83300
C          5.18030        0.55070       -2.87130
C          4.62220        1.05590       -4.20300
C          3.42330       -0.68870       -1.55940
C          2.41150       -0.72550       -0.62010
C          1.32220       -0.79260        2.11860
C          2.42010       -1.19690        2.87350
N          3.73200       -0.82250        3.05660
C          4.30640       -1.76160        3.89020
C          5.54890       -1.98770        4.43720
C          4.40070        0.23120        2.44960
C          5.45120        0.13070        1.58710
C          5.89960        1.40230        1.19030
S          7.10530        1.98180        0.10170
C          6.63640        3.63660        0.42000
C          7.31110        4.74310       -0.31400
C          6.81330        4.82910       -1.75910
C          5.61550        3.72550        1.31490
C          5.19620        2.45560        1.75880
S          3.96590        1.88930        2.82820
S         -3.36320        0.66950       -3.21550
C         -4.88480       -0.11240       -3.62340
C         -5.19900       -1.11740       -2.72020
C         -5.61470        0.21200       -4.79050
C         -5.58590        1.35310       -5.52930
C         -6.03330        1.33230       -6.95010
O         -6.66650        0.45830       -7.49660
C         -5.48340        2.56970       -7.53440
C         -5.49100        3.00630       -8.84000
C         -4.89470        4.22390       -9.17790
O         -4.97820        4.52200      -10.49260
C         -4.53010        5.74920      -11.02790
C         -4.27820        4.99840       -8.16090
O         -3.69120        6.17270       -8.52380
C         -3.09950        6.98080       -7.53090
C         -4.28500        4.54730       -6.84380
C         -4.88550        3.34160       -6.52400
C         -5.07300        2.67680       -5.24480
C         -5.04280        3.28570       -4.01430
C         -5.52870        2.68070       -2.83810
N         -5.96520        2.24090       -1.87110
C         -4.61390        4.61100       -3.81700
N         -4.24740        5.68160       -3.61760
H          7.58000       -2.90400        5.67360
H          6.86170       -9.46250        9.73790
H         10.01900       -6.70650        8.85730
H         -2.31900       -2.82770        1.71650
H         -5.68770        0.14740       -0.15950
H         -7.26560        0.61350        1.63600
H         -8.00060        0.13040        3.92770
H         -7.59020       -1.40870        4.69930
H        -10.01320       -1.31190        4.15070
H         -9.21800       -2.58210        3.21430
H         -9.62590       -1.04740        2.44700
H         -6.30890       -3.11520        3.47360
H         -4.73030       -3.60070        1.66510
H         -1.96560       -3.74120       -1.01040
H         -2.05420       -6.07760       -1.73640
H         -3.35360       -8.15050       -1.87880
H         -5.12080       -8.11150       -1.79700
H         -5.20330       -7.12930       -4.08930
H         -4.35320       -8.67820       -4.09200
H         -3.44240       -7.16600       -4.17120
H         -6.31470       -5.96230       -1.62250
H         -6.23070       -3.62560       -0.88080
H         -0.72700        0.95660       -1.15850
H          0.01890        2.60990        0.05920
H         -0.50630        4.71240        1.17030
H         -1.02230        5.88170        3.26670
H         -0.57790        5.17010        4.82500
H          1.82580        5.66490        4.35930
H          1.37700        6.38530        2.81280
H          0.85020        7.13830        4.32170
H          0.61590        3.01750        4.91750
H          1.13940        0.91410        3.81990
H          2.45490        2.51150        0.32730
H          4.22740        2.57170       -1.34480
H          5.97540        1.22020       -2.53620
H          5.61000       -0.44260       -3.01320
H          5.40730        1.09450       -4.95440
H          3.83410        0.39500       -4.55730
H          4.20410        2.05320       -4.08530
H          3.69670       -1.59300       -2.08420
H          1.89890       -1.65600       -0.41830
H          6.41810       -1.37190        4.29070
H          5.85700       -0.80280        1.24450
H          8.39060        4.57670       -0.31730
H          7.10870        5.68410        0.20110
H          5.74090        5.01100       -1.78020
H          7.01940        3.89960       -2.28530
H          7.31290        5.64090       -2.28100
H          5.18410        4.65310        1.64350
H         -6.09030       -1.71160       -2.80810
H         -6.22480       -0.58940       -5.19700
H         -5.95850        2.42690       -9.61970
H         -3.45100        5.86920      -10.91780
H         -5.03910        6.59900      -10.56950
H         -4.78480        5.70100      -12.08630
H         -2.25110        6.47840       -7.05710
H         -2.74610        7.86610       -8.05680
H         -3.82270        7.27640       -6.76580
H         -3.80890        5.12930       -6.07390
