106

C         -5.57040        5.20610       -2.02700
C         -6.72580        4.46880       -2.17530
C         -6.84430        3.01810       -2.03610
O         -5.95640        2.21890       -1.79630
C         -8.27110        2.70350       -2.24600
C         -8.92500        1.48180       -2.21440
Cl        -8.07700        0.02840       -1.89190
C        -10.29700        1.44630       -2.44970
C        -10.97210        2.62710       -2.70830
Br       -12.83920        2.55380       -3.02650
C        -10.33690        3.86490       -2.74460
C         -8.97460        3.89360       -2.51010
C         -8.02820        5.01350       -2.47760
C         -8.35830        6.32530       -2.71140
C         -7.46370        7.41540       -2.69750
N         -6.80450        8.35680       -2.70470
C         -9.66060        6.77730       -3.01070
N        -10.69300        7.21410       -3.25890
C         -4.26140        4.81560       -1.75200
C         -3.20200        5.73620       -1.61170
C         -3.32820        7.22310       -1.66770
C         -3.79570        7.77950       -0.31960
C         -2.00430        5.09180       -1.34990
C         -2.10640        3.68750       -1.29220
S         -3.72030        3.14640       -1.55250
C         -0.86730        3.10580       -1.02280
C          0.15610        4.05490       -0.89480
S         -0.37580        5.68790       -1.08030
C          1.34760        3.35060       -0.68460
C          2.68090        3.83300       -0.61690
N          2.94400        5.14330       -0.68470
C          4.20590        5.51880       -0.67680
C          4.47720        6.98430       -0.75290
C          5.25560        4.56840       -0.60430
C          6.68980        4.98060       -0.61010
N          5.00450        3.27840       -0.52590
C          3.72430        2.88890       -0.52490
C          3.37670        1.51960       -0.38430
C          4.20280        0.41400       -0.14210
S          5.88370        0.05540        0.03580
C          5.45710       -1.60860        0.39520
C          6.21830       -2.71990        0.72400
C          7.71070       -2.69330        0.77860
C          8.31270       -3.18790       -0.53960
C          5.40790       -3.85180        0.94040
S          3.69240       -3.49230        0.72700
C          4.07110       -1.85280        0.36360
C          3.36410       -0.69070        0.04820
N          2.05260       -0.32030       -0.10370
C          1.03670       -1.16900        0.48170
C          0.84950       -0.84910        1.96330
C          2.03480        1.03820       -0.37220
C          1.00300        1.96670       -0.64580
N         -0.35120        1.84450       -0.88290
C         -1.14110        0.70110       -1.28160
C         -2.11480        0.25970       -0.19040
C          5.92650       -5.09680        1.29930
C          5.30720       -6.30400        1.53110
C          3.87240       -6.57300        1.40850
O          2.99030       -5.78140        1.13160
C          3.70670       -8.01260        1.69480
C          2.57260       -8.80300        1.70180
F          1.37120       -8.28800        1.41880
C          2.67080      -10.15570        2.00450
C          3.90820      -10.70090        2.29730
C          5.06220       -9.92580        2.29750
C          4.95960       -8.57830        1.99590
C          5.97650       -7.52590        1.91610
C          7.31060       -7.70080        2.18760
C          8.30130       -6.69850        2.13470
N          9.16720       -5.94280        2.12030
C          7.89070       -8.92630        2.57630
N          8.43230       -9.88640        2.89770
H         -5.68290        6.27600       -2.13590
H        -10.82430        0.50600       -2.42950
H        -10.90660        4.75600       -2.94950
H         -2.34670        7.63920       -1.90300
H         -4.02620        7.53020       -2.44790
H         -3.87170        8.86150       -0.37520
H         -3.08760        7.51770        0.46310
H         -4.77110        7.37890       -0.05390
H          5.03400        7.31420        0.12290
H          5.07150        7.21580       -1.63560
H          3.53340        7.51950       -0.80320
H          6.92550        5.52360       -1.52430
H          6.90120        5.63580        0.23370
H          7.31550        4.09520       -0.54500
H          8.08530       -3.30590        1.60010
H          8.02640       -1.66220        0.94910
H          7.98200       -2.56140       -1.36470
H          9.39690       -3.15140       -0.48520
H          8.01210       -4.21360       -0.74030
H          0.09330       -1.07160       -0.04430
H          1.38230       -2.19990        0.37000
H          0.54040        0.18620        2.09650
H          1.78120       -1.00180        2.50270
H          0.09330       -1.50270        2.38880
H         -1.72140        0.99590       -2.16280
H         -0.46810       -0.10110       -1.58830
H         -2.60390       -0.66390       -0.48710
H         -1.60840        0.10390        0.75830
H         -2.88080        1.01740       -0.04940
H          7.00260       -5.09560        1.40490
H          1.77780      -10.76050        2.00570
H          3.98030      -11.75190        2.53080
H          6.01030      -10.38120        2.52850
