106

C         -1.26460        5.43580        4.72320
C         -0.69420        6.22610        5.69080
C          0.68080        6.05290        6.20450
O          1.46140        5.16180        5.94660
C          0.95430        7.26790        7.00360
C          2.09610        7.62510        7.70430
Cl         3.46270        6.59320        7.76040
C          2.11990        8.84400        8.37750
C          1.01150        9.67260        8.32520
Br         1.07310       11.33040        9.24210
C         -0.14470        9.33730        7.62770
C         -0.16360        8.12220        6.96750
C         -1.21200        7.48490        6.16930
C         -2.48490        7.96240        5.99070
C         -2.95060        9.19440        6.49430
N         -3.38300       10.18850        6.87170
C         -3.50690        7.27050        5.30650
N         -4.39130        6.75410        4.78720
C         -0.88760        4.13000        4.36670
C         -0.38380        3.07460        5.12860
C         -0.25660        3.09370        6.61370
C         -0.86790        1.86100        7.27660
C         -0.14080        1.95260        4.32740
C         -0.47580        2.12220        2.97290
S         -1.14510        3.67880        2.67740
C         -0.16830        0.99520        2.21030
C          0.39780       -0.02560        2.98660
S          0.55250        0.37870        4.65620
C          0.64770       -1.11190        2.13170
C          1.08110       -2.43710        2.40350
N          1.41550       -2.80960        3.64430
C          1.73680       -4.06970        3.84800
C          2.11420       -4.45700        5.23870
C          1.71660       -5.01280        2.78920
C          2.04990       -6.45020        3.01080
N          1.40570       -4.65300        1.56180
C          1.09620       -3.37030        1.34000
C          0.82620       -2.90130        0.02640
C          0.89200       -3.54470       -1.21920
S          1.17290       -5.12740       -1.85100
C          0.98890       -4.48030       -3.47040
C          1.04950       -5.06870       -4.72350
C          1.27710       -6.53140       -4.92190
C         -0.05290       -7.27210       -5.08710
C          0.80810       -4.12770       -5.74460
S          0.52360       -2.50610       -5.10190
C          0.72550       -3.09680       -3.49690
C          0.67140       -2.57120       -2.20570
N          0.45210       -1.34840       -1.61750
C          0.75990       -0.12720       -2.33590
C          2.21660       -0.11010       -2.79780
C          0.51110       -1.54380       -0.25160
C          0.26570       -0.68320        0.83380
N         -0.25980        0.59490        0.89840
C         -1.28310        1.14960        0.03390
C         -2.67730        0.95160        0.62760
C          0.79390       -4.47010       -7.09640
C          0.52790       -3.71880       -8.21990
C          0.17200       -2.30130       -8.24620
O          0.09710       -1.52720       -7.30820
C         -0.08180       -1.97160       -9.66510
C         -0.46840       -0.76390      -10.20980
C         -0.64990       -0.70760      -11.58250
F         -1.02680        0.44310      -12.15410
C         -0.44480       -1.83800      -12.37290
F         -0.62910       -1.75600      -13.69550
C         -0.05420       -3.05100      -11.82410
C          0.12930       -3.11580      -10.45210
C          0.52840       -4.22090       -9.57750
C          0.84980       -5.48400      -10.00610
C          1.25170       -6.55760       -9.18460
N          1.58710       -7.48130       -8.58850
C          0.83050       -5.88940      -11.35760
N          0.83450       -6.28490      -12.43500
H         -2.04750        5.87090        4.11240
H          2.99710        9.13650        8.93220
H         -0.98230       10.01500        7.61090
H         -0.74530        3.99020        7.00050
H          0.80510        3.16290        6.86890
H         -1.90540        1.74040        6.97210
H         -0.32120        0.95930        7.01730
H         -0.83800        1.97930        8.35680
H          1.43460       -5.21790        5.61960
H          2.06830       -3.58020        5.87800
H          3.12280       -4.86720        5.25870
H          3.06490       -6.55100        3.39220
H          1.37160       -6.88950        3.74080
H          1.96380       -6.98550        2.06970
H          1.79170       -6.91800       -4.04020
H          1.90620       -6.71660       -5.79360
H          0.13250       -8.33320       -5.22650
H         -0.59690       -6.90100       -5.95250
H         -0.67260       -7.13770       -4.20380
H          0.09640       -0.05590       -3.20310
H          0.60000        0.72460       -1.67790
H          2.40940       -0.90630       -3.51080
H          2.88310       -0.23090       -1.94630
H          2.43170        0.84010       -3.27830
H         -1.08410        2.21730       -0.10170
H         -1.24770        0.64580       -0.92980
H         -2.78250        1.48370        1.56860
H         -2.86470       -0.10620        0.80030
H         -3.42310        1.32970       -0.06580
H          1.01740       -5.51300       -7.27410
H         -0.62660        0.10750       -9.59490
H          0.09010       -3.89370      -12.47980
