
  xtb     02012218023D
 energy: -219.191470172320 gnorm: 0.000485243246 xtb: 6.4.1 (unknown)
110125  0     0  0            999 V2000
   -7.3238    2.8112   -6.8237 C   0  0  0  0  0  0  0  0  0  0  0  0
   -7.7253    4.1127   -6.8515 C   0  0  0  0  0  0  0  0  0  0  0  0
   -9.1106    4.4483   -7.2748 C   0  0  0  0  0  0  0  0  0  0  0  0
   -9.8869    3.7235   -7.8505 O   0  0  0  0  0  0  0  0  0  0  0  0
   -9.3339    5.8253   -6.7802 C   0  0  0  0  0  0  0  0  0  0  0  0
  -10.4903    6.5918   -6.7695 C   0  0  0  0  0  0  0  0  0  0  0  0
  -11.9519    5.9990   -7.4367 Cl  0  0  0  0  0  0  0  0  0  0  0  0
  -10.4504    7.8626   -6.2009 C   0  0  0  0  0  0  0  0  0  0  0  0
   -9.2654    8.3328   -5.6584 C   0  0  0  0  0  0  0  0  0  0  0  0
   -9.2487   10.0558   -4.8720 Br  0  0  0  0  0  0  0  0  0  0  0  0
   -8.0896    7.5892   -5.6661 C   0  0  0  0  0  0  0  0  0  0  0  0
   -8.1364    6.3313   -6.2362 C   0  0  0  0  0  0  0  0  0  0  0  0
   -7.0827    5.3331   -6.4241 C   0  0  0  0  0  0  0  0  0  0  0  0
   -5.7409    5.6003   -6.4792 C   0  0  0  0  0  0  0  0  0  0  0  0
   -5.1736    6.8506   -6.1600 C   0  0  0  0  0  0  0  0  0  0  0  0
   -4.6703    7.8490   -5.9024 N   0  0  0  0  0  0  0  0  0  0  0  0
   -4.7975    4.6762   -6.9780 C   0  0  0  0  0  0  0  0  0  0  0  0
   -4.0154    3.9734   -7.4375 N   0  0  0  0  0  0  0  0  0  0  0  0
   -6.2832    2.2144   -6.0780 C   0  0  0  0  0  0  0  0  0  0  0  0
   -5.5648    2.9766   -4.6661 S   0  0  0  0  0  0  0  0  0  0  0  0
   -4.5824    1.5877   -4.3677 C   0  0  0  0  0  0  0  0  0  0  0  0
   -3.6696    1.4300   -3.3222 C   0  0  0  0  0  0  0  0  0  0  0  0
   -3.3346    2.6349   -2.0953 S   0  0  0  0  0  0  0  0  0  0  0  0
   -2.2015    1.5629   -1.3671 C   0  0  0  0  0  0  0  0  0  0  0  0
   -1.3115    1.5371   -0.2797 C   0  0  0  0  0  0  0  0  0  0  0  0
   -0.8775    2.5151    0.6451 C   0  0  0  0  0  0  0  0  0  0  0  0
    0.1970    2.1970    1.5503 C   0  0  0  0  0  0  0  0  0  0  0  0
    0.5470    3.2321    2.2967 N   0  0  0  0  0  0  0  0  0  0  0  0
   -0.3904    4.4920    1.9075 S   0  0  0  0  0  0  0  0  0  0  0  0
   -1.2827    3.7687    0.7679 N   0  0  0  0  0  0  0  0  0  0  0  0
    0.6828    0.8698    1.6032 C   0  0  0  0  0  0  0  0  0  0  0  0
    1.5815    0.2028    2.4539 C   0  0  0  0  0  0  0  0  0  0  0  0
    2.6734    0.5651    3.7354 S   0  0  0  0  0  0  0  0  0  0  0  0
    3.0592   -1.1376    3.8737 C   0  0  0  0  0  0  0  0  0  0  0  0
    3.9721   -1.6786    4.7835 C   0  0  0  0  0  0  0  0  0  0  0  0
    4.2402   -3.0584    4.8536 C   0  0  0  0  0  0  0  0  0  0  0  0
    3.5510   -3.8880    3.9364 C   0  0  0  0  0  0  0  0  0  0  0  0
    3.5954   -5.2060    3.7356 N   0  0  0  0  0  0  0  0  0  0  0  0
    2.7697   -5.4125    2.7450 N   0  0  0  0  0  0  0  0  0  0  0  0
    2.4978   -6.7314    2.2513 C   0  0  0  0  0  0  0  0  0  0  0  0
    1.3029   -7.3397    2.9800 C   0  0  0  0  0  0  0  0  0  0  0  0
    2.1659   -4.3566    2.2590 N   0  0  0  0  0  0  0  0  0  0  0  0
    2.6317   -3.3404    2.9933 C   0  0  0  0  0  0  0  0  0  0  0  0
    2.3630   -1.9503    2.9550 C   0  0  0  0  0  0  0  0  0  0  0  0
    1.5215   -1.1611    2.1470 C   0  0  0  0  0  0  0  0  0  0  0  0
    0.6370   -1.3679    1.1159 N   0  0  0  0  0  0  0  0  0  0  0  0
    0.1448   -0.1286    0.7523 C   0  0  0  0  0  0  0  0  0  0  0  0
   -0.7197    0.2487   -0.2966 C   0  0  0  0  0  0  0  0  0  0  0  0
   -1.1712   -0.4595   -1.3940 N   0  0  0  0  0  0  0  0  0  0  0  0
   -2.0855    0.3394   -2.0380 C   0  0  0  0  0  0  0  0  0  0  0  0
   -2.9220    0.2434   -3.1658 C   0  0  0  0  0  0  0  0  0  0  0  0
   -3.1427   -0.7854   -4.1145 C   0  0  0  0  0  0  0  0  0  0  0  0
   -4.0705   -0.6160   -5.1841 C   0  0  0  0  0  0  0  0  0  0  0  0
   -4.8140    0.5813   -5.3264 C   0  0  0  0  0  0  0  0  0  0  0  0
   -5.7848    0.9415   -6.2657 C   0  0  0  0  0  0  0  0  0  0  0  0
   -4.0629   -1.7389   -5.9040 N   0  0  0  0  0  0  0  0  0  0  0  0
   -3.1977   -2.5080   -5.2990 N   0  0  0  0  0  0  0  0  0  0  0  0
   -2.8542   -3.8046   -5.8071 C   0  0  0  0  0  0  0  0  0  0  0  0
   -1.5670   -3.7327   -6.6232 C   0  0  0  0  0  0  0  0  0  0  0  0
   -2.6188   -2.0098   -4.2349 N   0  0  0  0  0  0  0  0  0  0  0  0
   -0.3920   -1.4352   -2.1318 C   0  0  0  0  0  0  0  0  0  0  0  0
    0.4286   -0.7553   -3.2277 C   0  0  0  0  0  0  0  0  0  0  0  0
   -0.0923   -2.6164    1.0093 C   0  0  0  0  0  0  0  0  0  0  0  0
   -0.9437   -2.8522    2.2570 C   0  0  0  0  0  0  0  0  0  0  0  0
    5.1726   -3.3805    5.8475 C   0  0  0  0  0  0  0  0  0  0  0  0
    5.6650   -2.2784    6.5090 C   0  0  0  0  0  0  0  0  0  0  0  0
    4.9063   -0.7986    5.9402 S   0  0  0  0  0  0  0  0  0  0  0  0
    6.5882   -2.2885    7.5843 C   0  0  0  0  0  0  0  0  0  0  0  0
    7.3830   -1.2815    8.0310 C   0  0  0  0  0  0  0  0  0  0  0  0
    7.9271   -1.3313    9.4229 C   0  0  0  0  0  0  0  0  0  0  0  0
    7.9304   -2.2811   10.1701 O   0  0  0  0  0  0  0  0  0  0  0  0
    8.3880    0.0359    9.6570 C   0  0  0  0  0  0  0  0  0  0  0  0
    9.0411    0.9059   10.9778 S   0  0  0  0  0  0  0  0  0  0  0  0
    9.1445    2.3215    9.9715 C   0  0  0  0  0  0  0  0  0  0  0  0
    9.8145    3.9185   10.6823 Br  0  0  0  0  0  0  0  0  0  0  0  0
    8.7107    2.1353    8.6873 C   0  0  0  0  0  0  0  0  0  0  0  0
    8.2677    0.8139    8.5112 C   0  0  0  0  0  0  0  0  0  0  0  0
    7.7693   -0.0176    7.4301 C   0  0  0  0  0  0  0  0  0  0  0  0
    7.9235    0.2634    6.0995 C   0  0  0  0  0  0  0  0  0  0  0  0
    8.3977    1.5150    5.6553 C   0  0  0  0  0  0  0  0  0  0  0  0
    8.7717    2.5341    5.2848 N   0  0  0  0  0  0  0  0  0  0  0  0
    7.7423   -0.6814    5.0683 C   0  0  0  0  0  0  0  0  0  0  0  0
    7.6730   -1.4379    4.2081 N   0  0  0  0  0  0  0  0  0  0  0  0
   -7.9529    2.1210   -7.3779 H   0  0  0  0  0  0  0  0  0  0  0  0
  -11.3401    8.4717   -6.1823 H   0  0  0  0  0  0  0  0  0  0  0  0
   -7.1882    7.9876   -5.2294 H   0  0  0  0  0  0  0  0  0  0  0  0
    3.3935   -7.3321    2.4178 H   0  0  0  0  0  0  0  0  0  0  0  0
    2.2931   -6.6504    1.1819 H   0  0  0  0  0  0  0  0  0  0  0  0
    1.1060   -8.3370    2.5977 H   0  0  0  0  0  0  0  0  0  0  0  0
    0.4184   -6.7249    2.8311 H   0  0  0  0  0  0  0  0  0  0  0  0
    1.5090   -7.4076    4.0453 H   0  0  0  0  0  0  0  0  0  0  0  0
   -6.0935    0.2998   -7.0707 H   0  0  0  0  0  0  0  0  0  0  0  0
   -2.7283   -4.4784   -4.9565 H   0  0  0  0  0  0  0  0  0  0  0  0
   -3.6873   -4.1368   -6.4283 H   0  0  0  0  0  0  0  0  0  0  0  0
   -1.6946   -3.0605   -7.4680 H   0  0  0  0  0  0  0  0  0  0  0  0
   -1.3110   -4.7197   -6.9972 H   0  0  0  0  0  0  0  0  0  0  0  0
   -0.7512   -3.3678   -6.0039 H   0  0  0  0  0  0  0  0  0  0  0  0
   -1.0802   -2.1535   -2.5846 H   0  0  0  0  0  0  0  0  0  0  0  0
    0.2915   -1.9393   -1.4515 H   0  0  0  0  0  0  0  0  0  0  0  0
    1.0423   -1.4945   -3.7351 H   0  0  0  0  0  0  0  0  0  0  0  0
    1.0798    0.0037   -2.7989 H   0  0  0  0  0  0  0  0  0  0  0  0
   -0.2221   -0.2838   -3.9589 H   0  0  0  0  0  0  0  0  0  0  0  0
    0.6314   -3.4287    0.9034 H   0  0  0  0  0  0  0  0  0  0  0  0
   -0.7511   -2.5781    0.1439 H   0  0  0  0  0  0  0  0  0  0  0  0
   -1.6305   -2.0223    2.4101 H   0  0  0  0  0  0  0  0  0  0  0  0
   -0.3151   -2.9509    3.1375 H   0  0  0  0  0  0  0  0  0  0  0  0
   -1.5206   -3.7651    2.1382 H   0  0  0  0  0  0  0  0  0  0  0  0
    5.5017   -4.3845    6.0444 H   0  0  0  0  0  0  0  0  0  0  0  0
    6.6101   -3.1979    8.1773 H   0  0  0  0  0  0  0  0  0  0  0  0
    8.7094    2.9058    7.9385 H   0  0  0  0  0  0  0  0  0  0  0  0
  1  2  2  0  0  0  0
  2  3  1  0  0  0  0
  3  4  2  0  0  0  0
  3  5  1  0  0  0  0
  5  6  2  0  0  0  0
  6  7  1  0  0  0  0
  6  8  1  0  0  0  0
  8  9  2  0  0  0  0
  9 10  1  0  0  0  0
  9 11  1  0  0  0  0
 11 12  2  0  0  0  0
 12 13  1  0  0  0  0
 13 14  2  0  0  0  0
 14 15  1  0  0  0  0
 15 16  3  0  0  0  0
 14 17  1  0  0  0  0
 17 18  3  0  0  0  0
  1 19  1  0  0  0  0
 19 20  1  0  0  0  0
 20 21  1  0  0  0  0
 21 22  1  0  0  0  0
 22 23  1  0  0  0  0
 23 24  1  0  0  0  0
 24 25  1  0  0  0  0
 25 26  1  0  0  0  0
 26 27  1  0  0  0  0
 27 28  2  0  0  0  0
 28 29  1  0  0  0  0
 29 30  1  0  0  0  0
 27 31  1  0  0  0  0
 31 32  1  0  0  0  0
 32 33  1  0  0  0  0
 33 34  1  0  0  0  0
 34 35  1  0  0  0  0
 35 36  2  0  0  0  0
 36 37  1  0  0  0  0
 37 38  2  0  0  0  0
 38 39  1  0  0  0  0
 39 40  1  0  0  0  0
 40 41  1  0  0  0  0
 39 42  1  0  0  0  0
 42 43  2  0  0  0  0
 43 44  1  0  0  0  0
 44 45  1  0  0  0  0
 45 46  1  0  0  0  0
 46 47  1  0  0  0  0
 47 48  1  0  0  0  0
 48 49  1  0  0  0  0
 49 50  1  0  0  0  0
 50 51  1  0  0  0  0
 51 52  1  0  0  0  0
 52 53  1  0  0  0  0
 53 54  1  0  0  0  0
 54 55  1  0  0  0  0
 53 56  2  0  0  0  0
 56 57  1  0  0  0  0
 57 58  1  0  0  0  0
 58 59  1  0  0  0  0
 57 60  1  0  0  0  0
 49 61  1  0  0  0  0
 61 62  1  0  0  0  0
 46 63  1  0  0  0  0
 63 64  1  0  0  0  0
 36 65  1  0  0  0  0
 65 66  2  0  0  0  0
 66 67  1  0  0  0  0
 66 68  1  0  0  0  0
 68 69  2  0  0  0  0
 69 70  1  0  0  0  0
 70 71  2  0  0  0  0
 70 72  1  0  0  0  0
 72 73  1  0  0  0  0
 73 74  1  0  0  0  0
 74 75  1  0  0  0  0
 74 76  2  0  0  0  0
 76 77  1  0  0  0  0
 77 78  1  0  0  0  0
 78 79  2  0  0  0  0
 79 80  1  0  0  0  0
 80 81  3  0  0  0  0
 79 82  1  0  0  0  0
 82 83  3  0  0  0  0
 13  2  1  0  0  0  0
 55 19  2  0  0  0  0
 78 69  1  0  0  0  0
 12  5  1  0  0  0  0
 54 21  2  0  0  0  0
 77 72  2  0  0  0  0
 51 22  2  0  0  0  0
 60 52  2  0  0  0  0
 50 24  2  0  0  0  0
 48 25  2  0  0  0  0
 30 26  2  0  0  0  0
 47 31  2  0  0  0  0
 45 32  2  0  0  0  0
 44 34  2  0  0  0  0
 67 35  1  0  0  0  0
 43 37  1  0  0  0  0
  1 84  1  0  0  0  0
  8 85  1  0  0  0  0
 11 86  1  0  0  0  0
 40 87  1  0  0  0  0
 40 88  1  0  0  0  0
 41 89  1  0  0  0  0
 41 90  1  0  0  0  0
 41 91  1  0  0  0  0
 55 92  1  0  0  0  0
 58 93  1  0  0  0  0
 58 94  1  0  0  0  0
 59 95  1  0  0  0  0
 59 96  1  0  0  0  0
 59 97  1  0  0  0  0
 61 98  1  0  0  0  0
 61 99  1  0  0  0  0
 62100  1  0  0  0  0
 62101  1  0  0  0  0
 62102  1  0  0  0  0
 63103  1  0  0  0  0
 63104  1  0  0  0  0
 64105  1  0  0  0  0
 64106  1  0  0  0  0
 64107  1  0  0  0  0
 65108  1  0  0  0  0
 68109  1  0  0  0  0
 76110  1  0  0  0  0
M  END
