110

C         -7.32380        2.81120       -6.82370
C         -7.72530        4.11270       -6.85150
C         -9.11060        4.44830       -7.27480
O         -9.88690        3.72350       -7.85050
C         -9.33390        5.82530       -6.78020
C        -10.49030        6.59180       -6.76950
Cl       -11.95190        5.99900       -7.43670
C        -10.45040        7.86260       -6.20090
C         -9.26540        8.33280       -5.65840
Br        -9.24870       10.05580       -4.87200
C         -8.08960        7.58920       -5.66610
C         -8.13640        6.33130       -6.23620
C         -7.08270        5.33310       -6.42410
C         -5.74090        5.60030       -6.47920
C         -5.17360        6.85060       -6.16000
N         -4.67030        7.84900       -5.90240
C         -4.79750        4.67620       -6.97800
N         -4.01540        3.97340       -7.43750
C         -6.28320        2.21440       -6.07800
S         -5.56480        2.97660       -4.66610
C         -4.58240        1.58770       -4.36770
C         -3.66960        1.43000       -3.32220
S         -3.33460        2.63490       -2.09530
C         -2.20150        1.56290       -1.36710
C         -1.31150        1.53710       -0.27970
C         -0.87750        2.51510        0.64510
C          0.19700        2.19700        1.55030
N          0.54700        3.23210        2.29670
S         -0.39040        4.49200        1.90750
N         -1.28270        3.76870        0.76790
C          0.68280        0.86980        1.60320
C          1.58150        0.20280        2.45390
S          2.67340        0.56510        3.73540
C          3.05920       -1.13760        3.87370
C          3.97210       -1.67860        4.78350
C          4.24020       -3.05840        4.85360
C          3.55100       -3.88800        3.93640
N          3.59540       -5.20600        3.73560
N          2.76970       -5.41250        2.74500
C          2.49780       -6.73140        2.25130
C          1.30290       -7.33970        2.98000
N          2.16590       -4.35660        2.25900
C          2.63170       -3.34040        2.99330
C          2.36300       -1.95030        2.95500
C          1.52150       -1.16110        2.14700
N          0.63700       -1.36790        1.11590
C          0.14480       -0.12860        0.75230
C         -0.71970        0.24870       -0.29660
N         -1.17120       -0.45950       -1.39400
C         -2.08550        0.33940       -2.03800
C         -2.92200        0.24340       -3.16580
C         -3.14270       -0.78540       -4.11450
C         -4.07050       -0.61600       -5.18410
C         -4.81400        0.58130       -5.32640
C         -5.78480        0.94150       -6.26570
N         -4.06290       -1.73890       -5.90400
N         -3.19770       -2.50800       -5.29900
C         -2.85420       -3.80460       -5.80710
C         -1.56700       -3.73270       -6.62320
N         -2.61880       -2.00980       -4.23490
C         -0.39200       -1.43520       -2.13180
C          0.42860       -0.75530       -3.22770
C         -0.09230       -2.61640        1.00930
C         -0.94370       -2.85220        2.25700
C          5.17260       -3.38050        5.84750
C          5.66500       -2.27840        6.50900
S          4.90630       -0.79860        5.94020
C          6.58820       -2.28850        7.58430
C          7.38300       -1.28150        8.03100
C          7.92710       -1.33130        9.42290
O          7.93040       -2.28110       10.17010
C          8.38800        0.03590        9.65700
S          9.04110        0.90590       10.97780
C          9.14450        2.32150        9.97150
Br         9.81450        3.91850       10.68230
C          8.71070        2.13530        8.68730
C          8.26770        0.81390        8.51120
C          7.76930       -0.01760        7.43010
C          7.92350        0.26340        6.09950
C          8.39770        1.51500        5.65530
N          8.77170        2.53410        5.28480
C          7.74230       -0.68140        5.06830
N          7.67300       -1.43790        4.20810
H         -7.95290        2.12100       -7.37790
H        -11.34010        8.47170       -6.18230
H         -7.18820        7.98760       -5.22940
H          3.39350       -7.33210        2.41780
H          2.29310       -6.65040        1.18190
H          1.10600       -8.33700        2.59770
H          0.41840       -6.72490        2.83110
H          1.50900       -7.40760        4.04530
H         -6.09350        0.29980       -7.07070
H         -2.72830       -4.47840       -4.95650
H         -3.68730       -4.13680       -6.42830
H         -1.69460       -3.06050       -7.46800
H         -1.31100       -4.71970       -6.99720
H         -0.75120       -3.36780       -6.00390
H         -1.08020       -2.15350       -2.58460
H          0.29150       -1.93930       -1.45150
H          1.04230       -1.49450       -3.73510
H          1.07980        0.00370       -2.79890
H         -0.22210       -0.28380       -3.95890
H          0.63140       -3.42870        0.90340
H         -0.75110       -2.57810        0.14390
H         -1.63050       -2.02230        2.41010
H         -0.31510       -2.95090        3.13750
H         -1.52060       -3.76510        2.13820
H          5.50170       -4.38450        6.04440
H          6.61010       -3.19790        8.17730
H          8.70940        2.90580        7.93850
