
  xtb     02102217573D
 energy: -220.994618312206 gnorm: 0.000778588235 xtb: 6.4.1 (unknown)
113128  0     0  0            999 V2000
    4.9353    6.8809   -6.8565 C   0  0  0  0  0  0  0  0  0  0  0  0
    4.2946    7.7414   -7.7125 C   0  0  0  0  0  0  0  0  0  0  0  0
    2.8450    7.9719   -7.7663 C   0  0  0  0  0  0  0  0  0  0  0  0
    1.9917    7.4839   -7.0516 O   0  0  0  0  0  0  0  0  0  0  0  0
    2.6275    8.9251   -8.8718 C   0  0  0  0  0  0  0  0  0  0  0  0
    1.4443    9.4613   -9.3580 C   0  0  0  0  0  0  0  0  0  0  0  0
   -0.0657    9.0575   -8.6584 Cl  0  0  0  0  0  0  0  0  0  0  0  0
    1.4995   10.3395  -10.4375 C   0  0  0  0  0  0  0  0  0  0  0  0
    2.7269   10.6554  -10.9953 C   0  0  0  0  0  0  0  0  0  0  0  0
    2.7750   11.8477  -12.4672 Br  0  0  0  0  0  0  0  0  0  0  0  0
    3.9265   10.1336  -10.5207 C   0  0  0  0  0  0  0  0  0  0  0  0
    3.8666    9.2620   -9.4484 C   0  0  0  0  0  0  0  0  0  0  0  0
    4.9284    8.5507   -8.7304 C   0  0  0  0  0  0  0  0  0  0  0  0
    6.2682    8.6628   -8.9991 C   0  0  0  0  0  0  0  0  0  0  0  0
    6.8117    9.4775  -10.0154 C   0  0  0  0  0  0  0  0  0  0  0  0
    7.3226   10.1143  -10.8224 N   0  0  0  0  0  0  0  0  0  0  0  0
    7.3076    8.0011   -8.3114 C   0  0  0  0  0  0  0  0  0  0  0  0
    8.2176    7.5088   -7.8125 N   0  0  0  0  0  0  0  0  0  0  0  0
    4.4264    6.0243   -5.8689 C   0  0  0  0  0  0  0  0  0  0  0  0
    2.7456    5.8230   -5.3990 S   0  0  0  0  0  0  0  0  0  0  0  0
    3.1875    4.6116   -4.2494 C   0  0  0  0  0  0  0  0  0  0  0  0
    2.3141    3.8955   -3.4238 C   0  0  0  0  0  0  0  0  0  0  0  0
    0.5821    4.1488   -3.4012 S   0  0  0  0  0  0  0  0  0  0  0  0
    0.4368    2.8982   -2.2319 C   0  0  0  0  0  0  0  0  0  0  0  0
   -0.5708    2.2608   -1.5012 C   0  0  0  0  0  0  0  0  0  0  0  0
   -1.9529    2.5394   -1.4588 C   0  0  0  0  0  0  0  0  0  0  0  0
   -2.7740    1.7750   -0.5753 C   0  0  0  0  0  0  0  0  0  0  0  0
   -4.0437    2.1493   -0.6075 N   0  0  0  0  0  0  0  0  0  0  0  0
   -4.1882    3.3649   -1.6678 S   0  0  0  0  0  0  0  0  0  0  0  0
   -2.6369    3.4584   -2.1227 N   0  0  0  0  0  0  0  0  0  0  0  0
   -2.1738    0.7413    0.1735 C   0  0  0  0  0  0  0  0  0  0  0  0
   -2.7680   -0.1810    1.0401 C   0  0  0  0  0  0  0  0  0  0  0  0
   -4.3275   -0.5294    1.6729 S   0  0  0  0  0  0  0  0  0  0  0  0
   -3.6446   -1.8811    2.5495 C   0  0  0  0  0  0  0  0  0  0  0  0
   -4.3889   -2.7276    3.3775 C   0  0  0  0  0  0  0  0  0  0  0  0
   -3.8041   -3.8090    4.0648 C   0  0  0  0  0  0  0  0  0  0  0  0
   -2.4149   -4.0014    3.8788 C   0  0  0  0  0  0  0  0  0  0  0  0
   -1.5889   -4.9278    4.3663 N   0  0  0  0  0  0  0  0  0  0  0  0
   -0.4310   -4.6431    3.8343 N   0  0  0  0  0  0  0  0  0  0  0  0
    0.7530   -5.3909    4.1440 C   0  0  0  0  0  0  0  0  0  0  0  0
    1.5438   -4.7045    5.2539 C   0  0  0  0  0  0  0  0  0  0  0  0
   -0.3988   -3.6062    3.0357 N   0  0  0  0  0  0  0  0  0  0  0  0
   -1.6552   -3.1464    3.0261 C   0  0  0  0  0  0  0  0  0  0  0  0
   -2.2573   -2.0537    2.3481 C   0  0  0  0  0  0  0  0  0  0  0  0
   -1.7685   -1.0518    1.4770 C   0  0  0  0  0  0  0  0  0  0  0  0
   -0.5765   -0.6864    0.9086 N   0  0  0  0  0  0  0  0  0  0  0  0
   -0.7821    0.4293    0.1122 C   0  0  0  0  0  0  0  0  0  0  0  0
    0.0529    1.2468   -0.7132 C   0  0  0  0  0  0  0  0  0  0  0  0
    1.4165    1.3243   -0.9496 N   0  0  0  0  0  0  0  0  0  0  0  0
    1.6518    2.3099   -1.8724 C   0  0  0  0  0  0  0  0  0  0  0  0
    2.7564    2.8864   -2.5396 C   0  0  0  0  0  0  0  0  0  0  0  0
    4.1594    2.6605   -2.4963 C   0  0  0  0  0  0  0  0  0  0  0  0
    5.0549    3.3957   -3.3279 C   0  0  0  0  0  0  0  0  0  0  0  0
    4.5808    4.3802   -4.2309 C   0  0  0  0  0  0  0  0  0  0  0  0
    5.2609    5.1819   -5.1378 C   0  0  0  0  0  0  0  0  0  0  0  0
    6.2906    2.9684   -3.0718 N   0  0  0  0  0  0  0  0  0  0  0  0
    6.1356    2.0503   -2.1558 N   0  0  0  0  0  0  0  0  0  0  0  0
    7.2519    1.3653   -1.5714 C   0  0  0  0  0  0  0  0  0  0  0  0
    7.8112    2.1550   -0.3916 C   0  0  0  0  0  0  0  0  0  0  0  0
    4.9049    1.8217   -1.7684 N   0  0  0  0  0  0  0  0  0  0  0  0
    2.5234    0.5456   -0.4508 C   0  0  0  0  0  0  0  0  0  0  0  0
    2.8383   -0.6306   -1.3773 C   0  0  0  0  0  0  0  0  0  0  0  0
    0.6150   -1.4361    1.2236 C   0  0  0  0  0  0  0  0  0  0  0  0
    1.2769   -0.9206    2.5028 C   0  0  0  0  0  0  0  0  0  0  0  0
   -4.7277   -4.5509    4.8039 C   0  0  0  0  0  0  0  0  0  0  0  0
   -6.0158   -4.0628    4.7090 C   0  0  0  0  0  0  0  0  0  0  0  0
   -6.0809   -2.6278    3.6992 S   0  0  0  0  0  0  0  0  0  0  0  0
   -7.1968   -4.5084    5.3396 C   0  0  0  0  0  0  0  0  0  0  0  0
   -7.4646   -5.7165    5.9139 C   0  0  0  0  0  0  0  0  0  0  0  0
   -8.5829   -5.8168    6.8898 C   0  0  0  0  0  0  0  0  0  0  0  0
   -9.4428   -4.9924    7.0974 O   0  0  0  0  0  0  0  0  0  0  0  0
   -8.3789   -7.1081    7.5799 C   0  0  0  0  0  0  0  0  0  0  0  0
   -9.0642   -7.6423    8.6539 C   0  0  0  0  0  0  0  0  0  0  0  0
   -8.6598   -8.8712    9.1535 C   0  0  0  0  0  0  0  0  0  0  0  0
   -7.5846   -9.5305    8.5759 C   0  0  0  0  0  0  0  0  0  0  0  0
   -6.9727  -11.3869    9.3756 I   0  0  0  0  0  0  0  0  0  0  0  0
   -6.8916   -9.0128    7.4900 C   0  0  0  0  0  0  0  0  0  0  0  0
   -7.3012   -7.7897    6.9872 C   0  0  0  0  0  0  0  0  0  0  0  0
   -6.8132   -7.0048    5.8507 C   0  0  0  0  0  0  0  0  0  0  0  0
   -6.0903   -7.5124    4.8029 C   0  0  0  0  0  0  0  0  0  0  0  0
   -5.5544   -8.8161    4.7739 C   0  0  0  0  0  0  0  0  0  0  0  0
   -5.0798   -9.8591    4.7092 N   0  0  0  0  0  0  0  0  0  0  0  0
   -5.8695   -6.8235    3.5928 C   0  0  0  0  0  0  0  0  0  0  0  0
   -5.6990   -6.3271    2.5723 N   0  0  0  0  0  0  0  0  0  0  0  0
    6.0128    6.8174   -6.9494 H   0  0  0  0  0  0  0  0  0  0  0  0
    0.5914   10.7657  -10.8331 H   0  0  0  0  0  0  0  0  0  0  0  0
    4.8563   10.4107  -10.9889 H   0  0  0  0  0  0  0  0  0  0  0  0
    0.4335   -6.3862    4.4564 H   0  0  0  0  0  0  0  0  0  0  0  0
    1.3539   -5.4581    3.2345 H   0  0  0  0  0  0  0  0  0  0  0  0
    0.9421   -4.6359    6.1568 H   0  0  0  0  0  0  0  0  0  0  0  0
    1.8306   -3.7021    4.9448 H   0  0  0  0  0  0  0  0  0  0  0  0
    2.4412   -5.2747    5.4747 H   0  0  0  0  0  0  0  0  0  0  0  0
    6.3274    5.1532   -5.2725 H   0  0  0  0  0  0  0  0  0  0  0  0
    8.0115    1.2546   -2.3475 H   0  0  0  0  0  0  0  0  0  0  0  0
    6.9006    0.3840   -1.2464 H   0  0  0  0  0  0  0  0  0  0  0  0
    7.0498    2.2804    0.3746 H   0  0  0  0  0  0  0  0  0  0  0  0
    8.1420    3.1361   -0.7228 H   0  0  0  0  0  0  0  0  0  0  0  0
    8.6572    1.6265    0.0378 H   0  0  0  0  0  0  0  0  0  0  0  0
    2.3232    0.2295    0.5673 H   0  0  0  0  0  0  0  0  0  0  0  0
    3.3971    1.2001   -0.4333 H   0  0  0  0  0  0  0  0  0  0  0  0
    3.5685   -1.2870   -0.9121 H   0  0  0  0  0  0  0  0  0  0  0  0
    1.9451   -1.2038   -1.6190 H   0  0  0  0  0  0  0  0  0  0  0  0
    3.2580   -0.2563   -2.3069 H   0  0  0  0  0  0  0  0  0  0  0  0
    0.3098   -2.4696    1.3985 H   0  0  0  0  0  0  0  0  0  0  0  0
    1.2913   -1.4279    0.3760 H   0  0  0  0  0  0  0  0  0  0  0  0
    0.6503   -1.1637    3.3565 H   0  0  0  0  0  0  0  0  0  0  0  0
    2.2437   -1.3976    2.6392 H   0  0  0  0  0  0  0  0  0  0  0  0
    1.4111    0.1594    2.4801 H   0  0  0  0  0  0  0  0  0  0  0  0
   -4.4424   -5.3861    5.4176 H   0  0  0  0  0  0  0  0  0  0  0  0
   -7.9851   -3.7698    5.4494 H   0  0  0  0  0  0  0  0  0  0  0  0
   -9.8947   -7.1087    9.0893 H   0  0  0  0  0  0  0  0  0  0  0  0
   -9.1772   -9.3119    9.9915 H   0  0  0  0  0  0  0  0  0  0  0  0
   -6.0569   -9.5485    7.0675 H   0  0  0  0  0  0  0  0  0  0  0  0
  1  2  2  0  0  0  0
  2  3  1  0  0  0  0
  3  4  2  0  0  0  0
  3  5  1  0  0  0  0
  5  6  2  0  0  0  0
  6  7  1  0  0  0  0
  6  8  1  0  0  0  0
  8  9  2  0  0  0  0
  9 10  1  0  0  0  0
  9 11  1  0  0  0  0
 11 12  2  0  0  0  0
 12 13  1  0  0  0  0
 13 14  2  0  0  0  0
 14 15  1  0  0  0  0
 15 16  3  0  0  0  0
 14 17  1  0  0  0  0
 17 18  3  0  0  0  0
  1 19  1  0  0  0  0
 19 20  1  0  0  0  0
 20 21  1  0  0  0  0
 21 22  1  0  0  0  0
 22 23  1  0  0  0  0
 23 24  1  0  0  0  0
 24 25  1  0  0  0  0
 25 26  1  0  0  0  0
 26 27  1  0  0  0  0
 27 28  2  0  0  0  0
 28 29  1  0  0  0  0
 29 30  1  0  0  0  0
 27 31  1  0  0  0  0
 31 32  1  0  0  0  0
 32 33  1  0  0  0  0
 33 34  1  0  0  0  0
 34 35  1  0  0  0  0
 35 36  2  0  0  0  0
 36 37  1  0  0  0  0
 37 38  2  0  0  0  0
 38 39  1  0  0  0  0
 39 40  1  0  0  0  0
 40 41  1  0  0  0  0
 39 42  1  0  0  0  0
 42 43  2  0  0  0  0
 43 44  1  0  0  0  0
 44 45  1  0  0  0  0
 45 46  1  0  0  0  0
 46 47  1  0  0  0  0
 47 48  1  0  0  0  0
 48 49  1  0  0  0  0
 49 50  1  0  0  0  0
 50 51  1  0  0  0  0
 51 52  1  0  0  0  0
 52 53  1  0  0  0  0
 53 54  1  0  0  0  0
 54 55  1  0  0  0  0
 53 56  2  0  0  0  0
 56 57  1  0  0  0  0
 57 58  1  0  0  0  0
 58 59  1  0  0  0  0
 57 60  1  0  0  0  0
 49 61  1  0  0  0  0
 61 62  1  0  0  0  0
 46 63  1  0  0  0  0
 63 64  1  0  0  0  0
 36 65  1  0  0  0  0
 65 66  2  0  0  0  0
 66 67  1  0  0  0  0
 66 68  1  0  0  0  0
 68 69  2  0  0  0  0
 69 70  1  0  0  0  0
 70 71  2  0  0  0  0
 70 72  1  0  0  0  0
 72 73  2  0  0  0  0
 73 74  1  0  0  0  0
 74 75  2  0  0  0  0
 75 76  1  0  0  0  0
 75 77  1  0  0  0  0
 77 78  2  0  0  0  0
 78 79  1  0  0  0  0
 79 80  2  0  0  0  0
 80 81  1  0  0  0  0
 81 82  3  0  0  0  0
 80 83  1  0  0  0  0
 83 84  3  0  0  0  0
 13  2  1  0  0  0  0
 55 19  2  0  0  0  0
 79 69  1  0  0  0  0
 12  5  1  0  0  0  0
 54 21  2  0  0  0  0
 78 72  1  0  0  0  0
 51 22  2  0  0  0  0
 60 52  2  0  0  0  0
 50 24  2  0  0  0  0
 48 25  2  0  0  0  0
 30 26  2  0  0  0  0
 47 31  2  0  0  0  0
 45 32  2  0  0  0  0
 44 34  2  0  0  0  0
 67 35  1  0  0  0  0
 43 37  1  0  0  0  0
  1 85  1  0  0  0  0
  8 86  1  0  0  0  0
 11 87  1  0  0  0  0
 40 88  1  0  0  0  0
 40 89  1  0  0  0  0
 41 90  1  0  0  0  0
 41 91  1  0  0  0  0
 41 92  1  0  0  0  0
 55 93  1  0  0  0  0
 58 94  1  0  0  0  0
 58 95  1  0  0  0  0
 59 96  1  0  0  0  0
 59 97  1  0  0  0  0
 59 98  1  0  0  0  0
 61 99  1  0  0  0  0
 61100  1  0  0  0  0
 62101  1  0  0  0  0
 62102  1  0  0  0  0
 62103  1  0  0  0  0
 63104  1  0  0  0  0
 63105  1  0  0  0  0
 64106  1  0  0  0  0
 64107  1  0  0  0  0
 64108  1  0  0  0  0
 65109  1  0  0  0  0
 68110  1  0  0  0  0
 73111  1  0  0  0  0
 74112  1  0  0  0  0
 77113  1  0  0  0  0
M  END
