138

C         -2.08650       -3.62580       -7.82100
C         -1.29500       -3.73790       -8.94000
C          0.05300       -3.18650       -9.09090
O          0.69900       -2.55730       -8.27290
C          0.48880       -3.54390      -10.45740
C          1.68490       -3.25090      -11.07900
C          1.87440       -3.69360      -12.38300
Cl         3.34150       -3.36510      -13.21780
C          0.85750       -4.41220      -13.01510
F          1.04480       -4.83430      -14.27120
C         -0.34640       -4.71020      -12.39460
C         -0.53280       -4.26920      -11.09410
C         -1.65800       -4.41220      -10.17010
C         -2.82460       -5.07700      -10.44970
C         -3.09700       -5.70850      -11.68200
N         -3.38210       -6.24280      -12.65690
C         -3.91640       -5.23760       -9.57130
N         -4.84560       -5.41750       -8.92000
C         -1.84480       -3.00740       -6.59080
S         -0.37850       -2.16250       -6.10570
C         -1.08080       -1.83370       -4.58450
C         -0.73160       -1.16510       -3.38810
C         -1.78200       -1.24010       -2.48940
C         -2.93480       -2.03170       -3.06350
C         -2.38460       -2.34110       -4.44100
C         -2.80840       -3.00320       -5.56700
C         -4.17470       -1.15470       -3.09930
C         -4.31090       -0.18870       -4.08760
C         -5.41800        0.63830       -4.11330
C         -6.41350        0.52850       -3.15130
C         -7.59890        1.44930       -3.15850
C         -7.32220        2.68520       -2.29990
C         -6.26250       -0.42580       -2.15400
C         -5.15800       -1.25670       -2.12450
C         -3.17460       -3.35290       -2.35320
C         -4.24750       -4.14520       -2.74660
C         -4.47500       -5.36820       -2.14710
C         -3.63860       -5.83580       -1.14040
C         -3.85810       -7.18500       -0.52060
C         -3.10110       -8.25970       -1.30380
C         -2.56540       -5.04440       -0.75720
C         -2.33110       -3.81930       -1.35620
C         -1.51800       -0.57080       -1.27670
C         -2.33200       -0.39890       -0.15500
C         -1.81580        0.28230        0.92090
S         -2.68170        0.61160        2.41080
C         -1.26970        1.38520        3.04420
C         -0.90730        2.03660        4.24450
C          0.42450        2.47020        4.14150
C          1.01170        2.05730        2.80800
C          1.44000        3.23520        1.94940
C          2.50170        3.12770        1.06150
C          2.85290        4.19590        0.25740
C          2.15500        5.39480        0.31570
C          2.51820        6.53810       -0.58660
C          1.77850        6.42120       -1.92100
C          1.08490        5.49180        1.19550
C          0.72800        4.42620        2.00000
C          2.15770        1.09960        3.09100
C          2.05210       -0.26570        2.87350
C          3.10730       -1.10650        3.18160
C          4.28450       -0.60970        3.72210
C          5.44060       -1.52050        4.01740
C          6.34830       -1.64710        2.79200
C          4.38250        0.75930        3.94110
C          3.33440        1.60390        3.63390
C         -0.19030        1.39300        2.17680
C         -0.48060        0.78860        0.93580
C          0.32500        0.63740       -0.19480
C         -0.20000       -0.02090       -1.28110
S          0.64490       -0.30290       -2.79250
C          0.87070        3.12310        5.27130
C         -0.11110        3.20820        6.25920
S         -1.62160        2.44580        5.73550
C         -0.13000        3.78390        7.53650
C          0.85810        4.36600        8.29460
C          2.30700        4.43640        8.02300
O          2.91950        4.13930        7.01800
C          2.91920        4.95070        9.26960
C          4.25940        5.14330        9.54050
C          4.59860        5.62420       10.79450
F          5.88620        5.82340       11.10300
C          3.61070        5.90010       11.74000
F          3.96650        6.35680       12.94610
C          2.26440        5.71120       11.46470
C          1.91760        5.23090       10.21140
C          0.61800        4.93150        9.61070
C         -0.59230        5.21350       10.18920
C         -1.86150        5.03600        9.59690
N         -2.93290        4.95220        9.19130
C         -0.73850        5.77310       11.47690
N         -0.92250        6.22300       12.51660
H         -3.06710       -4.08290       -7.87580
H          2.45050       -2.69320      -10.56380
H         -1.08770       -5.26890      -12.94190
H         -3.76660       -3.47390       -5.69390
H         -3.54860       -0.08540       -4.84650
H         -5.51140        1.37770       -4.89570
H         -8.47410        0.92790       -2.76570
H         -7.81780        1.76280       -4.18100
H         -7.11520        2.39440       -1.27250
H         -8.18140        3.35160       -2.30610
H         -6.45950        3.22630       -2.68230
H         -7.02200       -0.52540       -1.39180
H         -5.07210       -2.00040       -1.34530
H         -4.91700       -3.79270       -3.51720
H         -5.31600       -5.96810       -2.46340
H         -3.50680       -7.17900        0.51310
H         -4.92320       -7.42420       -0.51910
H         -2.03600       -8.03910       -1.31620
H         -3.24860       -9.23630       -0.84890
H         -3.45390       -8.29810       -2.33190
H         -1.90100       -5.38800        0.02280
H         -1.48590       -3.22850       -1.03640
H         -3.33610       -0.78940       -0.14580
H          3.07020        2.21040        1.00740
H          3.68660        4.09650       -0.42300
H          3.59420        6.53610       -0.77110
H          2.25440        7.48420       -0.11030
H          0.70280        6.43600       -1.76000
H          2.03680        5.48820       -2.41690
H          2.04350        7.24790       -2.57570
H          0.52500        6.41400        1.25520
H         -0.10880        4.52460        2.67670
H          1.14640       -0.68480        2.46090
H          3.00800       -2.16770        3.00290
H          5.07130       -2.50980        4.29490
H          6.01900       -1.12390        4.85390
H          6.73420       -0.67160        2.50460
H          5.79390       -2.05730        1.95070
H          7.18820       -2.30320        3.00740
H          5.28840        1.16900        4.36340
H          3.43240        2.66450        3.80860
H          1.32670        1.03370       -0.20630
H          1.85230        3.53430        5.41180
H         -1.10550        3.73070        8.00600
H          5.01860        4.92700        8.80600
H          1.54240        5.93790       12.23150
