168

C          1.72700       10.02350        3.31600
C          2.15450       10.36390        4.58050
C          2.16230        9.48190        5.74810
O          1.79180        8.32470        5.81850
C          2.71730       10.28510        6.86030
C          2.93330        9.90330        8.16770
C          3.47350       10.83700        9.04450
Cl         3.76990       10.42790       10.68920
C          3.77640       12.11710        8.57840
F          4.29720       13.01230        9.42780
C          3.56060       12.50620        7.26480
C          3.02210       11.57420        6.39230
C          2.67890       11.65370        4.97160
C          2.84650       12.76750        4.18610
C          2.52960       12.87000        2.81650
N          2.30350       13.04320        1.70280
C          3.37170       13.99040        4.65250
N          3.79120       15.01300        4.96340
C          1.23910        8.81800        2.80880
S          1.01450        7.31450        3.71090
C          0.48370        6.53560        2.27380
C          0.06250        5.29940        1.80010
S         -0.21670        3.69740        2.39750
C         -0.61660        3.21320        0.78680
C         -0.96100        1.95780        0.20260
C         -1.12060        2.17440       -1.18270
C         -0.87360        3.63920       -1.53770
C         -2.13050        4.30360       -2.07190
C         -2.11250        5.23330       -3.09990
C         -3.27290        5.86490       -3.52050
C         -4.48630        5.57790       -2.90680
O         -5.67970        6.13450       -3.23010
C         -5.73500        7.08980       -4.27190
C         -7.18010        7.54220       -4.40710
C         -4.50750        4.64460       -1.86720
C         -3.34950        4.02360       -1.45830
C          0.30560        3.65410       -2.49160
C          1.60280        3.86180       -2.03510
C          2.67690        3.79090       -2.89700
C          2.49250        3.49630       -4.24880
O          3.62090        3.47410       -5.00390
C          3.56020        3.05530       -6.35340
C          3.41720        1.54290       -6.49480
C          1.19820        3.27200       -4.70750
C          0.12840        3.34650       -3.83400
C         -0.55100        4.21380       -0.17290
C         -0.17840        5.43320        0.40380
N          0.05790        6.72970        0.03040
C          0.47600        7.40700        1.14850
C          0.89380        8.68440        1.45530
C         -0.10090        7.32740       -1.27080
C          1.21330        7.37890       -2.04620
C         -1.36460        1.11850       -2.02840
C         -1.44980       -0.14840       -1.45760
C         -1.50710       -1.43750       -2.06950
C         -1.44820       -2.44170       -1.11630
C         -1.47670       -1.84160        0.27190
C         -1.35190       -0.35730       -0.06320
C         -1.09000        0.69650        0.77890
C         -0.28860       -2.30140        1.09690
C          0.99180       -1.98350        0.64700
C          2.10680       -2.38390        1.34670
C          1.97870       -3.12330        2.52630
O          3.13660       -3.47080        3.13760
C          3.08580       -4.24550        4.32000
C          4.51620       -4.50190        4.76610
C          0.70390       -3.44530        2.97710
C         -0.41190       -3.03650        2.26390
C         -2.81450       -2.08210        0.95590
C         -3.09120       -1.48080        2.17670
C         -4.29700       -1.67320        2.82600
C         -5.27520       -2.48330        2.25780
O         -6.50260       -2.74090        2.77980
C         -6.84620       -2.24380        4.05800
C         -6.21470       -3.04820        5.19070
C         -5.00450       -3.08590        1.02910
C         -3.79850       -2.88640        0.39130
C         -1.36170       -3.70090       -1.71770
C         -1.36550       -3.60750       -3.13660
S         -1.48240       -1.97770       -3.71470
C         -1.23300       -4.90060       -3.62780
S         -1.09650       -5.77870       -5.09460
C         -0.84640       -7.27920       -4.19180
C         -0.93270       -7.08440       -2.81730
C         -1.14930       -5.75390       -2.49540
N         -1.26320       -5.01460       -1.34690
C         -1.06100       -5.53610       -0.01890
C          0.42260       -5.74210        0.27590
C         -0.62580       -8.45490       -4.92380
C         -0.13290       -9.66940       -4.52160
C         -0.39680      -10.85510       -5.37600
O         -0.86100      -10.85410       -6.49500
C         -0.01890      -12.02400       -4.55650
C         -0.14160      -13.35230       -4.84190
C          0.27680      -14.30480       -3.88490
C          0.18200      -15.68930       -4.13190
C          0.58690      -16.60160       -3.19720
C          1.10130      -16.14010       -1.97850
F          1.49370      -17.05260       -1.06930
C          1.21550      -14.80920       -1.68800
C          0.80680      -13.85610       -2.64070
C          0.92850      -12.47160       -2.37590
C          0.53060      -11.56950       -3.32410
C          0.58890      -10.10800       -3.35550
C          1.40770       -9.35160       -2.55030
C          2.11560       -9.85700       -1.44320
N          2.68560      -10.19380       -0.50420
C          1.70560       -7.99470       -2.76940
N          2.01950       -6.89730       -2.90130
H          1.78120       10.80430        2.56710
H          2.68920        8.90590        8.49690
H          3.81790       13.51090        6.97220
H         -1.18690        5.47110       -3.60400
H         -3.21090        6.57830       -4.32720
H         -5.09020        7.94690       -4.03190
H         -5.38780        6.64110       -5.21320
H         -7.81460        6.69140       -4.63930
H         -7.26440        8.27870       -5.20090
H         -7.51950        7.98210       -3.47350
H         -5.45190        4.42600       -1.39500
H         -3.38800        3.30720       -0.65100
H          1.78230        4.07290       -0.99130
H          3.68190        3.95740       -2.54260
H          4.51470        3.37870       -6.77770
H          2.75420        3.57660       -6.88500
H          2.48720        1.19480       -6.05170
H          4.24260        1.04660       -5.99090
H          3.43090        1.27090       -7.54650
H          1.00290        3.03490       -5.74130
H         -0.86440        3.16370       -4.21750
H          0.97260        9.50540        0.76520
H         -0.48560        8.34170       -1.12580
H         -0.84630        6.74940       -1.81930
H          1.58430        6.37450       -2.23500
H          1.05790        7.87780       -2.99870
H          1.96390        7.92920       -1.48380
H         -1.45140        1.23930       -3.09610
H         -0.93450        0.57160        1.83880
H          1.10960       -1.41400       -0.26360
H          3.09830       -2.13950        1.00080
H          2.57340       -5.19770        4.12360
H          2.53520       -3.70370        5.10190
H          5.05590       -5.03550        3.98870
H          4.51910       -5.09570        5.67560
H          5.02090       -3.55820        4.95300
H          0.56050       -4.01440        3.88200
H         -1.38910       -3.30140        2.64070
H         -2.34930       -0.85620        2.64790
H         -4.45660       -1.17930        3.77140
H         -6.58980       -1.18060        4.14220
H         -7.93480       -2.33810        4.10010
H         -6.50930       -4.09150        5.10960
H         -6.55160       -2.65950        6.14760
H         -5.12950       -2.99380        5.14960
H         -5.76500       -3.71000        0.58730
H         -3.63290       -3.36770       -0.56020
H         -0.87640       -7.89030       -2.10800
H         -1.59660       -6.48770        0.05550
H         -1.49590       -4.83220        0.69280
H          0.94610       -4.79010        0.25720
H          0.87300       -6.39440       -0.46840
H          0.54720       -6.18910        1.25790
H         -0.94220       -8.42840       -5.96280
H         -0.54930      -13.67460       -5.78830
H         -0.21770      -16.02070       -5.07850
H          0.52190      -17.66400       -3.37130
H          1.62120      -14.48940       -0.74080
H          1.33050      -12.16180       -1.42430
