
  xtb     02012219133D
 energy: -174.197748929797 gnorm: 0.000953489418 xtb: 6.4.1 (unknown)
 88 99  0     0  0            999 V2000
   -0.7912   -5.6054    5.1069 C   0  0  0  0  0  0  0  0  0  0  0  0
    0.0746   -6.6184    4.7602 C   0  0  0  0  0  0  0  0  0  0  0  0
    0.9054   -6.6724    3.5583 C   0  0  0  0  0  0  0  0  0  0  0  0
    0.9958   -5.8428    2.6698 O   0  0  0  0  0  0  0  0  0  0  0  0
    1.6351   -7.9560    3.6238 C   0  0  0  0  0  0  0  0  0  0  0  0
    2.5415   -8.4736    2.7219 C   0  0  0  0  0  0  0  0  0  0  0  0
    3.1100   -9.7116    2.9978 C   0  0  0  0  0  0  0  0  0  0  0  0
    4.2482  -10.4156    1.9170 Cl  0  0  0  0  0  0  0  0  0  0  0  0
    2.7490  -10.3844    4.1667 C   0  0  0  0  0  0  0  0  0  0  0  0
    3.2998  -11.5761    4.4268 F   0  0  0  0  0  0  0  0  0  0  0  0
    1.8384   -9.8687    5.0768 C   0  0  0  0  0  0  0  0  0  0  0  0
    1.2730   -8.6343    4.8000 C   0  0  0  0  0  0  0  0  0  0  0  0
    0.3022   -7.8218    5.5334 C   0  0  0  0  0  0  0  0  0  0  0  0
   -0.2592   -8.1649    6.7375 C   0  0  0  0  0  0  0  0  0  0  0  0
    0.0267   -9.3610    7.4293 C   0  0  0  0  0  0  0  0  0  0  0  0
    0.2120  -10.3129    8.0435 N   0  0  0  0  0  0  0  0  0  0  0  0
   -1.1885   -7.3938    7.4657 C   0  0  0  0  0  0  0  0  0  0  0  0
   -1.9453   -6.8295    8.1212 N   0  0  0  0  0  0  0  0  0  0  0  0
   -1.0915   -4.3989    4.4742 C   0  0  0  0  0  0  0  0  0  0  0  0
   -2.0317   -3.4806    4.9814 C   0  0  0  0  0  0  0  0  0  0  0  0
   -2.8761   -3.6808    6.1967 C   0  0  0  0  0  0  0  0  0  0  0  0
   -4.1003   -4.5421    5.8734 C   0  0  0  0  0  0  0  0  0  0  0  0
   -2.1277   -2.3585    4.1730 C   0  0  0  0  0  0  0  0  0  0  0  0
   -1.2786   -2.3815    3.0500 C   0  0  0  0  0  0  0  0  0  0  0  0
   -0.3446   -3.8266    2.9809 S   0  0  0  0  0  0  0  0  0  0  0  0
   -1.4191   -1.2184    2.2900 C   0  0  0  0  0  0  0  0  0  0  0  0
   -2.3452   -0.3234    2.8462 C   0  0  0  0  0  0  0  0  0  0  0  0
   -3.0933   -0.8991    4.2940 S   0  0  0  0  0  0  0  0  0  0  0  0
   -2.3323    0.8293    2.0512 C   0  0  0  0  0  0  0  0  0  0  0  0
   -2.9270    2.0989    2.2326 C   0  0  0  0  0  0  0  0  0  0  0  0
   -3.7613    2.4898    3.1826 N   0  0  0  0  0  0  0  0  0  0  0  0
   -4.0517    4.0706    2.9940 S   0  0  0  0  0  0  0  0  0  0  0  0
   -3.1242    4.3187    1.6917 N   0  0  0  0  0  0  0  0  0  0  0  0
   -2.5562    3.1720    1.3545 C   0  0  0  0  0  0  0  0  0  0  0  0
   -1.7166    2.8952    0.2516 C   0  0  0  0  0  0  0  0  0  0  0  0
   -1.2723    3.6999   -0.8091 C   0  0  0  0  0  0  0  0  0  0  0  0
   -1.3519    5.3482   -1.3291 S   0  0  0  0  0  0  0  0  0  0  0  0
   -0.4434    4.9156   -2.7610 C   0  0  0  0  0  0  0  0  0  0  0  0
    0.0088    5.6464   -3.8518 C   0  0  0  0  0  0  0  0  0  0  0  0
    0.6991    4.8628   -4.7620 C   0  0  0  0  0  0  0  0  0  0  0  0
    0.7782    3.1744   -4.2349 S   0  0  0  0  0  0  0  0  0  0  0  0
   -0.1078    3.5486   -2.8114 C   0  0  0  0  0  0  0  0  0  0  0  0
   -0.5773    2.8623   -1.6909 C   0  0  0  0  0  0  0  0  0  0  0  0
   -0.5531    1.5786   -1.2080 N   0  0  0  0  0  0  0  0  0  0  0  0
   -0.3935    0.4927   -2.1524 C   0  0  0  0  0  0  0  0  0  0  0  0
   -1.5874    0.4136   -3.1035 C   0  0  0  0  0  0  0  0  0  0  0  0
   -1.2275    1.5812    0.0011 C   0  0  0  0  0  0  0  0  0  0  0  0
   -1.4196    0.5793    0.9846 C   0  0  0  0  0  0  0  0  0  0  0  0
   -0.8600   -0.6684    1.1663 N   0  0  0  0  0  0  0  0  0  0  0  0
    0.3503   -1.2290    0.6047 C   0  0  0  0  0  0  0  0  0  0  0  0
    0.0800   -2.4813   -0.2303 C   0  0  0  0  0  0  0  0  0  0  0  0
    1.3364    5.1354   -5.9878 C   0  0  0  0  0  0  0  0  0  0  0  0
    1.5009    6.2899   -6.7006 C   0  0  0  0  0  0  0  0  0  0  0  0
    1.0371    7.6663   -6.3660 C   0  0  0  0  0  0  0  0  0  0  0  0
    0.3943    8.0410   -5.4075 O   0  0  0  0  0  0  0  0  0  0  0  0
    1.5329    8.4866   -7.4656 C   0  0  0  0  0  0  0  0  0  0  0  0
    1.4758   10.1420   -7.8831 S   0  0  0  0  0  0  0  0  0  0  0  0
    2.3812    9.8126   -9.3135 C   0  0  0  0  0  0  0  0  0  0  0  0
    2.7123    8.4993   -9.4704 C   0  0  0  0  0  0  0  0  0  0  0  0
    2.2220    7.7263   -8.3996 C   0  0  0  0  0  0  0  0  0  0  0  0
    2.2199    6.3427   -7.9691 C   0  0  0  0  0  0  0  0  0  0  0  0
    2.7985    5.3207   -8.6758 C   0  0  0  0  0  0  0  0  0  0  0  0
    2.8269    3.9556   -8.3277 C   0  0  0  0  0  0  0  0  0  0  0  0
    2.8910    2.8260   -8.1279 N   0  0  0  0  0  0  0  0  0  0  0  0
    3.4611    5.5547   -9.9003 C   0  0  0  0  0  0  0  0  0  0  0  0
    4.0037    5.7153  -10.8984 N   0  0  0  0  0  0  0  0  0  0  0  0
   -1.3422   -5.7538    6.0253 H   0  0  0  0  0  0  0  0  0  0  0  0
    2.8006   -7.9300    1.8276 H   0  0  0  0  0  0  0  0  0  0  0  0
    1.6051  -10.4416    5.9592 H   0  0  0  0  0  0  0  0  0  0  0  0
   -3.2116   -2.7015    6.5436 H   0  0  0  0  0  0  0  0  0  0  0  0
   -2.3050   -4.1506    6.9988 H   0  0  0  0  0  0  0  0  0  0  0  0
   -4.7071   -4.6665    6.7655 H   0  0  0  0  0  0  0  0  0  0  0  0
   -3.7985   -5.5260    5.5222 H   0  0  0  0  0  0  0  0  0  0  0  0
   -4.7037   -4.0680    5.1028 H   0  0  0  0  0  0  0  0  0  0  0  0
   -0.1475    6.6997   -3.9936 H   0  0  0  0  0  0  0  0  0  0  0  0
   -0.3043   -0.4486   -1.6250 H   0  0  0  0  0  0  0  0  0  0  0  0
    0.5232    0.6758   -2.7208 H   0  0  0  0  0  0  0  0  0  0  0  0
   -1.4550   -0.4214   -3.7857 H   0  0  0  0  0  0  0  0  0  0  0  0
   -1.6805    1.3246   -3.6884 H   0  0  0  0  0  0  0  0  0  0  0  0
   -2.5077    0.2656   -2.5418 H   0  0  0  0  0  0  0  0  0  0  0  0
    1.0050   -1.5057    1.4386 H   0  0  0  0  0  0  0  0  0  0  0  0
    0.8600   -0.4545    0.0298 H   0  0  0  0  0  0  0  0  0  0  0  0
   -0.7425   -2.3316   -0.9266 H   0  0  0  0  0  0  0  0  0  0  0  0
    0.9724   -2.7475   -0.7897 H   0  0  0  0  0  0  0  0  0  0  0  0
   -0.1759   -3.3160    0.4159 H   0  0  0  0  0  0  0  0  0  0  0  0
    1.7777    4.2494   -6.4303 H   0  0  0  0  0  0  0  0  0  0  0  0
    2.6219   10.6244   -9.9718 H   0  0  0  0  0  0  0  0  0  0  0  0
    3.2737    8.1213  -10.3043 H   0  0  0  0  0  0  0  0  0  0  0  0
  1  2  2  0  0  0  0
  2  3  1  0  0  0  0
  3  4  2  0  0  0  0
  3  5  1  0  0  0  0
  5  6  2  0  0  0  0
  6  7  1  0  0  0  0
  7  8  1  0  0  0  0
  7  9  2  0  0  0  0
  9 10  1  0  0  0  0
  9 11  1  0  0  0  0
 11 12  2  0  0  0  0
 12 13  1  0  0  0  0
 13 14  2  0  0  0  0
 14 15  1  0  0  0  0
 15 16  3  0  0  0  0
 14 17  1  0  0  0  0
 17 18  3  0  0  0  0
  1 19  1  0  0  0  0
 19 20  2  0  0  0  0
 20 21  1  0  0  0  0
 21 22  1  0  0  0  0
 20 23  1  0  0  0  0
 23 24  2  0  0  0  0
 24 25  1  0  0  0  0
 24 26  1  0  0  0  0
 26 27  2  0  0  0  0
 27 28  1  0  0  0  0
 27 29  1  0  0  0  0
 29 30  1  0  0  0  0
 30 31  2  0  0  0  0
 31 32  1  0  0  0  0
 32 33  1  0  0  0  0
 33 34  2  0  0  0  0
 34 35  1  0  0  0  0
 35 36  1  0  0  0  0
 36 37  1  0  0  0  0
 37 38  1  0  0  0  0
 38 39  1  0  0  0  0
 39 40  2  0  0  0  0
 40 41  1  0  0  0  0
 41 42  1  0  0  0  0
 42 43  1  0  0  0  0
 43 44  1  0  0  0  0
 44 45  1  0  0  0  0
 45 46  1  0  0  0  0
 44 47  1  0  0  0  0
 47 48  1  0  0  0  0
 48 49  1  0  0  0  0
 49 50  1  0  0  0  0
 50 51  1  0  0  0  0
 40 52  1  0  0  0  0
 52 53  2  0  0  0  0
 53 54  1  0  0  0  0
 54 55  2  0  0  0  0
 54 56  1  0  0  0  0
 56 57  1  0  0  0  0
 57 58  1  0  0  0  0
 58 59  2  0  0  0  0
 59 60  1  0  0  0  0
 60 61  1  0  0  0  0
 61 62  2  0  0  0  0
 62 63  1  0  0  0  0
 63 64  3  0  0  0  0
 62 65  1  0  0  0  0
 65 66  3  0  0  0  0
 13  2  1  0  0  0  0
 25 19  1  0  0  0  0
 49 26  1  0  0  0  0
 61 53  1  0  0  0  0
 12  5  1  0  0  0  0
 28 23  1  0  0  0  0
 48 29  2  0  0  0  0
 60 56  2  0  0  0  0
 34 30  1  0  0  0  0
 47 35  2  0  0  0  0
 43 36  2  0  0  0  0
 42 38  2  0  0  0  0
  1 67  1  0  0  0  0
  6 68  1  0  0  0  0
 11 69  1  0  0  0  0
 21 70  1  0  0  0  0
 21 71  1  0  0  0  0
 22 72  1  0  0  0  0
 22 73  1  0  0  0  0
 22 74  1  0  0  0  0
 39 75  1  0  0  0  0
 45 76  1  0  0  0  0
 45 77  1  0  0  0  0
 46 78  1  0  0  0  0
 46 79  1  0  0  0  0
 46 80  1  0  0  0  0
 50 81  1  0  0  0  0
 50 82  1  0  0  0  0
 51 83  1  0  0  0  0
 51 84  1  0  0  0  0
 51 85  1  0  0  0  0
 52 86  1  0  0  0  0
 58 87  1  0  0  0  0
 59 88  1  0  0  0  0
M  END
