103

C         -2.37750        3.51580       -2.64910
C         -1.84200        4.18830       -1.56590
C         -1.83870        3.73430       -0.17810
O         -2.51050        2.85620        0.33490
C         -0.84200        4.57480        0.52230
C         -0.38000        4.45410        1.81600
C          0.62230        5.32000        2.24020
Cl         1.27070        5.19410        3.83370
C          1.11140        6.28070        1.35490
F          2.09360        7.09650        1.76560
C          0.63510        6.42050        0.05900
C         -0.35540        5.54880       -0.36460
C         -1.02790        5.38060       -1.65520
C         -0.90110        6.23210       -2.72470
C         -0.09660        7.38970       -2.71220
N          0.54150        8.34300       -2.75880
C         -1.56980        6.09400       -3.95780
N         -2.08000        6.04620       -4.98640
C         -2.95610        2.25050       -2.72070
C         -3.10840        1.53390       -3.93470
C         -2.90450        2.18350       -5.26920
C         -3.36850        1.33820       -6.44690
C         -3.39890        0.19660       -3.70200
Se        -3.36550       -1.40660       -4.75070
C         -3.44050       -2.31510       -3.12380
C         -3.17070       -3.58530       -2.58890
C         -2.78950       -4.80930       -3.18680
C         -2.22430       -5.84470       -2.36410
N         -1.86640       -6.90750       -3.06240
S         -2.21650       -6.64010       -4.62300
N         -2.82530       -5.14580       -4.46440
C         -1.96160       -5.56720       -1.00130
C         -0.98170       -6.09650       -0.14890
Se         0.45820       -7.27520       -0.27340
C          1.23850       -6.23950        1.11350
C          2.58880       -5.94620        1.38430
C          3.72520       -6.72800        0.81580
C          3.62030       -8.20770        1.17810
C          2.72080       -4.72440        2.02830
S          1.16330       -4.09550        2.56420
C          0.34340       -5.28460        1.61090
C         -0.87660       -5.20870        0.93440
N         -1.80530       -4.21050        0.81340
C         -2.44860       -4.37730       -0.39280
C         -3.16070       -3.43510       -1.17220
N         -3.54880       -2.14930       -0.85520
C         -3.62250       -1.45310       -2.03430
C         -3.57070       -0.09390       -2.33180
S         -3.34160        1.26420       -1.31440
C         -4.30720       -1.69300        0.29260
C         -5.76330       -1.42360       -0.08810
C         -1.86310       -3.11620        1.74900
C         -2.73560       -3.45640        2.95620
C          3.81160       -3.81670        2.06640
C          3.66550       -2.47670        1.82460
C          4.66410       -1.47880        2.29540
O          5.77330       -1.70380        2.71710
C          3.98630       -0.16280        2.16710
C          4.44580        1.08880        2.52660
C          3.62200        2.18040        2.25660
O          4.00700        3.48280        2.48760
C          4.61810        3.84350        3.64460
O          4.79610        3.09640        4.56300
C          5.00210        5.29190        3.58650
C          2.37360        2.00790        1.66160
C          1.91730        0.75120        1.30770
C          2.73270       -0.34280        1.55560
C          2.57800       -1.74760        1.20190
C          1.71470       -2.19670        0.22930
C          0.62280       -1.47280       -0.28520
N         -0.34150       -1.00370       -0.70080
C          1.81310       -3.44300       -0.41870
N          1.86990       -4.40440       -1.04490
H         -2.21770        3.98190       -3.61210
H         -0.77780        3.69810        2.47450
H          1.05790        7.18560       -0.57130
H         -3.44520        3.13400       -5.27940
H         -1.84220        2.41690       -5.39350
H         -3.30520        1.92180       -7.36170
H         -2.74240        0.45350       -6.56700
H         -4.40060        1.01940       -6.31070
H          3.69360       -6.62110       -0.27310
H          4.67150       -6.31870        1.17140
H          2.69760       -8.63310        0.78170
H          3.62780       -8.33880        2.25790
H          4.45930       -8.75400        0.75570
H         -3.85840       -0.77170        0.67850
H         -4.29010       -2.46650        1.05690
H         -6.21150       -2.31100       -0.53060
H         -6.32490       -1.15600        0.80270
H         -5.83440       -0.60450       -0.79810
H         -2.19610       -2.21950        1.23280
H         -0.84680       -2.92090        2.10140
H         -2.28620       -4.27060        3.51980
H         -3.73250       -3.76910        2.65220
H         -2.82110       -2.59060        3.60630
H          4.80300       -4.17110        2.32430
H          5.41310        1.20820        2.98790
H          5.32250        5.62380        4.56900
H          5.81820        5.41270        2.87670
H          4.16460        5.88990        3.23680
H          1.76830        2.88090        1.47280
H          0.94380        0.64190        0.85700
