
  xtb     02012218253D
 energy: -186.675231126906 gnorm: 0.000577574164 xtb: 6.4.1 (unknown)
 97108  0     0  0            999 V2000
   -3.9093   -1.6542   -5.8292 C   0  0  0  0  0  0  0  0  0  0  0  0
   -3.9816   -2.3209   -7.0166 C   0  0  0  0  0  0  0  0  0  0  0  0
   -4.8400   -1.8036   -8.1109 C   0  0  0  0  0  0  0  0  0  0  0  0
   -5.3928   -0.7297   -8.1594 O   0  0  0  0  0  0  0  0  0  0  0  0
   -4.9114   -2.9083   -9.0972 C   0  0  0  0  0  0  0  0  0  0  0  0
   -5.6691   -2.9886  -10.2476 C   0  0  0  0  0  0  0  0  0  0  0  0
   -5.5916   -4.1492  -11.0094 C   0  0  0  0  0  0  0  0  0  0  0  0
   -6.5119   -4.3144  -12.4526 Cl  0  0  0  0  0  0  0  0  0  0  0  0
   -4.7576   -5.1898  -10.5928 C   0  0  0  0  0  0  0  0  0  0  0  0
   -4.7006   -6.3091  -11.3234 F   0  0  0  0  0  0  0  0  0  0  0  0
   -3.9842   -5.1128   -9.4448 C   0  0  0  0  0  0  0  0  0  0  0  0
   -4.0637   -3.9544   -8.6898 C   0  0  0  0  0  0  0  0  0  0  0  0
   -3.3720   -3.5517   -7.4676 C   0  0  0  0  0  0  0  0  0  0  0  0
   -2.2010   -4.0937   -7.0055 C   0  0  0  0  0  0  0  0  0  0  0  0
   -1.4180   -3.5221   -5.9821 C   0  0  0  0  0  0  0  0  0  0  0  0
   -0.7134   -3.0835   -5.1890 N   0  0  0  0  0  0  0  0  0  0  0  0
   -1.5974   -5.2419   -7.5586 C   0  0  0  0  0  0  0  0  0  0  0  0
   -1.0802   -6.1865   -7.9550 N   0  0  0  0  0  0  0  0  0  0  0  0
   -3.4826   -2.1250   -4.5653 C   0  0  0  0  0  0  0  0  0  0  0  0
   -3.6367   -3.3606   -3.9465 C   0  0  0  0  0  0  0  0  0  0  0  0
   -4.4410   -4.5016   -4.4909 C   0  0  0  0  0  0  0  0  0  0  0  0
   -3.6725   -5.8221   -4.5215 C   0  0  0  0  0  0  0  0  0  0  0  0
   -3.0879   -3.3590   -2.6570 C   0  0  0  0  0  0  0  0  0  0  0  0
   -2.9530   -4.6783   -1.3015 Se  0  0  0  0  0  2  0  0  0  0  0  0
   -2.0296   -3.3782   -0.3522 C   0  0  0  0  0  0  0  0  0  0  0  0
   -1.3820   -3.2310    0.8763 C   0  0  0  0  0  0  0  0  0  0  0  0
   -1.2791   -4.1553    1.9359 C   0  0  0  0  0  0  0  0  0  0  0  0
   -0.5943   -3.7580    3.1218 C   0  0  0  0  0  0  0  0  0  0  0  0
   -0.5815   -4.7044    4.0472 N   0  0  0  0  0  0  0  0  0  0  0  0
   -1.3724   -5.9941    3.4626 S   0  0  0  0  0  0  0  0  0  0  0  0
   -1.7587   -5.3869    2.0085 N   0  0  0  0  0  0  0  0  0  0  0  0
   -0.0137   -2.4736    3.1655 C   0  0  0  0  0  0  0  0  0  0  0  0
    0.7494   -1.8930    4.1800 C   0  0  0  0  0  0  0  0  0  0  0  0
    1.3813   -2.3227    5.8751 Se  0  0  0  0  0  2  0  0  0  0  0  0
    2.1996   -0.6090    5.8019 C   0  0  0  0  0  0  0  0  0  0  0  0
    3.0028    0.0833    6.6954 C   0  0  0  0  0  0  0  0  0  0  0  0
    3.3587   -0.4615    8.0397 C   0  0  0  0  0  0  0  0  0  0  0  0
    2.3964    0.0604    9.1094 C   0  0  0  0  0  0  0  0  0  0  0  0
    3.3705    1.3466    6.1954 C   0  0  0  0  0  0  0  0  0  0  0  0
    2.6948    1.6393    4.5930 S   0  0  0  0  0  0  0  0  0  0  0  0
    1.9441    0.0880    4.6059 C   0  0  0  0  0  0  0  0  0  0  0  0
    1.1412   -0.6321    3.7143 C   0  0  0  0  0  0  0  0  0  0  0  0
    0.6487   -0.4318    2.4528 N   0  0  0  0  0  0  0  0  0  0  0  0
   -0.0892   -1.5408    2.0855 C   0  0  0  0  0  0  0  0  0  0  0  0
   -0.8308   -1.9151    0.9253 C   0  0  0  0  0  0  0  0  0  0  0  0
   -1.1891   -1.2796   -0.2503 N   0  0  0  0  0  0  0  0  0  0  0  0
   -1.8925   -2.1612   -1.0252 C   0  0  0  0  0  0  0  0  0  0  0  0
   -2.4965   -2.1410   -2.2882 C   0  0  0  0  0  0  0  0  0  0  0  0
   -2.6987   -0.9523   -3.5159 S   0  0  0  0  0  0  0  0  0  0  0  0
   -0.9245    0.0371   -0.7803 C   0  0  0  0  0  0  0  0  0  0  0  0
    0.3032    0.0349   -1.6912 C   0  0  0  0  0  0  0  0  0  0  0  0
    0.9675    0.8048    1.7786 C   0  0  0  0  0  0  0  0  0  0  0  0
   -0.0109    1.9176    2.1534 C   0  0  0  0  0  0  0  0  0  0  0  0
    4.1860    2.2347    6.8977 C   0  0  0  0  0  0  0  0  0  0  0  0
    4.6340    3.4964    6.5783 C   0  0  0  0  0  0  0  0  0  0  0  0
    4.3121    4.2456    5.3650 C   0  0  0  0  0  0  0  0  0  0  0  0
    3.6193    3.8919    4.4259 O   0  0  0  0  0  0  0  0  0  0  0  0
    5.0011    5.5462    5.4933 C   0  0  0  0  0  0  0  0  0  0  0  0
    5.0037    6.6063    4.6107 C   0  0  0  0  0  0  0  0  0  0  0  0
    5.7405    7.7223    4.9787 C   0  0  0  0  0  0  0  0  0  0  0  0
    5.7733    8.7811    4.1518 F   0  0  0  0  0  0  0  0  0  0  0  0
    6.4456    7.7866    6.1706 C   0  0  0  0  0  0  0  0  0  0  0  0
    6.4339    6.7118    7.0477 C   0  0  0  0  0  0  0  0  0  0  0  0
    5.7065    5.5804    6.7087 C   0  0  0  0  0  0  0  0  0  0  0  0
    5.5011    4.3097    7.4059 C   0  0  0  0  0  0  0  0  0  0  0  0
    6.0555    3.9775    8.6163 C   0  0  0  0  0  0  0  0  0  0  0  0
    5.8794    2.7561    9.2988 C   0  0  0  0  0  0  0  0  0  0  0  0
    5.7866    1.7930    9.9191 N   0  0  0  0  0  0  0  0  0  0  0  0
    6.9015    4.8271    9.3596 C   0  0  0  0  0  0  0  0  0  0  0  0
    7.5948    5.4641   10.0166 N   0  0  0  0  0  0  0  0  0  0  0  0
   -4.2578   -0.6255   -5.8589 H   0  0  0  0  0  0  0  0  0  0  0  0
   -6.3046   -2.1703  -10.5462 H   0  0  0  0  0  0  0  0  0  0  0  0
   -3.3611   -5.9499   -9.1738 H   0  0  0  0  0  0  0  0  0  0  0  0
   -5.3133   -4.6277   -3.8406 H   0  0  0  0  0  0  0  0  0  0  0  0
   -4.8056   -4.2552   -5.4889 H   0  0  0  0  0  0  0  0  0  0  0  0
   -4.2684   -6.5840   -5.0177 H   0  0  0  0  0  0  0  0  0  0  0  0
   -3.4559   -6.1628   -3.5092 H   0  0  0  0  0  0  0  0  0  0  0  0
   -2.7280   -5.7228   -5.0499 H   0  0  0  0  0  0  0  0  0  0  0  0
    4.3829   -0.2050    8.3143 H   0  0  0  0  0  0  0  0  0  0  0  0
    3.2794   -1.5522    7.9917 H   0  0  0  0  0  0  0  0  0  0  0  0
    2.6572   -0.3596   10.0764 H   0  0  0  0  0  0  0  0  0  0  0  0
    1.3746   -0.2246    8.8668 H   0  0  0  0  0  0  0  0  0  0  0  0
    2.4485    1.1444    9.1791 H   0  0  0  0  0  0  0  0  0  0  0  0
   -0.8332    0.7540    0.0305 H   0  0  0  0  0  0  0  0  0  0  0  0
   -1.7999    0.3247   -1.3715 H   0  0  0  0  0  0  0  0  0  0  0  0
    1.1789   -0.3550   -1.1757 H   0  0  0  0  0  0  0  0  0  0  0  0
    0.1212   -0.5921   -2.5603 H   0  0  0  0  0  0  0  0  0  0  0  0
    0.5136    1.0445   -2.0326 H   0  0  0  0  0  0  0  0  0  0  0  0
    1.0124    0.6410    0.7057 H   0  0  0  0  0  0  0  0  0  0  0  0
    1.9689    1.0996    2.1062 H   0  0  0  0  0  0  0  0  0  0  0  0
    0.2009    2.8084    1.5691 H   0  0  0  0  0  0  0  0  0  0  0  0
    0.0993    2.1664    3.2056 H   0  0  0  0  0  0  0  0  0  0  0  0
   -1.0429    1.6157    1.9833 H   0  0  0  0  0  0  0  0  0  0  0  0
    4.5103    1.8493    7.8544 H   0  0  0  0  0  0  0  0  0  0  0  0
    4.4597    6.5696    3.6805 H   0  0  0  0  0  0  0  0  0  0  0  0
    7.0012    8.6809    6.4050 H   0  0  0  0  0  0  0  0  0  0  0  0
    6.9860    6.7753    7.9705 H   0  0  0  0  0  0  0  0  0  0  0  0
  1  2  2  0  0  0  0
  2  3  1  0  0  0  0
  3  4  2  0  0  0  0
  3  5  1  0  0  0  0
  5  6  2  0  0  0  0
  6  7  1  0  0  0  0
  7  8  1  0  0  0  0
  7  9  2  0  0  0  0
  9 10  1  0  0  0  0
  9 11  1  0  0  0  0
 11 12  2  0  0  0  0
 12 13  1  0  0  0  0
 13 14  2  0  0  0  0
 14 15  1  0  0  0  0
 15 16  3  0  0  0  0
 14 17  1  0  0  0  0
 17 18  3  0  0  0  0
  1 19  1  0  0  0  0
 19 20  2  0  0  0  0
 20 21  1  0  0  0  0
 21 22  1  0  0  0  0
 20 23  1  0  0  0  0
 23 24  1  0  0  0  0
 24 25  1  0  0  0  0
 25 26  1  0  0  0  0
 26 27  1  0  0  0  0
 27 28  1  0  0  0  0
 28 29  2  0  0  0  0
 29 30  1  0  0  0  0
 30 31  1  0  0  0  0
 28 32  1  0  0  0  0
 32 33  1  0  0  0  0
 33 34  1  0  0  0  0
 34 35  1  0  0  0  0
 35 36  1  0  0  0  0
 36 37  1  0  0  0  0
 37 38  1  0  0  0  0
 36 39  2  0  0  0  0
 39 40  1  0  0  0  0
 40 41  1  0  0  0  0
 41 42  1  0  0  0  0
 42 43  1  0  0  0  0
 43 44  1  0  0  0  0
 44 45  1  0  0  0  0
 45 46  1  0  0  0  0
 46 47  1  0  0  0  0
 47 48  1  0  0  0  0
 48 49  1  0  0  0  0
 46 50  1  0  0  0  0
 50 51  1  0  0  0  0
 43 52  1  0  0  0  0
 52 53  1  0  0  0  0
 39 54  1  0  0  0  0
 54 55  2  0  0  0  0
 55 56  1  0  0  0  0
 56 57  2  0  0  0  0
 56 58  1  0  0  0  0
 58 59  2  0  0  0  0
 59 60  1  0  0  0  0
 60 61  1  0  0  0  0
 60 62  2  0  0  0  0
 62 63  1  0  0  0  0
 63 64  2  0  0  0  0
 64 65  1  0  0  0  0
 65 66  2  0  0  0  0
 66 67  1  0  0  0  0
 67 68  3  0  0  0  0
 66 69  1  0  0  0  0
 69 70  3  0  0  0  0
 13  2  1  0  0  0  0
 49 19  1  0  0  0  0
 65 55  1  0  0  0  0
 12  5  1  0  0  0  0
 48 23  2  0  0  0  0
 64 58  1  0  0  0  0
 47 25  2  0  0  0  0
 45 26  2  0  0  0  0
 31 27  2  0  0  0  0
 44 32  2  0  0  0  0
 42 33  2  0  0  0  0
 41 35  2  0  0  0  0
  1 71  1  0  0  0  0
  6 72  1  0  0  0  0
 11 73  1  0  0  0  0
 21 74  1  0  0  0  0
 21 75  1  0  0  0  0
 22 76  1  0  0  0  0
 22 77  1  0  0  0  0
 22 78  1  0  0  0  0
 37 79  1  0  0  0  0
 37 80  1  0  0  0  0
 38 81  1  0  0  0  0
 38 82  1  0  0  0  0
 38 83  1  0  0  0  0
 50 84  1  0  0  0  0
 50 85  1  0  0  0  0
 51 86  1  0  0  0  0
 51 87  1  0  0  0  0
 51 88  1  0  0  0  0
 52 89  1  0  0  0  0
 52 90  1  0  0  0  0
 53 91  1  0  0  0  0
 53 92  1  0  0  0  0
 53 93  1  0  0  0  0
 54 94  1  0  0  0  0
 59 95  1  0  0  0  0
 62 96  1  0  0  0  0
 63 97  1  0  0  0  0
M  END
