
  xtb     02012218013D
 energy: -184.706786633921 gnorm: 0.000652262074 xtb: 6.4.1 (unknown)
 91102  0     0  0            999 V2000
   -4.1626    4.9771    0.1347 C   0  0  0  0  0  0  0  0  0  0  0  0
   -5.3497    4.3013   -0.0286 C   0  0  0  0  0  0  0  0  0  0  0  0
   -5.5209    2.8490   -0.0569 C   0  0  0  0  0  0  0  0  0  0  0  0
   -4.6613    1.9910    0.0417 O   0  0  0  0  0  0  0  0  0  0  0  0
   -6.9689    2.6126   -0.2349 C   0  0  0  0  0  0  0  0  0  0  0  0
   -7.6370    1.4085   -0.3173 C   0  0  0  0  0  0  0  0  0  0  0  0
   -9.0164    1.4316   -0.4874 C   0  0  0  0  0  0  0  0  0  0  0  0
   -9.9126   -0.0320   -0.5976 Cl  0  0  0  0  0  0  0  0  0  0  0  0
   -9.6744    2.6608   -0.5685 C   0  0  0  0  0  0  0  0  0  0  0  0
  -11.0024    2.6765   -0.7318 F   0  0  0  0  0  0  0  0  0  0  0  0
   -9.0079    3.8740   -0.4868 C   0  0  0  0  0  0  0  0  0  0  0  0
   -7.6328    3.8486   -0.3174 C   0  0  0  0  0  0  0  0  0  0  0  0
   -6.6478    4.9232   -0.1967 C   0  0  0  0  0  0  0  0  0  0  0  0
   -6.9360    6.2634   -0.2465 C   0  0  0  0  0  0  0  0  0  0  0  0
   -6.0022    7.3147   -0.1364 C   0  0  0  0  0  0  0  0  0  0  0  0
   -5.3069    8.2263   -0.0561 N   0  0  0  0  0  0  0  0  0  0  0  0
   -8.2353    6.7851   -0.4225 C   0  0  0  0  0  0  0  0  0  0  0  0
   -9.2629    7.2762   -0.5630 N   0  0  0  0  0  0  0  0  0  0  0  0
   -2.8562    4.5127    0.2993 C   0  0  0  0  0  0  0  0  0  0  0  0
   -1.7565    5.3742    0.4722 C   0  0  0  0  0  0  0  0  0  0  0  0
   -1.8190    6.8636    0.5608 C   0  0  0  0  0  0  0  0  0  0  0  0
   -2.1813    7.3080    1.9809 C   0  0  0  0  0  0  0  0  0  0  0  0
   -0.5750    4.6620    0.6170 C   0  0  0  0  0  0  0  0  0  0  0  0
   -0.7323    3.2655    0.5483 C   0  0  0  0  0  0  0  0  0  0  0  0
   -2.3781    2.8133    0.3127 S   0  0  0  0  0  0  0  0  0  0  0  0
    0.4961    2.6154    0.6988 C   0  0  0  0  0  0  0  0  0  0  0  0
    1.5560    3.5116    0.8879 C   0  0  0  0  0  0  0  0  0  0  0  0
    1.0829    5.1738    0.8729 S   0  0  0  0  0  0  0  0  0  0  0  0
    2.7109    2.7436    1.0704 C   0  0  0  0  0  0  0  0  0  0  0  0
    4.0271    3.1333    1.4031 C   0  0  0  0  0  0  0  0  0  0  0  0
    4.5120    4.3541    1.5675 N   0  0  0  0  0  0  0  0  0  0  0  0
    6.0631    4.2334    2.0124 S   0  0  0  0  0  0  0  0  0  0  0  0
    6.1761    2.6192    2.0103 N   0  0  0  0  0  0  0  0  0  0  0  0
    5.0022    2.1179    1.6600 C   0  0  0  0  0  0  0  0  0  0  0  0
    4.6397    0.7653    1.4747 C   0  0  0  0  0  0  0  0  0  0  0  0
    5.4086   -0.4006    1.5653 C   0  0  0  0  0  0  0  0  0  0  0  0
    7.0131   -0.8753    1.9962 S   0  0  0  0  0  0  0  0  0  0  0  0
    6.5883   -2.5320    1.6373 C   0  0  0  0  0  0  0  0  0  0  0  0
    7.2960   -3.7250    1.6851 C   0  0  0  0  0  0  0  0  0  0  0  0
    6.5255   -4.8207    1.3282 C   0  0  0  0  0  0  0  0  0  0  0  0
    4.8971   -4.3343    0.8613 S   0  0  0  0  0  0  0  0  0  0  0  0
    5.2584   -2.6843    1.2026 C   0  0  0  0  0  0  0  0  0  0  0  0
    4.5850   -1.4630    1.1676 C   0  0  0  0  0  0  0  0  0  0  0  0
    3.3341   -0.9976    0.8642 N   0  0  0  0  0  0  0  0  0  0  0  0
    2.4260   -1.8412    0.1189 C   0  0  0  0  0  0  0  0  0  0  0  0
    2.3059   -1.3843   -1.3329 C   0  0  0  0  0  0  0  0  0  0  0  0
    3.3324    0.3749    1.0557 C   0  0  0  0  0  0  0  0  0  0  0  0
    2.3264    1.3730    0.9490 C   0  0  0  0  0  0  0  0  0  0  0  0
    0.9611    1.3287    0.7266 N   0  0  0  0  0  0  0  0  0  0  0  0
    0.0175    0.2402    0.8600 C   0  0  0  0  0  0  0  0  0  0  0  0
    0.0357   -0.3461    2.2693 C   0  0  0  0  0  0  0  0  0  0  0  0
    6.9859   -6.1481    1.2324 C   0  0  0  0  0  0  0  0  0  0  0  0
    6.2831   -7.3106    1.0983 C   0  0  0  0  0  0  0  0  0  0  0  0
    6.9496   -8.5048    0.5213 C   0  0  0  0  0  0  0  0  0  0  0  0
    8.1339   -8.6700    0.3483 O   0  0  0  0  0  0  0  0  0  0  0  0
    5.8413   -9.4157    0.1469 C   0  0  0  0  0  0  0  0  0  0  0  0
    5.9040  -10.6160   -0.5330 C   0  0  0  0  0  0  0  0  0  0  0  0
    4.7111  -11.2731   -0.7901 C   0  0  0  0  0  0  0  0  0  0  0  0
    4.7251  -12.4372   -1.4498 F   0  0  0  0  0  0  0  0  0  0  0  0
    3.4941  -10.7330   -0.3719 C   0  0  0  0  0  0  0  0  0  0  0  0
    2.3585  -11.3832   -0.6479 F   0  0  0  0  0  0  0  0  0  0  0  0
    3.4304   -9.5336    0.3218 C   0  0  0  0  0  0  0  0  0  0  0  0
    4.6192   -8.8720    0.5810 C   0  0  0  0  0  0  0  0  0  0  0  0
    4.8921   -7.6358    1.3136 C   0  0  0  0  0  0  0  0  0  0  0  0
    4.0663   -7.0749    2.2527 C   0  0  0  0  0  0  0  0  0  0  0  0
    4.5044   -6.1045    3.1789 C   0  0  0  0  0  0  0  0  0  0  0  0
    4.8420   -5.3605    3.9850 N   0  0  0  0  0  0  0  0  0  0  0  0
    2.7284   -7.4643    2.4591 C   0  0  0  0  0  0  0  0  0  0  0  0
    1.6243   -7.7198    2.6408 N   0  0  0  0  0  0  0  0  0  0  0  0
   -4.2342    6.0559    0.1421 H   0  0  0  0  0  0  0  0  0  0  0  0
   -7.1007    0.4755   -0.2509 H   0  0  0  0  0  0  0  0  0  0  0  0
   -9.5783    4.7856   -0.5571 H   0  0  0  0  0  0  0  0  0  0  0  0
   -0.8356    7.2619    0.3037 H   0  0  0  0  0  0  0  0  0  0  0  0
   -2.5471    7.2700   -0.1425 H   0  0  0  0  0  0  0  0  0  0  0  0
   -2.2134    8.3925    2.0288 H   0  0  0  0  0  0  0  0  0  0  0  0
   -3.1560    6.9216    2.2693 H   0  0  0  0  0  0  0  0  0  0  0  0
   -1.4402    6.9478    2.6906 H   0  0  0  0  0  0  0  0  0  0  0  0
    8.3211   -3.8130    1.9946 H   0  0  0  0  0  0  0  0  0  0  0  0
    2.8470   -2.8493    0.1454 H   0  0  0  0  0  0  0  0  0  0  0  0
    1.4545   -1.8895    0.6095 H   0  0  0  0  0  0  0  0  0  0  0  0
    3.2751   -1.4439   -1.8230 H   0  0  0  0  0  0  0  0  0  0  0  0
    1.9581   -0.3557   -1.3953 H   0  0  0  0  0  0  0  0  0  0  0  0
    1.6092   -2.0247   -1.8666 H   0  0  0  0  0  0  0  0  0  0  0  0
    0.2001   -0.5207    0.1016 H   0  0  0  0  0  0  0  0  0  0  0  0
   -0.9709    0.6605    0.6596 H   0  0  0  0  0  0  0  0  0  0  0  0
    1.0278   -0.6997    2.5409 H   0  0  0  0  0  0  0  0  0  0  0  0
   -0.2622    0.4122    2.9895 H   0  0  0  0  0  0  0  0  0  0  0  0
   -0.6640   -1.1747    2.3336 H   0  0  0  0  0  0  0  0  0  0  0  0
    8.0647   -6.2567    1.1678 H   0  0  0  0  0  0  0  0  0  0  0  0
    6.8447  -11.0334   -0.8545 H   0  0  0  0  0  0  0  0  0  0  0  0
    2.4689   -9.1527    0.6254 H   0  0  0  0  0  0  0  0  0  0  0  0
  1  2  2  0  0  0  0
  2  3  1  0  0  0  0
  3  4  2  0  0  0  0
  3  5  1  0  0  0  0
  5  6  2  0  0  0  0
  6  7  1  0  0  0  0
  7  8  1  0  0  0  0
  7  9  2  0  0  0  0
  9 10  1  0  0  0  0
  9 11  1  0  0  0  0
 11 12  2  0  0  0  0
 12 13  1  0  0  0  0
 13 14  2  0  0  0  0
 14 15  1  0  0  0  0
 15 16  3  0  0  0  0
 14 17  1  0  0  0  0
 17 18  3  0  0  0  0
  1 19  1  0  0  0  0
 19 20  2  0  0  0  0
 20 21  1  0  0  0  0
 21 22  1  0  0  0  0
 20 23  1  0  0  0  0
 23 24  2  0  0  0  0
 24 25  1  0  0  0  0
 24 26  1  0  0  0  0
 26 27  2  0  0  0  0
 27 28  1  0  0  0  0
 27 29  1  0  0  0  0
 29 30  1  0  0  0  0
 30 31  2  0  0  0  0
 31 32  1  0  0  0  0
 32 33  1  0  0  0  0
 33 34  2  0  0  0  0
 34 35  1  0  0  0  0
 35 36  1  0  0  0  0
 36 37  1  0  0  0  0
 37 38  1  0  0  0  0
 38 39  1  0  0  0  0
 39 40  2  0  0  0  0
 40 41  1  0  0  0  0
 41 42  1  0  0  0  0
 42 43  1  0  0  0  0
 43 44  1  0  0  0  0
 44 45  1  0  0  0  0
 45 46  1  0  0  0  0
 44 47  1  0  0  0  0
 47 48  1  0  0  0  0
 48 49  1  0  0  0  0
 49 50  1  0  0  0  0
 50 51  1  0  0  0  0
 40 52  1  0  0  0  0
 52 53  2  0  0  0  0
 53 54  1  0  0  0  0
 54 55  2  0  0  0  0
 54 56  1  0  0  0  0
 56 57  2  0  0  0  0
 57 58  1  0  0  0  0
 58 59  1  0  0  0  0
 58 60  2  0  0  0  0
 60 61  1  0  0  0  0
 60 62  1  0  0  0  0
 62 63  2  0  0  0  0
 63 64  1  0  0  0  0
 64 65  2  0  0  0  0
 65 66  1  0  0  0  0
 66 67  3  0  0  0  0
 65 68  1  0  0  0  0
 68 69  3  0  0  0  0
 13  2  1  0  0  0  0
 25 19  1  0  0  0  0
 49 26  1  0  0  0  0
 64 53  1  0  0  0  0
 12  5  1  0  0  0  0
 28 23  1  0  0  0  0
 48 29  2  0  0  0  0
 63 56  1  0  0  0  0
 34 30  1  0  0  0  0
 47 35  2  0  0  0  0
 43 36  2  0  0  0  0
 42 38  2  0  0  0  0
  1 70  1  0  0  0  0
  6 71  1  0  0  0  0
 11 72  1  0  0  0  0
 21 73  1  0  0  0  0
 21 74  1  0  0  0  0
 22 75  1  0  0  0  0
 22 76  1  0  0  0  0
 22 77  1  0  0  0  0
 39 78  1  0  0  0  0
 45 79  1  0  0  0  0
 45 80  1  0  0  0  0
 46 81  1  0  0  0  0
 46 82  1  0  0  0  0
 46 83  1  0  0  0  0
 50 84  1  0  0  0  0
 50 85  1  0  0  0  0
 51 86  1  0  0  0  0
 51 87  1  0  0  0  0
 51 88  1  0  0  0  0
 52 89  1  0  0  0  0
 57 90  1  0  0  0  0
 62 91  1  0  0  0  0
M  END
