95

C         -3.79110       -8.08870        0.56690
C         -4.86890       -8.12220       -0.28670
C         -5.25920       -7.05690       -1.21100
O         -4.71440       -5.98110       -1.38660
C         -6.46550       -7.54570       -1.91080
C         -7.21030       -6.90960       -2.88240
C         -8.31990       -7.56890       -3.39800
Cl        -9.29290       -6.83470       -4.61140
C         -8.64210       -8.84090       -2.92020
F         -9.71280       -9.46990       -3.41920
C         -7.89630       -9.48580       -1.94520
C         -6.78960       -8.82730       -1.43330
C         -5.80900       -9.21670       -0.42000
C         -5.81320      -10.40680        0.26130
C         -6.77870      -11.41910        0.07520
N         -7.52960      -12.28110       -0.02660
C         -4.87640      -10.80450        1.23820
N         -4.16010      -11.20820        2.04060
C         -2.84450       -7.08610        0.79790
C         -1.81760       -7.24080        1.73520
C         -1.00830       -6.12840        1.83100
S          0.38830       -5.74220        2.81410
C          0.44320       -4.18210        2.06350
C          1.21500       -3.01810        2.10230
C          2.39850       -2.70070        2.79890
N          3.14680       -3.38260        3.66770
N          4.14710       -2.57780        3.92550
C          5.21980       -2.96560        4.79480
C          6.30900       -3.69090        4.00980
N          4.14220       -1.42130        3.31120
C          3.03140       -1.45170        2.57270
C          2.41440       -0.50270        1.73220
C          2.74260        0.82290        1.43000
S          3.98840        1.97560        1.77320
C          3.10650        3.16620        0.84410
C          3.35650        4.49630        0.53990
C          2.35970        5.05650       -0.24400
S          1.08720        3.87890       -0.60630
C          1.90580        2.66760        0.29890
C          1.70510        1.32750        0.63440
N          0.76710        0.35660        0.41160
C         -0.54000        0.73340       -0.07970
C         -1.59690        0.65380        1.01880
C          1.18040       -0.79140        1.07340
C          0.62980       -2.09570        1.18040
N         -0.45180       -2.71900        0.57560
C         -0.56180       -3.97560        1.10820
C         -1.39680       -5.08500        0.96250
S         -2.77730       -5.50790        0.01920
C         -1.12870       -2.41960       -0.66810
C         -0.14460       -2.32470       -1.83120
C          2.17880        6.32830       -0.81390
C          2.90160        7.48770       -0.70880
C          4.05830        7.77910        0.16760
O          4.69100        7.02170        0.87470
C          4.30450        9.22840        0.03140
C          5.24730        9.99750        0.68510
C          5.31270       11.36200        0.42790
C          6.30360       12.25690        1.09660
C          4.40340       11.88740       -0.49280
F          4.45290       13.20930       -0.74230
C          3.45300       11.13700       -1.16540
C          3.40630        9.77770       -0.89670
C          2.55670        8.71030       -1.41660
C          1.65290        8.85690       -2.43670
C          0.88150        7.83160       -3.02420
N          0.23030        7.06140       -3.57420
C          1.38890       10.08340       -3.08380
N          1.12020       11.04670       -3.64710
H         -3.63010       -8.96670        1.18010
H         -6.93670       -5.92630       -3.23020
H         -8.20150      -10.46770       -1.62290
H         -1.69510       -8.13980        2.31170
H          4.80110       -3.62110        5.56080
H          5.61690       -2.05660        5.25020
H          6.70860       -3.04060        3.23550
H          5.90180       -4.58530        3.54460
H          7.11580       -3.97870        4.67740
H          4.21590        5.05120        0.86790
H         -0.45610        1.76760       -0.42240
H         -0.81260        0.13240       -0.94700
H         -2.56770        0.93310        0.61890
H         -1.34560        1.33810        1.82580
H         -1.66160       -0.34920        1.43370
H         -1.72970       -1.51540       -0.57280
H         -1.82140       -3.24470       -0.85010
H          0.61010       -1.56260       -1.65100
H          0.36220       -3.27720       -1.96690
H         -0.67710       -2.08390       -2.74700
H          1.29320        6.38260       -1.43670
H          5.92270        9.53420        1.38810
H          5.78760       13.03640        1.65640
H          6.93880       11.69320        1.77340
H          6.92520       12.75220        0.35130
H          2.79000       11.62670       -1.85880
