114

C          2.60580       -8.31070       -3.94070
C          2.71700       -9.67190       -3.78170
C          2.14810      -10.52310       -2.71900
O          1.34610      -10.24300       -1.85160
C          2.77330      -11.85350       -2.89770
C          2.60770      -12.97870       -2.11650
C          3.31060      -14.12700       -2.45980
Cl         3.15570      -15.56430       -1.52760
C          4.15240      -14.10480       -3.57390
F          4.83240      -15.21220       -3.89580
C          4.31830      -12.97860       -4.36510
C          3.61560      -11.83440       -4.01990
C          3.56090      -10.50390       -4.62200
C          4.16790      -10.15750       -5.80180
C          4.07140       -8.91180       -6.45790
N          4.03930       -7.94190       -7.07290
C          4.96890      -11.03650       -6.56200
N          5.63450      -11.69510       -7.22590
C          1.86460       -7.34820       -3.24210
S          2.19430       -5.66040       -3.66500
C          1.07460       -5.13300       -2.49230
C          0.63290       -3.88450       -1.96310
C         -0.29880       -4.17650       -0.93850
C         -0.49230       -5.66900       -0.79240
C          0.45510       -6.19510       -1.82890
C          0.89370       -7.43620       -2.24480
C         -0.16350       -6.17750        0.61270
C         -0.87370       -3.16250       -0.21090
C         -0.47370       -1.85700       -0.49250
C         -0.83050       -0.61680        0.12040
C         -0.15370        0.41450       -0.46510
C          0.71880       -0.06680       -1.59540
C          2.17740        0.32810       -1.28460
C          3.23060       -0.10510       -2.29620
C          0.21330        0.40650       -2.97430
C          0.23750        1.91220       -3.19590
C          0.47240       -1.56610       -1.50960
C          1.00160       -2.57610       -2.27680
C         -0.39730        1.62630        0.26580
C         -1.30240        1.30680        1.31250
C         -1.67260       -0.16130        1.27230
C         -1.29190       -0.86700        2.58700
C          0.19810       -0.78290        2.89450
C         -3.17610       -0.35590        0.99550
C         -3.63180        0.30230       -0.30080
C         -1.69630        2.24700        2.23150
C         -1.14580        3.52290        2.11850
C         -1.26770        4.67530        2.94840
C         -0.46310        5.71280        2.47040
C          0.24270        5.27800        1.22030
C         -0.23940        3.85050        1.08260
C          0.13140        2.91210        0.14780
C          1.76400        5.38670        1.33950
C         -0.47400        6.83370        3.27620
C         -1.29360        6.67510        4.39380
S         -2.07740        5.08680        4.39060
C         -1.59740        7.50010        5.48440
C         -1.06880        8.69840        5.90340
C          0.09670        9.42250        5.36170
O          0.72380        9.20790        4.34570
C          0.38250       10.50010        6.33850
C         -0.57770       10.47590        7.36470
C         -0.50150       11.38540        8.40750
C          0.53300       12.30930        8.40860
C          1.47430       12.33380        7.39140
Br         2.85920       13.61890        7.45010
C          1.41570       11.42330        6.33050
Cl         2.58130       11.45140        5.07740
C         -1.52660        9.39910        7.08700
C         -2.66930        9.16190        7.80800
C         -3.65000        8.18930        7.51750
N         -4.50820        7.44360        7.35270
C         -3.05420        9.89880        8.94790
N         -3.42720       10.45070        9.88300
H          3.22370       -7.88100       -4.72060
H          1.95080      -12.96210       -1.26160
H          4.98590      -13.03120       -5.20920
H         -1.52390       -5.94510       -1.03790
H          0.55730       -8.37960       -1.85800
H         -0.85280       -5.75680        1.34000
H          0.84950       -5.89100        0.88620
H         -0.23900       -7.26110        0.64350
H         -1.60030       -3.36590        0.56050
H          2.21390        1.41320       -1.18280
H          2.42990       -0.09490       -0.30830
H          3.33410       -1.18570       -2.31950
H          2.99410        0.25010       -3.29550
H          4.19280        0.31470       -2.00980
H         -0.81490        0.05160       -3.08540
H          0.80950       -0.08430       -3.74470
H         -0.11820        2.13460       -4.19980
H          1.24460        2.31000       -3.10170
H         -0.41390        2.41700       -2.48750
H          1.68670       -2.39500       -3.08960
H         -1.85780       -0.41200        3.40210
H         -1.58730       -1.91560        2.52170
H          0.41030       -1.26390        3.84630
H          0.77920       -1.28070        2.12130
H          0.52070        0.25430        2.95330
H         -3.73910        0.06160        1.83270
H         -3.38670       -1.42620        0.94950
H         -3.43620        1.37210       -0.27920
H         -4.69940        0.15060       -0.44030
H         -3.10980       -0.12550       -1.15380
H         -2.38140        2.01750        3.03360
H         -0.08980        5.87560        0.36380
H          0.82890        3.16320       -0.63550
H          2.24280        5.04700        0.42490
H          2.05010        6.41910        1.52160
H          2.11890        4.77600        2.16670
H          0.08240        7.73480        3.09970
H         -2.36330        7.08150        6.12720
H         -1.21520       11.38890        9.21380
H          0.61260       13.02390        9.21320
