91

C         -1.63810        7.30280        4.01210
C         -1.31290        6.92040        5.28170
C         -1.97330        7.56790        6.44080
O         -2.64190        8.57520        6.43220
C         -1.68290        6.67820        7.59110
C         -2.15100        6.76340        8.88650
C         -1.75620        5.78920        9.79640
Cl        -2.30490        5.83740       11.42600
C         -0.90570        4.76260        9.37870
F         -0.54320        3.82070       10.25760
C         -0.42010        4.67660        8.08310
C         -0.81610        5.64910        7.18000
C         -0.45640        5.87000        5.78170
C          0.66590        5.38210        5.16250
C          1.14790        5.90090        3.94250
N          1.59520        6.34910        2.98490
C          1.49970        4.38890        5.71090
N          2.18980        3.55750        6.09840
C         -1.49750        6.59290        2.80460
C         -1.54440        7.13270        1.52230
C         -1.59050        8.59160        1.22110
C         -0.20250        9.21430        1.39310
C         -1.42810        6.14080        0.54640
C         -1.32680        4.83730        1.05460
S         -1.36160        4.83290        2.77760
C         -1.21580        3.89240        0.03360
C         -1.25150        4.48500       -1.23540
S         -1.39970        6.20520       -1.20090
C         -1.16790        3.44560       -2.17250
C         -1.28900        3.45270       -3.58050
N         -1.46550        4.48640       -4.38800
S         -1.62800        3.93480       -5.90040
N         -1.47750        2.35510       -5.58410
C         -1.29240        2.20260       -4.28270
C         -1.04130        1.01410       -3.56040
C         -0.82080       -0.29880       -3.99330
S         -0.81470       -1.20980       -5.46520
C         -0.26630       -2.60740       -4.56120
C          0.05800       -3.90050       -4.91660
C          0.47140       -4.67500       -3.82720
S          0.44090       -3.75280       -2.32810
C         -0.10910       -2.36050       -3.18020
C         -0.43940       -1.04160       -2.86640
N         -0.44050       -0.23910       -1.75750
C          0.20750       -0.69230       -0.54710
C         -0.68780       -1.61960        0.27340
C         -0.83050        1.02450       -2.14770
C         -1.02890        2.23480       -1.43490
N         -1.07570        2.53360       -0.08100
C         -1.51480        1.70710        1.02380
C         -3.00270        1.38410        0.90310
C          0.86690       -6.00910       -3.97030
C          1.30060       -6.91620       -3.03210
C          1.41580       -6.66860       -1.59450
O          1.16590       -5.64150       -0.98750
C          1.89850       -7.93050       -1.00010
C          2.16310       -8.21140        0.32390
C          2.61630       -9.48440        0.65140
Cl         2.95790       -9.87340        2.28920
C          2.79100      -10.43820       -0.35470
Br         3.40680      -12.16980        0.09050
C          2.52350      -10.15290       -1.68870
C          2.07240       -8.88540       -2.01680
C          1.71020       -8.28140       -3.29940
C          1.77040       -8.91670       -4.51230
C          2.19070      -10.25360       -4.68250
N          2.52220      -11.33290       -4.88820
C          1.43440       -8.35130       -5.76050
N          1.18320       -7.97000       -6.81450
H         -2.15560        8.25530        3.94110
H         -2.80520        7.56740        9.18380
H          0.23430        3.86170        7.81840
H         -1.92450        8.72470        0.19030
H         -2.29840        9.09160        1.88520
H         -0.23810       10.27390        1.15470
H          0.51220        8.73060        0.73250
H          0.14500        9.09420        2.41640
H          0.01120       -4.29240       -5.91650
H          1.10200       -1.25070       -0.84390
H          0.54050        0.17770        0.02020
H         -0.83290       -2.55750       -0.25550
H         -0.21360       -1.83930        1.22580
H         -1.66350       -1.17690        0.45540
H         -1.33290        2.28080        1.93630
H         -0.93710        0.79110        1.08630
H         -3.20220        0.84090       -0.01870
H         -3.31940        0.77670        1.74630
H         -3.59010        2.29950        0.89550
H          0.81620       -6.35570       -4.99510
H          2.02170       -7.46020        1.08470
H          2.67240      -10.92050       -2.43070
