
  xtb     02112208303D
 energy: -177.298362208898 gnorm: 0.000696538101 xtb: 6.4.1 (unknown)
 88100  0     0  0            999 V2000
    5.1350    1.4589    6.6080 C   0  0  0  0  0  0  0  0  0  0  0  0
    4.4852    0.7386    7.5706 C   0  0  0  0  0  0  0  0  0  0  0  0
    5.2592    0.1374    8.6842 C   0  0  0  0  0  0  0  0  0  0  0  0
    6.3947    0.3941    9.0088 O   0  0  0  0  0  0  0  0  0  0  0  0
    4.3578   -0.8881    9.2644 C   0  0  0  0  0  0  0  0  0  0  0  0
    4.6302   -1.8195   10.2452 C   0  0  0  0  0  0  0  0  0  0  0  0
    3.6260   -2.7114   10.6055 C   0  0  0  0  0  0  0  0  0  0  0  0
    3.9027   -3.9005   11.8168 Cl  0  0  0  0  0  0  0  0  0  0  0  0
    2.3828   -2.6387    9.9729 C   0  0  0  0  0  0  0  0  0  0  0  0
    1.4274   -3.5111   10.3147 F   0  0  0  0  0  0  0  0  0  0  0  0
    2.0964   -1.6977    8.9958 C   0  0  0  0  0  0  0  0  0  0  0  0
    3.1001   -0.8129    8.6391 C   0  0  0  0  0  0  0  0  0  0  0  0
    3.1148    0.2980    7.6896 C   0  0  0  0  0  0  0  0  0  0  0  0
    2.0023    0.9712    7.2471 C   0  0  0  0  0  0  0  0  0  0  0  0
    2.0662    2.2286    6.6112 C   0  0  0  0  0  0  0  0  0  0  0  0
    2.0796    3.2715    6.1303 N   0  0  0  0  0  0  0  0  0  0  0  0
    0.6807    0.5328    7.4619 C   0  0  0  0  0  0  0  0  0  0  0  0
   -0.4119    0.2036    7.5851 N   0  0  0  0  0  0  0  0  0  0  0  0
    4.7524    1.7341    5.2812 C   0  0  0  0  0  0  0  0  0  0  0  0
    5.3954    2.6420    4.4524 C   0  0  0  0  0  0  0  0  0  0  0  0
    4.8961    2.7048    3.1577 C   0  0  0  0  0  0  0  0  0  0  0  0
    5.3306    3.7297    1.8062 S   0  0  0  0  0  0  0  0  0  0  0  0
    4.1064    2.9644    0.8603 C   0  0  0  0  0  0  0  0  0  0  0  0
    3.5278    3.0610   -0.4124 C   0  0  0  0  0  0  0  0  0  0  0  0
    3.7654    3.9752   -1.4622 C   0  0  0  0  0  0  0  0  0  0  0  0
    2.9344    3.9200   -2.6277 C   0  0  0  0  0  0  0  0  0  0  0  0
    3.2314    4.8651   -3.5058 N   0  0  0  0  0  0  0  0  0  0  0  0
    4.4536    5.7461   -2.9169 S   0  0  0  0  0  0  0  0  0  0  0  0
    4.6531    4.9558   -1.5194 N   0  0  0  0  0  0  0  0  0  0  0  0
    1.9845    2.8808   -2.7363 C   0  0  0  0  0  0  0  0  0  0  0  0
    1.1553    2.5109   -3.8031 C   0  0  0  0  0  0  0  0  0  0  0  0
    0.5295    1.3128   -3.4365 C   0  0  0  0  0  0  0  0  0  0  0  0
    0.9256    0.9482   -2.1790 N   0  0  0  0  0  0  0  0  0  0  0  0
    0.5669   -0.3586   -1.6831 C   0  0  0  0  0  0  0  0  0  0  0  0
   -0.8545   -0.3823   -1.1198 C   0  0  0  0  0  0  0  0  0  0  0  0
    1.8031    1.9074   -1.7078 C   0  0  0  0  0  0  0  0  0  0  0  0
    2.5013    2.0717   -0.4829 C   0  0  0  0  0  0  0  0  0  0  0  0
    2.4468    1.4146    0.7378 N   0  0  0  0  0  0  0  0  0  0  0  0
    3.4116    1.9605    1.5456 C   0  0  0  0  0  0  0  0  0  0  0  0
    3.8495    1.8100    2.8616 C   0  0  0  0  0  0  0  0  0  0  0  0
    3.4115    0.7701    4.3385 Se  0  0  0  0  0  2  0  0  0  0  0  0
    1.3602    0.7237    1.3977 C   0  0  0  0  0  0  0  0  0  0  0  0
    0.4178    1.7086    2.0869 C   0  0  0  0  0  0  0  0  0  0  0  0
   -0.2879    0.8050   -4.4503 C   0  0  0  0  0  0  0  0  0  0  0  0
   -0.2879    1.6506   -5.5745 C   0  0  0  0  0  0  0  0  0  0  0  0
    0.7335    3.0584   -5.3848 S   0  0  0  0  0  0  0  0  0  0  0  0
   -1.0798    1.2405   -6.6423 C   0  0  0  0  0  0  0  0  0  0  0  0
   -1.7841    0.0680   -6.4277 C   0  0  0  0  0  0  0  0  0  0  0  0
   -1.3793   -0.6763   -4.7293 Se  0  0  0  0  0  2  0  0  0  0  0  0
   -2.5902   -0.5607   -7.4021 C   0  0  0  0  0  0  0  0  0  0  0  0
   -3.4727   -1.5916   -7.2819 C   0  0  0  0  0  0  0  0  0  0  0  0
   -3.8231   -2.3959   -8.4840 C   0  0  0  0  0  0  0  0  0  0  0  0
   -3.6163   -2.1004   -9.6390 O   0  0  0  0  0  0  0  0  0  0  0  0
   -4.4082   -3.6432   -7.9551 C   0  0  0  0  0  0  0  0  0  0  0  0
   -4.7928   -4.7660   -8.6470 C   0  0  0  0  0  0  0  0  0  0  0  0
   -5.3053   -5.8417   -7.9145 C   0  0  0  0  0  0  0  0  0  0  0  0
   -5.7712   -7.1029   -8.3822 C   0  0  0  0  0  0  0  0  0  0  0  0
   -6.1924   -7.9058   -7.3810 C   0  0  0  0  0  0  0  0  0  0  0  0
   -6.0527   -7.1900   -5.8125 S   0  0  0  0  0  0  0  0  0  0  0  0
   -5.4032   -5.7380   -6.5059 C   0  0  0  0  0  0  0  0  0  0  0  0
   -5.0244   -4.5991   -5.8045 C   0  0  0  0  0  0  0  0  0  0  0  0
   -4.5278   -3.5446   -6.5443 C   0  0  0  0  0  0  0  0  0  0  0  0
   -4.1010   -2.2114   -6.1366 C   0  0  0  0  0  0  0  0  0  0  0  0
   -4.4964   -1.5700   -4.9875 C   0  0  0  0  0  0  0  0  0  0  0  0
   -5.1735   -2.2015   -3.9266 C   0  0  0  0  0  0  0  0  0  0  0  0
   -5.7003   -2.6751   -3.0229 N   0  0  0  0  0  0  0  0  0  0  0  0
   -4.3548   -0.1798   -4.8008 C   0  0  0  0  0  0  0  0  0  0  0  0
   -4.2932    0.9555   -4.6364 N   0  0  0  0  0  0  0  0  0  0  0  0
    6.1338    1.7874    6.8819 H   0  0  0  0  0  0  0  0  0  0  0  0
    5.5982   -1.8535   10.7191 H   0  0  0  0  0  0  0  0  0  0  0  0
    1.1186   -1.6911    8.5417 H   0  0  0  0  0  0  0  0  0  0  0  0
    6.1901    3.2742    4.8090 H   0  0  0  0  0  0  0  0  0  0  0  0
    0.6138   -1.0524   -2.5340 H   0  0  0  0  0  0  0  0  0  0  0  0
    1.3129   -0.6877   -0.9580 H   0  0  0  0  0  0  0  0  0  0  0  0
   -1.5737   -0.2162   -1.9214 H   0  0  0  0  0  0  0  0  0  0  0  0
   -1.0618   -1.3499   -0.6709 H   0  0  0  0  0  0  0  0  0  0  0  0
   -1.0052    0.3956   -0.3755 H   0  0  0  0  0  0  0  0  0  0  0  0
    0.8030    0.1134    0.6988 H   0  0  0  0  0  0  0  0  0  0  0  0
    1.8124    0.0605    2.1478 H   0  0  0  0  0  0  0  0  0  0  0  0
    0.9464    2.2824    2.8459 H   0  0  0  0  0  0  0  0  0  0  0  0
   -0.3915    1.1670    2.5686 H   0  0  0  0  0  0  0  0  0  0  0  0
   -0.0040    2.4015    1.3616 H   0  0  0  0  0  0  0  0  0  0  0  0
   -1.1730    1.8031   -7.5550 H   0  0  0  0  0  0  0  0  0  0  0  0
   -2.4182   -0.2298   -8.4230 H   0  0  0  0  0  0  0  0  0  0  0  0
   -4.7042   -4.8121   -9.7213 H   0  0  0  0  0  0  0  0  0  0  0  0
   -5.7835   -7.3788   -9.4211 H   0  0  0  0  0  0  0  0  0  0  0  0
   -6.5878   -8.9001   -7.4565 H   0  0  0  0  0  0  0  0  0  0  0  0
   -5.1119   -4.5627   -4.7309 H   0  0  0  0  0  0  0  0  0  0  0  0
  1  2  2  0  0  0  0
  2  3  1  0  0  0  0
  3  4  2  0  0  0  0
  3  5  1  0  0  0  0
  5  6  2  0  0  0  0
  6  7  1  0  0  0  0
  7  8  1  0  0  0  0
  7  9  2  0  0  0  0
  9 10  1  0  0  0  0
  9 11  1  0  0  0  0
 11 12  2  0  0  0  0
 12 13  1  0  0  0  0
 13 14  2  0  0  0  0
 14 15  1  0  0  0  0
 15 16  3  0  0  0  0
 14 17  1  0  0  0  0
 17 18  3  0  0  0  0
  1 19  1  0  0  0  0
 19 20  2  0  0  0  0
 20 21  1  0  0  0  0
 21 22  1  0  0  0  0
 22 23  1  0  0  0  0
 23 24  1  0  0  0  0
 24 25  1  0  0  0  0
 25 26  1  0  0  0  0
 26 27  2  0  0  0  0
 27 28  1  0  0  0  0
 28 29  1  0  0  0  0
 26 30  1  0  0  0  0
 30 31  1  0  0  0  0
 31 32  2  0  0  0  0
 32 33  1  0  0  0  0
 33 34  1  0  0  0  0
 34 35  1  0  0  0  0
 33 36  1  0  0  0  0
 36 37  1  0  0  0  0
 37 38  1  0  0  0  0
 38 39  1  0  0  0  0
 39 40  1  0  0  0  0
 40 41  1  0  0  0  0
 38 42  1  0  0  0  0
 42 43  1  0  0  0  0
 32 44  1  0  0  0  0
 44 45  2  0  0  0  0
 45 46  1  0  0  0  0
 45 47  1  0  0  0  0
 47 48  2  0  0  0  0
 48 49  1  0  0  0  0
 48 50  1  0  0  0  0
 50 51  2  0  0  0  0
 51 52  1  0  0  0  0
 52 53  2  0  0  0  0
 52 54  1  0  0  0  0
 54 55  2  0  0  0  0
 55 56  1  0  0  0  0
 56 57  1  0  0  0  0
 57 58  2  0  0  0  0
 58 59  1  0  0  0  0
 59 60  1  0  0  0  0
 60 61  1  0  0  0  0
 61 62  2  0  0  0  0
 62 63  1  0  0  0  0
 63 64  2  0  0  0  0
 64 65  1  0  0  0  0
 65 66  3  0  0  0  0
 64 67  1  0  0  0  0
 67 68  3  0  0  0  0
 13  2  1  0  0  0  0
 41 19  1  0  0  0  0
 49 44  1  0  0  0  0
 63 51  1  0  0  0  0
 12  5  1  0  0  0  0
 40 21  2  0  0  0  0
 62 54  1  0  0  0  0
 39 23  2  0  0  0  0
 60 56  2  0  0  0  0
 37 24  2  0  0  0  0
 29 25  2  0  0  0  0
 36 30  2  0  0  0  0
 46 31  1  0  0  0  0
  1 69  1  0  0  0  0
  6 70  1  0  0  0  0
 11 71  1  0  0  0  0
 20 72  1  0  0  0  0
 34 73  1  0  0  0  0
 34 74  1  0  0  0  0
 35 75  1  0  0  0  0
 35 76  1  0  0  0  0
 35 77  1  0  0  0  0
 42 78  1  0  0  0  0
 42 79  1  0  0  0  0
 43 80  1  0  0  0  0
 43 81  1  0  0  0  0
 43 82  1  0  0  0  0
 47 83  1  0  0  0  0
 50 84  1  0  0  0  0
 55 85  1  0  0  0  0
 57 86  1  0  0  0  0
 58 87  1  0  0  0  0
 61 88  1  0  0  0  0
M  END
