
  xtb     02012217233D
 energy: -185.698487008102 gnorm: 0.000860862142 xtb: 6.4.1 (unknown)
100111  0     0  0            999 V2000
   -1.2100   -1.5920   -7.8848 C   0  0  0  0  0  0  0  0  0  0  0  0
   -0.1675   -2.4387   -8.1894 C   0  0  0  0  0  0  0  0  0  0  0  0
    0.8791   -2.8860   -7.2720 C   0  0  0  0  0  0  0  0  0  0  0  0
    0.9931   -2.6383   -6.0842 O   0  0  0  0  0  0  0  0  0  0  0  0
    1.7981   -3.7188   -8.0768 C   0  0  0  0  0  0  0  0  0  0  0  0
    2.9541   -4.3541   -7.6739 C   0  0  0  0  0  0  0  0  0  0  0  0
    3.6656   -5.0859   -8.6175 C   0  0  0  0  0  0  0  0  0  0  0  0
    5.1173   -5.9005   -8.1845 Cl  0  0  0  0  0  0  0  0  0  0  0  0
    3.1911   -5.1548   -9.9288 C   0  0  0  0  0  0  0  0  0  0  0  0
    3.8817   -5.8596  -10.8332 F   0  0  0  0  0  0  0  0  0  0  0  0
    2.0285   -4.5197  -10.3388 C   0  0  0  0  0  0  0  0  0  0  0  0
    1.3215   -3.7896   -9.3969 C   0  0  0  0  0  0  0  0  0  0  0  0
    0.0861   -3.0121   -9.4947 C   0  0  0  0  0  0  0  0  0  0  0  0
   -0.6753   -2.8863  -10.6293 C   0  0  0  0  0  0  0  0  0  0  0  0
   -0.3576   -3.4905  -11.8640 C   0  0  0  0  0  0  0  0  0  0  0  0
   -0.1590   -3.9521  -12.8962 N   0  0  0  0  0  0  0  0  0  0  0  0
   -1.8768   -2.1564  -10.7412 C   0  0  0  0  0  0  0  0  0  0  0  0
   -2.8595   -1.5868  -10.9165 N   0  0  0  0  0  0  0  0  0  0  0  0
   -1.5690   -0.9731   -6.6875 C   0  0  0  0  0  0  0  0  0  0  0  0
   -2.6636   -0.0931   -6.5785 C   0  0  0  0  0  0  0  0  0  0  0  0
   -3.5478    0.3408   -7.7011 C   0  0  0  0  0  0  0  0  0  0  0  0
   -2.9084    1.4905   -8.4848 C   0  0  0  0  0  0  0  0  0  0  0  0
   -2.8013    0.3845   -5.2843 C   0  0  0  0  0  0  0  0  0  0  0  0
   -3.9453    1.4956   -4.5515 S   0  0  0  0  0  0  0  0  0  0  0  0
   -3.1426    1.2711   -3.0379 C   0  0  0  0  0  0  0  0  0  0  0  0
   -3.2611    1.6848   -1.7058 C   0  0  0  0  0  0  0  0  0  0  0  0
   -4.2508    2.4845   -1.0853 C   0  0  0  0  0  0  0  0  0  0  0  0
   -4.2023    2.6454    0.3420 C   0  0  0  0  0  0  0  0  0  0  0  0
   -5.1843    3.3599    0.8558 N   0  0  0  0  0  0  0  0  0  0  0  0
   -6.2437    3.8848   -0.4519 Se  0  0  0  0  0  2  0  0  0  0  0  0
   -5.2673    3.0789   -1.6788 N   0  0  0  0  0  0  0  0  0  0  0  0
   -3.1120    2.0802    1.0460 C   0  0  0  0  0  0  0  0  0  0  0  0
   -2.7785    2.1593    2.4049 C   0  0  0  0  0  0  0  0  0  0  0  0
   -3.4256    2.7940    3.8748 S   0  0  0  0  0  0  0  0  0  0  0  0
   -2.0192    2.1929    4.7218 C   0  0  0  0  0  0  0  0  0  0  0  0
   -1.6493    2.2222    6.0708 C   0  0  0  0  0  0  0  0  0  0  0  0
   -2.4720    2.8792    7.1295 C   0  0  0  0  0  0  0  0  0  0  0  0
   -2.1463    4.3731    7.2081 C   0  0  0  0  0  0  0  0  0  0  0  0
   -0.4432    1.5690    6.2809 C   0  0  0  0  0  0  0  0  0  0  0  0
    0.2510    0.9595    4.7769 S   0  0  0  0  0  0  0  0  0  0  0  0
   -1.1018    1.5462    3.8844 C   0  0  0  0  0  0  0  0  0  0  0  0
   -1.5412    1.5222    2.5580 C   0  0  0  0  0  0  0  0  0  0  0  0
   -1.1140    1.0332    1.3541 N   0  0  0  0  0  0  0  0  0  0  0  0
   -2.0708    1.3491    0.4041 C   0  0  0  0  0  0  0  0  0  0  0  0
   -2.2016    1.0612   -0.9812 C   0  0  0  0  0  0  0  0  0  0  0  0
   -1.4837    0.2701   -1.8582 N   0  0  0  0  0  0  0  0  0  0  0  0
   -2.0524    0.3931   -3.0978 C   0  0  0  0  0  0  0  0  0  0  0  0
   -1.8484   -0.1213   -4.3801 C   0  0  0  0  0  0  0  0  0  0  0  0
   -0.7368   -1.1917   -5.1451 S   0  0  0  0  0  0  0  0  0  0  0  0
   -0.5713   -0.8238   -1.6048 C   0  0  0  0  0  0  0  0  0  0  0  0
   -1.2299   -1.9144   -0.7636 C   0  0  0  0  0  0  0  0  0  0  0  0
    0.2673    0.6356    1.1978 C   0  0  0  0  0  0  0  0  0  0  0  0
    1.0481    1.6483    0.3637 C   0  0  0  0  0  0  0  0  0  0  0  0
    0.2491    1.4496    7.5076 C   0  0  0  0  0  0  0  0  0  0  0  0
    1.2310    0.5749    7.8579 C   0  0  0  0  0  0  0  0  0  0  0  0
    2.1402    0.9000    8.9896 C   0  0  0  0  0  0  0  0  0  0  0  0
    1.9864    1.7712    9.8155 O   0  0  0  0  0  0  0  0  0  0  0  0
    3.2814   -0.0265    8.8414 C   0  0  0  0  0  0  0  0  0  0  0  0
    4.4528   -0.0816    9.5678 C   0  0  0  0  0  0  0  0  0  0  0  0
    5.4076   -1.0418    9.2394 C   0  0  0  0  0  0  0  0  0  0  0  0
    6.6750   -1.1523   10.0251 C   0  0  0  0  0  0  0  0  0  0  0  0
    5.1554   -1.9148    8.1824 C   0  0  0  0  0  0  0  0  0  0  0  0
    3.9774   -1.8728    7.4524 C   0  0  0  0  0  0  0  0  0  0  0  0
    3.0263   -0.9220    7.7856 C   0  0  0  0  0  0  0  0  0  0  0  0
    1.6894   -0.6625    7.2633 C   0  0  0  0  0  0  0  0  0  0  0  0
    0.9137   -1.5630    6.5800 C   0  0  0  0  0  0  0  0  0  0  0  0
   -0.4757   -1.4000    6.4006 C   0  0  0  0  0  0  0  0  0  0  0  0
   -1.6160   -1.3241    6.2887 N   0  0  0  0  0  0  0  0  0  0  0  0
    1.3940   -2.7802    6.0605 C   0  0  0  0  0  0  0  0  0  0  0  0
    1.7385   -3.7687    5.5886 N   0  0  0  0  0  0  0  0  0  0  0  0
   -1.8686   -1.3460   -8.7063 H   0  0  0  0  0  0  0  0  0  0  0  0
    3.2950   -4.2823   -6.6535 H   0  0  0  0  0  0  0  0  0  0  0  0
    1.7198   -4.6143  -11.3669 H   0  0  0  0  0  0  0  0  0  0  0  0
   -4.4937    0.6828   -7.2768 H   0  0  0  0  0  0  0  0  0  0  0  0
   -3.7569   -0.4878   -8.3793 H   0  0  0  0  0  0  0  0  0  0  0  0
   -3.5686    1.7969   -9.2910 H   0  0  0  0  0  0  0  0  0  0  0  0
   -2.7346    2.3425   -7.8318 H   0  0  0  0  0  0  0  0  0  0  0  0
   -1.9582    1.1829   -8.9152 H   0  0  0  0  0  0  0  0  0  0  0  0
   -2.2942    2.4066    8.0952 H   0  0  0  0  0  0  0  0  0  0  0  0
   -3.5260    2.7553    6.8738 H   0  0  0  0  0  0  0  0  0  0  0  0
   -2.7564    4.8462    7.9727 H   0  0  0  0  0  0  0  0  0  0  0  0
   -2.3497    4.8549    6.2547 H   0  0  0  0  0  0  0  0  0  0  0  0
   -1.0983    4.5255    7.4569 H   0  0  0  0  0  0  0  0  0  0  0  0
    0.3480   -0.4594   -1.1469 H   0  0  0  0  0  0  0  0  0  0  0  0
   -0.3018   -1.2355   -2.5803 H   0  0  0  0  0  0  0  0  0  0  0  0
   -1.5837   -1.5236    0.1878 H   0  0  0  0  0  0  0  0  0  0  0  0
   -2.0822   -2.3295   -1.2964 H   0  0  0  0  0  0  0  0  0  0  0  0
   -0.5198   -2.7144   -0.5735 H   0  0  0  0  0  0  0  0  0  0  0  0
    0.3348   -0.3692    0.7811 H   0  0  0  0  0  0  0  0  0  0  0  0
    0.6930    0.5931    2.2034 H   0  0  0  0  0  0  0  0  0  0  0  0
    2.0767    1.3180    0.2478 H   0  0  0  0  0  0  0  0  0  0  0  0
    0.6051    1.7743   -0.6214 H   0  0  0  0  0  0  0  0  0  0  0  0
    1.0496    2.6161    0.8600 H   0  0  0  0  0  0  0  0  0  0  0  0
    0.0299    2.2110    8.2497 H   0  0  0  0  0  0  0  0  0  0  0  0
    4.6151    0.6117   10.3795 H   0  0  0  0  0  0  0  0  0  0  0  0
    6.9238   -0.2054   10.4976 H   0  0  0  0  0  0  0  0  0  0  0  0
    7.5013   -1.4634    9.3902 H   0  0  0  0  0  0  0  0  0  0  0  0
    6.5566   -1.9003   10.8099 H   0  0  0  0  0  0  0  0  0  0  0  0
    5.9026   -2.6515    7.9252 H   0  0  0  0  0  0  0  0  0  0  0  0
    3.8206   -2.5625    6.6384 H   0  0  0  0  0  0  0  0  0  0  0  0
  1  2  2  0  0  0  0
  2  3  1  0  0  0  0
  3  4  2  0  0  0  0
  3  5  1  0  0  0  0
  5  6  2  0  0  0  0
  6  7  1  0  0  0  0
  7  8  1  0  0  0  0
  7  9  2  0  0  0  0
  9 10  1  0  0  0  0
  9 11  1  0  0  0  0
 11 12  2  0  0  0  0
 12 13  1  0  0  0  0
 13 14  2  0  0  0  0
 14 15  1  0  0  0  0
 15 16  3  0  0  0  0
 14 17  1  0  0  0  0
 17 18  3  0  0  0  0
  1 19  1  0  0  0  0
 19 20  2  0  0  0  0
 20 21  1  0  0  0  0
 21 22  1  0  0  0  0
 20 23  1  0  0  0  0
 23 24  1  0  0  0  0
 24 25  1  0  0  0  0
 25 26  1  0  0  0  0
 26 27  1  0  0  0  0
 27 28  1  0  0  0  0
 28 29  2  0  0  0  0
 29 30  1  0  0  0  0
 30 31  1  0  0  0  0
 28 32  1  0  0  0  0
 32 33  1  0  0  0  0
 33 34  1  0  0  0  0
 34 35  1  0  0  0  0
 35 36  1  0  0  0  0
 36 37  1  0  0  0  0
 37 38  1  0  0  0  0
 36 39  2  0  0  0  0
 39 40  1  0  0  0  0
 40 41  1  0  0  0  0
 41 42  1  0  0  0  0
 42 43  1  0  0  0  0
 43 44  1  0  0  0  0
 44 45  1  0  0  0  0
 45 46  1  0  0  0  0
 46 47  1  0  0  0  0
 47 48  1  0  0  0  0
 48 49  1  0  0  0  0
 46 50  1  0  0  0  0
 50 51  1  0  0  0  0
 43 52  1  0  0  0  0
 52 53  1  0  0  0  0
 39 54  1  0  0  0  0
 54 55  2  0  0  0  0
 55 56  1  0  0  0  0
 56 57  2  0  0  0  0
 56 58  1  0  0  0  0
 58 59  2  0  0  0  0
 59 60  1  0  0  0  0
 60 61  1  0  0  0  0
 60 62  2  0  0  0  0
 62 63  1  0  0  0  0
 63 64  2  0  0  0  0
 64 65  1  0  0  0  0
 65 66  2  0  0  0  0
 66 67  1  0  0  0  0
 67 68  3  0  0  0  0
 66 69  1  0  0  0  0
 69 70  3  0  0  0  0
 13  2  1  0  0  0  0
 49 19  1  0  0  0  0
 65 55  1  0  0  0  0
 12  5  1  0  0  0  0
 48 23  2  0  0  0  0
 64 58  1  0  0  0  0
 47 25  2  0  0  0  0
 45 26  2  0  0  0  0
 31 27  2  0  0  0  0
 44 32  2  0  0  0  0
 42 33  2  0  0  0  0
 41 35  2  0  0  0  0
  1 71  1  0  0  0  0
  6 72  1  0  0  0  0
 11 73  1  0  0  0  0
 21 74  1  0  0  0  0
 21 75  1  0  0  0  0
 22 76  1  0  0  0  0
 22 77  1  0  0  0  0
 22 78  1  0  0  0  0
 37 79  1  0  0  0  0
 37 80  1  0  0  0  0
 38 81  1  0  0  0  0
 38 82  1  0  0  0  0
 38 83  1  0  0  0  0
 50 84  1  0  0  0  0
 50 85  1  0  0  0  0
 51 86  1  0  0  0  0
 51 87  1  0  0  0  0
 51 88  1  0  0  0  0
 52 89  1  0  0  0  0
 52 90  1  0  0  0  0
 53 91  1  0  0  0  0
 53 92  1  0  0  0  0
 53 93  1  0  0  0  0
 54 94  1  0  0  0  0
 59 95  1  0  0  0  0
 61 96  1  0  0  0  0
 61 97  1  0  0  0  0
 61 98  1  0  0  0  0
 62 99  1  0  0  0  0
 63100  1  0  0  0  0
M  END
