85

C         -3.73010        1.67910       -5.89760
C         -4.71000        1.91700       -6.82720
C         -6.17590        1.82130       -6.66240
O         -6.82280        1.62870       -5.65480
C         -6.73970        1.99140       -8.02010
C         -8.06560        1.93900       -8.39940
C         -8.37360        2.11900       -9.74230
Cl       -10.00380        2.06540      -10.28580
C         -7.34060        2.34490      -10.65570
F         -7.64280        2.51260      -11.94820
C         -6.00760        2.40150      -10.27990
C         -5.70360        2.22240       -8.93880
C         -4.43190        2.22670       -8.22060
C         -3.21970        2.53580       -8.78080
C         -3.03840        2.84420      -10.14670
N         -2.81720        3.10090      -11.24320
C         -1.98480        2.62950       -8.10350
N         -0.94090        2.74300       -7.63780
C         -3.79280        1.41580       -4.51930
C         -4.83120        1.40240       -3.59950
C         -4.39510        1.12110       -2.31400
S         -5.23020        0.99260       -0.78300
C         -3.71840        0.64860       -0.01940
C         -3.21210        0.42570        1.26730
C         -3.83400        0.49880        2.53380
C         -3.02290        0.38170        3.70950
N         -3.72170        0.53600        4.82310
S         -5.26750        0.80140        4.42630
N         -5.10590        0.73000        2.81840
C         -1.65440        0.06090        3.56430
C         -0.68060       -0.25910        4.51990
C          0.46130       -0.66610        3.81650
N          0.24560       -0.56730        2.46630
C          1.06790       -1.36040        1.57720
C          0.43370       -2.72640        1.32390
C         -1.05150       -0.11180        2.28460
C         -1.80920        0.20800        1.12830
N         -1.47490        0.35780       -0.20360
C         -2.62630        0.61770       -0.89910
C         -3.00460        0.90280       -2.21200
S         -2.24020        1.06720       -3.74280
C         -0.19180        0.60860       -0.82260
C          0.24300       -0.53360       -1.73880
C          1.48600       -1.06740        4.67430
S          3.08430       -1.69140        4.52130
C          3.25530       -1.76840        6.27320
C          2.09870       -1.35240        6.91240
C          1.11240       -0.94190        6.02470
S         -0.51190       -0.33380        6.23810
C          4.39250       -2.31140        6.90520
C          5.63210       -2.56710        6.39720
C          6.49440       -3.58800        7.04620
O          6.34740       -4.08080        8.13920
C          7.52500       -3.91430        6.03140
C          8.49850       -4.89160        6.07600
C          9.34340       -5.03230        4.98080
Cl        10.57390       -6.23330        4.97090
C          9.18590       -4.18810        3.87850
F          9.99330       -4.34060        2.82280
C          8.21920       -3.19560        3.83040
C          7.37890       -3.06030        4.92290
C          6.30410       -2.11110        5.20100
C          6.15890       -0.88190        4.61270
C          6.88700       -0.46070        3.48260
N          7.43260       -0.08710        2.54440
C          5.32480        0.12710        5.13920
N          4.69730        0.98520        5.57180
H         -2.71440        1.68100       -6.27580
H         -8.83890        1.76230       -7.66900
H         -5.26150        2.57710      -11.03730
H         -5.85260        1.58910       -3.87430
H          1.24550       -0.84450        0.63850
H          2.03330       -1.48760        2.07320
H          1.07370       -3.31810        0.67530
H          0.30250       -3.26120        2.26190
H         -0.54170       -2.61520        0.85440
H         -0.29040        1.51800       -1.42610
H          0.54060        0.81610       -0.04170
H          0.25220       -1.48630       -1.21720
H         -0.43940       -0.61520       -2.58030
H          1.23760       -0.33250       -2.12660
H          2.00180       -1.33190        7.98230
H          4.23000       -2.66540        7.91890
H          8.59990       -5.52840        6.94020
H          8.14480       -2.57500        2.95200
