132

C          0.73810       -1.75110        6.16030
C          1.64560       -1.44820        7.14460
C          2.79870       -0.52570        7.08260
O          3.08780        0.29040        6.23310
C          3.58690       -0.79490        8.30700
C          4.79220       -0.23490        8.67840
C          5.36940       -0.64770        9.87280
Cl         6.87280        0.00400       10.39470
C          4.71620       -1.60580       10.65200
F          5.28080       -2.00480       11.79790
C          3.50250       -2.16700       10.28690
C          2.92940       -1.75300        9.09410
C          1.68710       -2.13330        8.42650
C          0.72610       -2.94620        8.96860
C         -0.52390       -3.25790        8.39150
N         -1.56720       -3.55100        8.01060
C          0.84210       -3.56780       10.23080
N          0.87460       -4.10770       11.24300
C          0.55430       -1.22990        4.86960
C          1.11060       -0.14320        4.19830
C          0.64160       -0.03490        2.90280
C          0.90990        0.86030        1.72190
C          2.40370        0.88930        1.46360
C          3.20710        1.70790        2.24870
C          4.57520        1.73080        2.06430
C          5.17750        0.93640        1.09630
C          6.66900        0.93680        0.92460
C          7.31370       -0.08200        1.86660
C          4.37190        0.10700        0.32910
C          3.00050        0.07710        0.51120
C          0.33770        2.26040        1.88730
C          0.78260        3.28990        1.06750
C          0.22910        4.55210        1.16440
C         -0.78650        4.81920        2.07380
C         -1.35790        6.20110        2.20600
C         -0.56450        7.01210        3.23260
C         -1.22890        3.78590        2.88820
C         -0.68000        2.52010        2.79410
C          0.08390        0.17610        0.64660
C         -0.65010       -0.91060        1.18330
C         -0.27380       -1.02930        2.55500
S         -0.59560       -2.10000        3.84280
C         -1.52360       -1.66820        0.40500
C         -1.62280       -1.34040       -0.92640
C         -2.46250       -2.01310       -1.99940
C         -2.17980       -3.50220       -1.98710
C         -2.90340       -4.33840       -1.14550
C         -2.62080       -5.68940       -1.08730
C         -1.60700       -6.24080       -1.86060
C         -1.33680       -7.71710       -1.82960
C         -2.22750       -8.44480       -2.83870
C         -0.88260       -5.39960       -2.69400
C         -1.15880       -4.04570       -2.75330
C         -3.94920       -1.72010       -1.87050
C         -4.84560       -2.42610       -2.66410
C         -6.19840       -2.15500       -2.60580
C         -6.69210       -1.17030       -1.75860
C         -8.15800       -0.84800       -1.72860
C         -8.49240        0.21390       -2.77830
C         -5.79050       -0.45960       -0.97910
C         -4.43370       -0.72560       -1.03430
C         -1.97790       -1.29170       -3.23170
C         -1.08060       -0.27700       -2.88270
C         -0.84730       -0.28930       -1.47470
C         -0.00960        0.49740       -0.68680
S         -0.49080        0.60380       -4.22000
C         -1.45660       -0.39540       -5.29930
C         -2.20200       -1.35080       -4.58770
C         -1.49620       -0.32360       -6.69540
C         -0.81410        0.48520       -7.57380
C          0.15040        1.52570       -7.20920
O          0.48990        1.87630       -6.09430
C          0.64630        2.08520       -8.48460
C          1.58140        3.08230       -8.67660
C          1.88860        3.43130       -9.98190
F          2.79130        4.39120      -10.21690
C          1.26650        2.79020      -11.05320
F          1.58280        3.14580      -12.30340
C          0.32600        1.78910      -10.85860
C          0.01360        1.43330       -9.55590
C         -0.91120        0.43250       -9.01880
C         -1.70470       -0.38870       -9.77690
C         -1.73600       -0.37580      -11.18810
N         -1.80970       -0.41840      -12.33260
C         -2.60090       -1.36080       -9.28410
N         -3.35100       -2.17300       -8.97200
H          0.05960       -2.56620        6.38460
H          5.27120        0.50170        8.05330
H          3.05510       -2.90300       10.93440
H          1.82950        0.50960        4.65610
H          2.75560        2.33670        3.00180
H          5.18470        2.37630        2.67980
H          6.92420        0.68600       -0.10690
H          7.06600        1.93000        1.14360
H          6.94460       -1.08230        1.65140
H          8.39490       -0.07740        1.74990
H          7.07360        0.15500        2.90060
H          4.82060       -0.52520       -0.42390
H          2.39650       -0.58180       -0.09580
H          1.57520        3.10570        0.35710
H          0.58850        5.34140        0.51990
H         -2.40080        6.14130        2.52370
H         -1.32290        6.71000        1.24070
H          0.47550        7.09710        2.92560
H         -0.98080        8.01180        3.33120
H         -0.59520        6.52520        4.20480
H         -2.01770        3.97060        3.60340
H         -1.04890        1.73320        3.43570
H         -2.08390       -2.48310        0.83640
H         -3.70130       -3.93110       -0.54140
H         -3.19500       -6.32550       -0.42900
H         -1.53390       -8.10780       -0.82920
H         -0.28920       -7.90740       -2.07110
H         -2.03910       -8.07630       -3.84460
H         -3.27690       -8.28020       -2.60510
H         -2.03040       -9.51390       -2.81770
H         -0.08800       -5.80710       -3.30270
H         -0.57510       -3.40980       -3.40340
H         -4.48030       -3.20110       -3.32200
H         -6.88190       -2.71720       -3.22560
H         -8.43550       -0.47670       -0.74020
H         -8.73950       -1.74930       -1.93160
H         -8.23560       -0.14300       -3.77310
H         -9.55380        0.44890       -2.75660
H         -7.93040        1.12540       -2.58680
H         -6.15210        0.31380       -0.31640
H         -3.75390       -0.15450       -0.41860
H          0.55420        1.30750       -1.12190
H         -2.85160       -2.04910       -5.08440
H         -2.17060       -1.04950       -7.13340
H          2.05960        3.57390       -7.84460
H         -0.12360        1.32650      -11.72160
