88

C          5.13500        1.45890        6.60800
C          4.48520        0.73860        7.57060
C          5.25920        0.13740        8.68420
O          6.39470        0.39410        9.00880
C          4.35780       -0.88810        9.26440
C          4.63020       -1.81950       10.24520
C          3.62600       -2.71140       10.60550
Cl         3.90270       -3.90050       11.81680
C          2.38280       -2.63870        9.97290
F          1.42740       -3.51110       10.31470
C          2.09640       -1.69770        8.99580
C          3.10010       -0.81290        8.63910
C          3.11480        0.29800        7.68960
C          2.00230        0.97120        7.24710
C          2.06620        2.22860        6.61120
N          2.07960        3.27150        6.13030
C          0.68070        0.53280        7.46190
N         -0.41190        0.20360        7.58510
C          4.75240        1.73410        5.28120
C          5.39540        2.64200        4.45240
C          4.89610        2.70480        3.15770
S          5.33060        3.72970        1.80620
C          4.10640        2.96440        0.86030
C          3.52780        3.06100       -0.41240
C          3.76540        3.97520       -1.46220
C          2.93440        3.92000       -2.62770
N          3.23140        4.86510       -3.50580
S          4.45360        5.74610       -2.91690
N          4.65310        4.95580       -1.51940
C          1.98450        2.88080       -2.73630
C          1.15530        2.51090       -3.80310
C          0.52950        1.31280       -3.43650
N          0.92560        0.94820       -2.17900
C          0.56690       -0.35860       -1.68310
C         -0.85450       -0.38230       -1.11980
C          1.80310        1.90740       -1.70780
C          2.50130        2.07170       -0.48290
N          2.44680        1.41460        0.73780
C          3.41160        1.96050        1.54560
C          3.84950        1.81000        2.86160
Se         3.41150        0.77010        4.33850
C          1.36020        0.72370        1.39770
C          0.41780        1.70860        2.08690
C         -0.28790        0.80500       -4.45030
C         -0.28790        1.65060       -5.57450
S          0.73350        3.05840       -5.38480
C         -1.07980        1.24050       -6.64230
C         -1.78410        0.06800       -6.42770
Se        -1.37930       -0.67630       -4.72930
C         -2.59020       -0.56070       -7.40210
C         -3.47270       -1.59160       -7.28190
C         -3.82310       -2.39590       -8.48400
O         -3.61630       -2.10040       -9.63900
C         -4.40820       -3.64320       -7.95510
C         -4.79280       -4.76600       -8.64700
C         -5.30530       -5.84170       -7.91450
C         -5.77120       -7.10290       -8.38220
C         -6.19240       -7.90580       -7.38100
S         -6.05270       -7.19000       -5.81250
C         -5.40320       -5.73800       -6.50590
C         -5.02440       -4.59910       -5.80450
C         -4.52780       -3.54460       -6.54430
C         -4.10100       -2.21140       -6.13660
C         -4.49640       -1.57000       -4.98750
C         -5.17350       -2.20150       -3.92660
N         -5.70030       -2.67510       -3.02290
C         -4.35480       -0.17980       -4.80080
N         -4.29320        0.95550       -4.63640
H          6.13380        1.78740        6.88190
H          5.59820       -1.85350       10.71910
H          1.11860       -1.69110        8.54170
H          6.19010        3.27420        4.80900
H          0.61380       -1.05240       -2.53400
H          1.31290       -0.68770       -0.95800
H         -1.57370       -0.21620       -1.92140
H         -1.06180       -1.34990       -0.67090
H         -1.00520        0.39560       -0.37550
H          0.80300        0.11340        0.69880
H          1.81240        0.06050        2.14780
H          0.94640        2.28240        2.84590
H         -0.39150        1.16700        2.56860
H         -0.00400        2.40150        1.36160
H         -1.17300        1.80310       -7.55500
H         -2.41820       -0.22980       -8.42300
H         -4.70420       -4.81210       -9.72130
H         -5.78350       -7.37880       -9.42110
H         -6.58780       -8.90010       -7.45650
H         -5.11190       -4.56270       -4.73090
