
  xtb     02012222453D
 energy: -180.660019847306 gnorm: 0.000537664012 xtb: 6.4.1 (unknown)
 92103  0     0  0            999 V2000
   -7.1109   -2.1787   -2.2005 C   0  0  0  0  0  0  0  0  0  0  0  0
   -6.8829   -3.4004   -2.7664 C   0  0  0  0  0  0  0  0  0  0  0  0
   -7.9441   -4.4368   -2.7155 C   0  0  0  0  0  0  0  0  0  0  0  0
   -9.1069   -4.2790   -2.4262 O   0  0  0  0  0  0  0  0  0  0  0  0
   -7.2520   -5.7080   -3.0367 C   0  0  0  0  0  0  0  0  0  0  0  0
   -7.7562   -6.9923   -3.0153 C   0  0  0  0  0  0  0  0  0  0  0  0
   -6.9014   -8.0421   -3.3318 C   0  0  0  0  0  0  0  0  0  0  0  0
   -7.4660   -9.6665   -3.3214 Cl  0  0  0  0  0  0  0  0  0  0  0  0
   -5.5712   -7.7695   -3.6599 C   0  0  0  0  0  0  0  0  0  0  0  0
   -4.7515   -8.7869   -3.9495 F   0  0  0  0  0  0  0  0  0  0  0  0
   -5.0599   -6.4813   -3.6961 C   0  0  0  0  0  0  0  0  0  0  0  0
   -5.9146   -5.4386   -3.3795 C   0  0  0  0  0  0  0  0  0  0  0  0
   -5.7086   -3.9918   -3.3658 C   0  0  0  0  0  0  0  0  0  0  0  0
   -4.7239   -3.3312   -4.0546 C   0  0  0  0  0  0  0  0  0  0  0  0
   -4.7442   -1.9437   -4.3072 C   0  0  0  0  0  0  0  0  0  0  0  0
   -4.7430   -0.8300   -4.5866 N   0  0  0  0  0  0  0  0  0  0  0  0
   -3.6251   -3.9686   -4.6637 C   0  0  0  0  0  0  0  0  0  0  0  0
   -2.6926   -4.4312   -5.1476 N   0  0  0  0  0  0  0  0  0  0  0  0
   -6.1921   -1.2098   -1.7543 C   0  0  0  0  0  0  0  0  0  0  0  0
   -6.4958    0.1072   -1.4420 C   0  0  0  0  0  0  0  0  0  0  0  0
   -5.3862    0.8253   -1.0195 C   0  0  0  0  0  0  0  0  0  0  0  0
   -5.1356    2.4926   -0.5606 S   0  0  0  0  0  0  0  0  0  0  0  0
   -3.4579    2.1504   -0.3096 C   0  0  0  0  0  0  0  0  0  0  0  0
   -2.2779    2.8232    0.0397 C   0  0  0  0  0  0  0  0  0  0  0  0
   -1.9468    4.1785    0.2560 C   0  0  0  0  0  0  0  0  0  0  0  0
   -2.6753    5.2957    0.2432 N   0  0  0  0  0  0  0  0  0  0  0  0
   -1.7984    6.2530    0.4107 N   0  0  0  0  0  0  0  0  0  0  0  0
   -2.1922    7.6298    0.4916 C   0  0  0  0  0  0  0  0  0  0  0  0
   -2.2980    8.0719    1.9480 C   0  0  0  0  0  0  0  0  0  0  0  0
   -0.5486    5.8860    0.5404 N   0  0  0  0  0  0  0  0  0  0  0  0
   -0.5863    4.5562    0.4491 C   0  0  0  0  0  0  0  0  0  0  0  0
    0.4095    3.5635    0.5765 C   0  0  0  0  0  0  0  0  0  0  0  0
    1.7719    3.5828    0.9044 C   0  0  0  0  0  0  0  0  0  0  0  0
    3.0314    4.7344    1.2048 S   0  0  0  0  0  0  0  0  0  0  0  0
    4.1289    3.4082    1.5271 C   0  0  0  0  0  0  0  0  0  0  0  0
    5.4599    3.3420    1.8846 C   0  0  0  0  0  0  0  0  0  0  0  0
    5.9145    2.0281    2.0378 C   0  0  0  0  0  0  0  0  0  0  0  0
    4.6376    0.8570    1.7203 S   0  0  0  0  0  0  0  0  0  0  0  0
    3.5289    2.1372    1.4021 C   0  0  0  0  0  0  0  0  0  0  0  0
    2.1858    2.2475    1.0420 C   0  0  0  0  0  0  0  0  0  0  0  0
    1.1369    1.3998    0.7870 N   0  0  0  0  0  0  0  0  0  0  0  0
    1.0992    0.0833    1.3934 C   0  0  0  0  0  0  0  0  0  0  0  0
    1.1839    0.1743    2.9167 C   0  0  0  0  0  0  0  0  0  0  0  0
    0.0479    2.1906    0.4702 C   0  0  0  0  0  0  0  0  0  0  0  0
   -1.2493    1.8414    0.0451 C   0  0  0  0  0  0  0  0  0  0  0  0
   -1.7687    0.6196   -0.3533 N   0  0  0  0  0  0  0  0  0  0  0  0
   -3.1132    0.8108   -0.5560 C   0  0  0  0  0  0  0  0  0  0  0  0
   -4.2098    0.0551   -0.9618 C   0  0  0  0  0  0  0  0  0  0  0  0
   -4.5001   -1.5773   -1.4251 S   0  0  0  0  0  0  0  0  0  0  0  0
   -1.0647   -0.3971   -1.1142 C   0  0  0  0  0  0  0  0  0  0  0  0
   -1.2464   -0.1942   -2.6184 C   0  0  0  0  0  0  0  0  0  0  0  0
    7.2330    1.7413    2.4102 C   0  0  0  0  0  0  0  0  0  0  0  0
    7.8661    0.5357    2.5938 C   0  0  0  0  0  0  0  0  0  0  0  0
    7.2646   -0.7837    2.3912 C   0  0  0  0  0  0  0  0  0  0  0  0
    6.1141   -1.0421    2.0830 O   0  0  0  0  0  0  0  0  0  0  0  0
    8.3402   -1.7651    2.6357 C   0  0  0  0  0  0  0  0  0  0  0  0
    8.2816   -3.1408    2.5483 C   0  0  0  0  0  0  0  0  0  0  0  0
    9.4504   -3.8335    2.8271 C   0  0  0  0  0  0  0  0  0  0  0  0
    9.4443   -5.1748    2.7546 F   0  0  0  0  0  0  0  0  0  0  0  0
   10.6284   -3.1914    3.1775 C   0  0  0  0  0  0  0  0  0  0  0  0
   10.6712   -1.8075    3.2623 C   0  0  0  0  0  0  0  0  0  0  0  0
    9.5185   -1.0850    2.9901 C   0  0  0  0  0  0  0  0  0  0  0  0
    9.2488    0.3535    2.9911 C   0  0  0  0  0  0  0  0  0  0  0  0
   10.1539    1.3242    3.3338 C   0  0  0  0  0  0  0  0  0  0  0  0
    9.9061    2.7126    3.3630 C   0  0  0  0  0  0  0  0  0  0  0  0
    9.7915    3.8546    3.4156 N   0  0  0  0  0  0  0  0  0  0  0  0
   11.4838    1.0631    3.7275 C   0  0  0  0  0  0  0  0  0  0  0  0
   12.5738    0.9232    4.0591 N   0  0  0  0  0  0  0  0  0  0  0  0
   -8.1542   -1.9566   -1.9964 H   0  0  0  0  0  0  0  0  0  0  0  0
   -8.7879   -7.1745   -2.7603 H   0  0  0  0  0  0  0  0  0  0  0  0
   -4.0241   -6.3338   -3.9559 H   0  0  0  0  0  0  0  0  0  0  0  0
   -7.4805    0.5197   -1.5632 H   0  0  0  0  0  0  0  0  0  0  0  0
   -1.4394    8.2244   -0.0303 H   0  0  0  0  0  0  0  0  0  0  0  0
   -3.1569    7.7175   -0.0109 H   0  0  0  0  0  0  0  0  0  0  0  0
   -3.0420    7.4748    2.4697 H   0  0  0  0  0  0  0  0  0  0  0  0
   -2.5906    9.1166    1.9962 H   0  0  0  0  0  0  0  0  0  0  0  0
   -1.3378    7.9517    2.4435 H   0  0  0  0  0  0  0  0  0  0  0  0
    6.0978    4.1939    2.0367 H   0  0  0  0  0  0  0  0  0  0  0  0
    1.9413   -0.5009    1.0103 H   0  0  0  0  0  0  0  0  0  0  0  0
    0.1629   -0.4050    1.1305 H   0  0  0  0  0  0  0  0  0  0  0  0
    2.1343    0.5962    3.2303 H   0  0  0  0  0  0  0  0  0  0  0  0
    0.3786    0.7967    3.3018 H   0  0  0  0  0  0  0  0  0  0  0  0
    1.0924   -0.8201    3.3438 H   0  0  0  0  0  0  0  0  0  0  0  0
   -0.0018   -0.3402   -0.8879 H   0  0  0  0  0  0  0  0  0  0  0  0
   -1.4498   -1.3785   -0.8197 H   0  0  0  0  0  0  0  0  0  0  0  0
   -0.6775   -0.9473   -3.1562 H   0  0  0  0  0  0  0  0  0  0  0  0
   -2.2891   -0.2809   -2.9114 H   0  0  0  0  0  0  0  0  0  0  0  0
   -0.8860    0.7898   -2.9099 H   0  0  0  0  0  0  0  0  0  0  0  0
    7.8283    2.6325    2.5674 H   0  0  0  0  0  0  0  0  0  0  0  0
    7.3725   -3.6523    2.2755 H   0  0  0  0  0  0  0  0  0  0  0  0
   11.5077   -3.7817    3.3818 H   0  0  0  0  0  0  0  0  0  0  0  0
   11.5936   -1.3218    3.5341 H   0  0  0  0  0  0  0  0  0  0  0  0
  1  2  2  0  0  0  0
  2  3  1  0  0  0  0
  3  4  2  0  0  0  0
  3  5  1  0  0  0  0
  5  6  2  0  0  0  0
  6  7  1  0  0  0  0
  7  8  1  0  0  0  0
  7  9  2  0  0  0  0
  9 10  1  0  0  0  0
  9 11  1  0  0  0  0
 11 12  2  0  0  0  0
 12 13  1  0  0  0  0
 13 14  2  0  0  0  0
 14 15  1  0  0  0  0
 15 16  3  0  0  0  0
 14 17  1  0  0  0  0
 17 18  3  0  0  0  0
  1 19  1  0  0  0  0
 19 20  2  0  0  0  0
 20 21  1  0  0  0  0
 21 22  1  0  0  0  0
 22 23  1  0  0  0  0
 23 24  1  0  0  0  0
 24 25  1  0  0  0  0
 25 26  2  0  0  0  0
 26 27  1  0  0  0  0
 27 28  1  0  0  0  0
 28 29  1  0  0  0  0
 27 30  1  0  0  0  0
 30 31  2  0  0  0  0
 31 32  1  0  0  0  0
 32 33  1  0  0  0  0
 33 34  1  0  0  0  0
 34 35  1  0  0  0  0
 35 36  1  0  0  0  0
 36 37  2  0  0  0  0
 37 38  1  0  0  0  0
 38 39  1  0  0  0  0
 39 40  1  0  0  0  0
 40 41  1  0  0  0  0
 41 42  1  0  0  0  0
 42 43  1  0  0  0  0
 41 44  1  0  0  0  0
 44 45  1  0  0  0  0
 45 46  1  0  0  0  0
 46 47  1  0  0  0  0
 47 48  1  0  0  0  0
 48 49  1  0  0  0  0
 46 50  1  0  0  0  0
 50 51  1  0  0  0  0
 37 52  1  0  0  0  0
 52 53  2  0  0  0  0
 53 54  1  0  0  0  0
 54 55  2  0  0  0  0
 54 56  1  0  0  0  0
 56 57  2  0  0  0  0
 57 58  1  0  0  0  0
 58 59  1  0  0  0  0
 58 60  2  0  0  0  0
 60 61  1  0  0  0  0
 61 62  2  0  0  0  0
 62 63  1  0  0  0  0
 63 64  2  0  0  0  0
 64 65  1  0  0  0  0
 65 66  3  0  0  0  0
 64 67  1  0  0  0  0
 67 68  3  0  0  0  0
 13  2  1  0  0  0  0
 49 19  1  0  0  0  0
 63 53  1  0  0  0  0
 12  5  1  0  0  0  0
 48 21  2  0  0  0  0
 62 56  1  0  0  0  0
 47 23  2  0  0  0  0
 45 24  2  0  0  0  0
 31 25  1  0  0  0  0
 44 32  2  0  0  0  0
 40 33  2  0  0  0  0
 39 35  2  0  0  0  0
  1 69  1  0  0  0  0
  6 70  1  0  0  0  0
 11 71  1  0  0  0  0
 20 72  1  0  0  0  0
 28 73  1  0  0  0  0
 28 74  1  0  0  0  0
 29 75  1  0  0  0  0
 29 76  1  0  0  0  0
 29 77  1  0  0  0  0
 36 78  1  0  0  0  0
 42 79  1  0  0  0  0
 42 80  1  0  0  0  0
 43 81  1  0  0  0  0
 43 82  1  0  0  0  0
 43 83  1  0  0  0  0
 50 84  1  0  0  0  0
 50 85  1  0  0  0  0
 51 86  1  0  0  0  0
 51 87  1  0  0  0  0
 51 88  1  0  0  0  0
 52 89  1  0  0  0  0
 57 90  1  0  0  0  0
 60 91  1  0  0  0  0
 61 92  1  0  0  0  0
M  END
