
  xtb     02012216493D
 energy: -200.562516518569 gnorm: 0.000978511658 xtb: 6.4.1 (unknown)
110124  0     0  0            999 V2000
    6.5560   -3.6725   -5.4955 C   0  0  0  0  0  0  0  0  0  0  0  0
    7.3639   -2.5630   -5.6176 C   0  0  0  0  0  0  0  0  0  0  0  0
    7.1375   -1.2578   -5.0003 C   0  0  0  0  0  0  0  0  0  0  0  0
    6.2165   -0.9156   -4.2788 O   0  0  0  0  0  0  0  0  0  0  0  0
    8.2622   -0.4010   -5.4307 C   0  0  0  0  0  0  0  0  0  0  0  0
    8.5041    0.9184   -5.1099 C   0  0  0  0  0  0  0  0  0  0  0  0
    9.6382    1.5255   -5.6363 C   0  0  0  0  0  0  0  0  0  0  0  0
   10.0040    3.1670   -5.2734 Cl  0  0  0  0  0  0  0  0  0  0  0  0
   10.4846    0.7884   -6.4664 C   0  0  0  0  0  0  0  0  0  0  0  0
   11.5740    1.3793   -6.9723 F   0  0  0  0  0  0  0  0  0  0  0  0
   10.2458   -0.5386   -6.7919 C   0  0  0  0  0  0  0  0  0  0  0  0
    9.1165   -1.1431   -6.2635 C   0  0  0  0  0  0  0  0  0  0  0  0
    8.5839   -2.4999   -6.3953 C   0  0  0  0  0  0  0  0  0  0  0  0
    9.1681   -3.5039   -7.1260 C   0  0  0  0  0  0  0  0  0  0  0  0
    8.6862   -4.8229   -7.2516 C   0  0  0  0  0  0  0  0  0  0  0  0
    8.3610   -5.9142   -7.4071 N   0  0  0  0  0  0  0  0  0  0  0  0
   10.3624   -3.3509   -7.8616 C   0  0  0  0  0  0  0  0  0  0  0  0
   11.3254   -3.2934   -8.4836 N   0  0  0  0  0  0  0  0  0  0  0  0
    5.3709   -3.8686   -4.7871 C   0  0  0  0  0  0  0  0  0  0  0  0
    4.6764   -5.0948   -4.7734 C   0  0  0  0  0  0  0  0  0  0  0  0
    5.1160   -6.3531   -5.4467 C   0  0  0  0  0  0  0  0  0  0  0  0
    6.1281   -7.1065   -4.5787 C   0  0  0  0  0  0  0  0  0  0  0  0
    3.5338   -5.0208   -3.9917 C   0  0  0  0  0  0  0  0  0  0  0  0
    2.2865   -6.1944   -3.6051 S   0  0  0  0  0  0  0  0  0  0  0  0
    1.4900   -4.9875   -2.6577 C   0  0  0  0  0  0  0  0  0  0  0  0
    0.3269   -4.8366   -1.8938 C   0  0  0  0  0  0  0  0  0  0  0  0
   -0.7458   -5.7365   -1.6842 C   0  0  0  0  0  0  0  0  0  0  0  0
   -1.8924   -5.2726   -0.9527 C   0  0  0  0  0  0  0  0  0  0  0  0
   -2.8742   -6.1459   -0.8432 N   0  0  0  0  0  0  0  0  0  0  0  0
   -2.4007   -7.6329   -1.6644 Se  0  0  0  0  0  2  0  0  0  0  0  0
   -0.8356   -6.9716   -2.1373 N   0  0  0  0  0  0  0  0  0  0  0  0
   -1.8548   -3.9713   -0.3965 C   0  0  0  0  0  0  0  0  0  0  0  0
   -2.7873   -3.3129    0.4148 C   0  0  0  0  0  0  0  0  0  0  0  0
   -4.3564   -3.5831    1.0864 S   0  0  0  0  0  0  0  0  0  0  0  0
   -4.2609   -2.0077    1.8532 C   0  0  0  0  0  0  0  0  0  0  0  0
   -5.1505   -1.3071    2.6580 C   0  0  0  0  0  0  0  0  0  0  0  0
   -6.4987   -1.8382    3.0209 C   0  0  0  0  0  0  0  0  0  0  0  0
   -7.5628   -1.3389    2.0396 C   0  0  0  0  0  0  0  0  0  0  0  0
   -4.6385   -0.0477    3.0110 C   0  0  0  0  0  0  0  0  0  0  0  0
   -3.0277    0.2270    2.3460 S   0  0  0  0  0  0  0  0  0  0  0  0
   -3.0615   -1.3244    1.5935 C   0  0  0  0  0  0  0  0  0  0  0  0
   -2.2233   -2.0812    0.7680 C   0  0  0  0  0  0  0  0  0  0  0  0
   -0.9892   -1.9493    0.1909 N   0  0  0  0  0  0  0  0  0  0  0  0
   -0.7390   -3.0949   -0.5443 C   0  0  0  0  0  0  0  0  0  0  0  0
    0.3306   -3.5015   -1.3875 C   0  0  0  0  0  0  0  0  0  0  0  0
    1.4602   -2.8636   -1.8630 N   0  0  0  0  0  0  0  0  0  0  0  0
    2.1555   -3.7548   -2.6348 C   0  0  0  0  0  0  0  0  0  0  0  0
    3.3230   -3.7609   -3.4002 C   0  0  0  0  0  0  0  0  0  0  0  0
    4.5610   -2.6376   -3.8124 S   0  0  0  0  0  0  0  0  0  0  0  0
    1.7956   -1.4587   -1.9297 C   0  0  0  0  0  0  0  0  0  0  0  0
    0.7636   -0.6771   -2.7387 C   0  0  0  0  0  0  0  0  0  0  0  0
   -0.0867   -0.9355    0.6918 C   0  0  0  0  0  0  0  0  0  0  0  0
    1.0146   -1.5496    1.5524 C   0  0  0  0  0  0  0  0  0  0  0  0
   -5.3565    0.8736    3.7831 C   0  0  0  0  0  0  0  0  0  0  0  0
   -5.0503    2.1514    4.1764 C   0  0  0  0  0  0  0  0  0  0  0  0
   -3.8171    2.8816    3.8714 C   0  0  0  0  0  0  0  0  0  0  0  0
   -2.8428    2.4710    3.2615 O   0  0  0  0  0  0  0  0  0  0  0  0
   -3.9745    4.2248    4.4524 C   0  0  0  0  0  0  0  0  0  0  0  0
   -3.0587    5.2737    4.4028 C   0  0  0  0  0  0  0  0  0  0  0  0
   -3.4869    6.4199    5.0284 C   0  0  0  0  0  0  0  0  0  0  0  0
   -4.7343    6.5151    5.6595 C   0  0  0  0  0  0  0  0  0  0  0  0
   -5.6434    5.4857    5.7226 C   0  0  0  0  0  0  0  0  0  0  0  0
   -5.2288    4.3094    5.0904 C   0  0  0  0  0  0  0  0  0  0  0  0
   -5.9123    3.0242    4.9497 C   0  0  0  0  0  0  0  0  0  0  0  0
   -7.1442    2.7225    5.4731 C   0  0  0  0  0  0  0  0  0  0  0  0
   -7.9387    3.6189    6.2183 C   0  0  0  0  0  0  0  0  0  0  0  0
   -8.6427    4.2873    6.8318 N   0  0  0  0  0  0  0  0  0  0  0  0
   -7.8100    1.4844    5.3594 C   0  0  0  0  0  0  0  0  0  0  0  0
   -8.4187    0.5102    5.3207 N   0  0  0  0  0  0  0  0  0  0  0  0
   -4.5088    7.9495    6.0675 C   0  0  0  0  0  0  0  0  0  0  0  0
   -5.2307    9.0272    5.2307 C   0  0  0  0  0  0  0  0  0  0  0  0
   -4.4662   10.2945    5.5385 C   0  0  0  0  0  0  0  0  0  0  0  0
   -3.2824   10.2055    4.9457 C   0  0  0  0  0  0  0  0  0  0  0  0
   -3.2272    8.8769    4.2264 C   0  0  0  0  0  0  0  0  0  0  0  0
   -4.7000    8.7353    3.8211 C   0  0  0  0  0  0  0  0  0  0  0  0
   -3.1163    7.8429    5.3668 C   0  0  0  0  0  0  0  0  0  0  0  0
    6.8825   -4.5517   -6.0339 H   0  0  0  0  0  0  0  0  0  0  0  0
    7.8300    1.4610   -4.4667 H   0  0  0  0  0  0  0  0  0  0  0  0
   10.9418   -1.0473   -7.4385 H   0  0  0  0  0  0  0  0  0  0  0  0
    4.2376   -6.9837   -5.5973 H   0  0  0  0  0  0  0  0  0  0  0  0
    5.5594   -6.1449   -6.4213 H   0  0  0  0  0  0  0  0  0  0  0  0
    6.4214   -8.0280   -5.0729 H   0  0  0  0  0  0  0  0  0  0  0  0
    5.6907   -7.3503   -3.6134 H   0  0  0  0  0  0  0  0  0  0  0  0
    7.0193   -6.5051   -4.4157 H   0  0  0  0  0  0  0  0  0  0  0  0
   -6.4578   -2.9283    2.9758 H   0  0  0  0  0  0  0  0  0  0  0  0
   -6.7762   -1.5482    4.0352 H   0  0  0  0  0  0  0  0  0  0  0  0
   -7.3223   -1.6560    1.0275 H   0  0  0  0  0  0  0  0  0  0  0  0
   -7.6256   -0.2534    2.0585 H   0  0  0  0  0  0  0  0  0  0  0  0
   -8.5329   -1.7442    2.3122 H   0  0  0  0  0  0  0  0  0  0  0  0
    1.9214   -1.0473   -0.9286 H   0  0  0  0  0  0  0  0  0  0  0  0
    2.7658   -1.3939   -2.4279 H   0  0  0  0  0  0  0  0  0  0  0  0
    1.0288    0.3764   -2.7561 H   0  0  0  0  0  0  0  0  0  0  0  0
    0.7412   -1.0436   -3.7624 H   0  0  0  0  0  0  0  0  0  0  0  0
   -0.2338   -0.7841   -2.3183 H   0  0  0  0  0  0  0  0  0  0  0  0
    0.3224   -0.3433   -0.1260 H   0  0  0  0  0  0  0  0  0  0  0  0
   -0.6887   -0.2614    1.3057 H   0  0  0  0  0  0  0  0  0  0  0  0
    1.6765   -0.7693    1.9178 H   0  0  0  0  0  0  0  0  0  0  0  0
    1.5995   -2.2751    0.9912 H   0  0  0  0  0  0  0  0  0  0  0  0
    0.5757   -2.0579    2.4079 H   0  0  0  0  0  0  0  0  0  0  0  0
   -6.3224    0.5016    4.0957 H   0  0  0  0  0  0  0  0  0  0  0  0
   -2.1073    5.1552    3.9081 H   0  0  0  0  0  0  0  0  0  0  0  0
   -6.5951    5.5761    6.2183 H   0  0  0  0  0  0  0  0  0  0  0  0
   -4.5413    8.1494    7.1367 H   0  0  0  0  0  0  0  0  0  0  0  0
   -6.3085    9.0607    5.3640 H   0  0  0  0  0  0  0  0  0  0  0  0
   -4.8315   11.0745    6.1802 H   0  0  0  0  0  0  0  0  0  0  0  0
   -2.4612   10.8963    4.9938 H   0  0  0  0  0  0  0  0  0  0  0  0
   -2.4797    8.7751    3.4441 H   0  0  0  0  0  0  0  0  0  0  0  0
   -4.9635    7.7493    3.4427 H   0  0  0  0  0  0  0  0  0  0  0  0
   -5.0038    9.4943    3.1020 H   0  0  0  0  0  0  0  0  0  0  0  0
   -2.2193    7.9687    5.9704 H   0  0  0  0  0  0  0  0  0  0  0  0
  1  2  2  0  0  0  0
  2  3  1  0  0  0  0
  3  4  2  0  0  0  0
  3  5  1  0  0  0  0
  5  6  2  0  0  0  0
  6  7  1  0  0  0  0
  7  8  1  0  0  0  0
  7  9  2  0  0  0  0
  9 10  1  0  0  0  0
  9 11  1  0  0  0  0
 11 12  2  0  0  0  0
 12 13  1  0  0  0  0
 13 14  2  0  0  0  0
 14 15  1  0  0  0  0
 15 16  3  0  0  0  0
 14 17  1  0  0  0  0
 17 18  3  0  0  0  0
  1 19  1  0  0  0  0
 19 20  2  0  0  0  0
 20 21  1  0  0  0  0
 21 22  1  0  0  0  0
 20 23  1  0  0  0  0
 23 24  1  0  0  0  0
 24 25  1  0  0  0  0
 25 26  1  0  0  0  0
 26 27  1  0  0  0  0
 27 28  1  0  0  0  0
 28 29  2  0  0  0  0
 29 30  1  0  0  0  0
 30 31  1  0  0  0  0
 28 32  1  0  0  0  0
 32 33  1  0  0  0  0
 33 34  1  0  0  0  0
 34 35  1  0  0  0  0
 35 36  1  0  0  0  0
 36 37  1  0  0  0  0
 37 38  1  0  0  0  0
 36 39  2  0  0  0  0
 39 40  1  0  0  0  0
 40 41  1  0  0  0  0
 41 42  1  0  0  0  0
 42 43  1  0  0  0  0
 43 44  1  0  0  0  0
 44 45  1  0  0  0  0
 45 46  1  0  0  0  0
 46 47  1  0  0  0  0
 47 48  1  0  0  0  0
 48 49  1  0  0  0  0
 46 50  1  0  0  0  0
 50 51  1  0  0  0  0
 43 52  1  0  0  0  0
 52 53  1  0  0  0  0
 39 54  1  0  0  0  0
 54 55  2  0  0  0  0
 55 56  1  0  0  0  0
 56 57  2  0  0  0  0
 56 58  1  0  0  0  0
 58 59  2  0  0  0  0
 59 60  1  0  0  0  0
 60 61  2  0  0  0  0
 61 62  1  0  0  0  0
 62 63  2  0  0  0  0
 63 64  1  0  0  0  0
 64 65  2  0  0  0  0
 65 66  1  0  0  0  0
 66 67  3  0  0  0  0
 65 68  1  0  0  0  0
 68 69  3  0  0  0  0
 61 70  1  0  0  0  0
 70 71  1  0  0  0  0
 71 72  1  0  0  0  0
 72 73  2  0  0  0  0
 73 74  1  0  0  0  0
 74 75  1  0  0  0  0
 74 76  1  0  0  0  0
 13  2  1  0  0  0  0
 49 19  1  0  0  0  0
 64 55  1  0  0  0  0
 76 70  1  0  0  0  0
 12  5  1  0  0  0  0
 48 23  2  0  0  0  0
 63 58  1  0  0  0  0
 75 71  1  0  0  0  0
 47 25  2  0  0  0  0
 76 60  1  0  0  0  0
 45 26  2  0  0  0  0
 31 27  2  0  0  0  0
 44 32  2  0  0  0  0
 42 33  2  0  0  0  0
 41 35  2  0  0  0  0
  1 77  1  0  0  0  0
  6 78  1  0  0  0  0
 11 79  1  0  0  0  0
 21 80  1  0  0  0  0
 21 81  1  0  0  0  0
 22 82  1  0  0  0  0
 22 83  1  0  0  0  0
 22 84  1  0  0  0  0
 37 85  1  0  0  0  0
 37 86  1  0  0  0  0
 38 87  1  0  0  0  0
 38 88  1  0  0  0  0
 38 89  1  0  0  0  0
 50 90  1  0  0  0  0
 50 91  1  0  0  0  0
 51 92  1  0  0  0  0
 51 93  1  0  0  0  0
 51 94  1  0  0  0  0
 52 95  1  0  0  0  0
 52 96  1  0  0  0  0
 53 97  1  0  0  0  0
 53 98  1  0  0  0  0
 53 99  1  0  0  0  0
 54100  1  0  0  0  0
 59101  1  0  0  0  0
 62102  1  0  0  0  0
 70103  1  0  0  0  0
 71104  1  0  0  0  0
 72105  1  0  0  0  0
 73106  1  0  0  0  0
 74107  1  0  0  0  0
 75108  1  0  0  0  0
 75109  1  0  0  0  0
 76110  1  0  0  0  0
M  END
