
  xtb     02012218153D
 energy: -178.239246516083 gnorm: 0.000512591746 xtb: 6.4.1 (unknown)
 88 99  0     0  0            999 V2000
   -1.2486    2.5428    5.8209 C   0  0  0  0  0  0  0  0  0  0  0  0
   -1.7434    2.2624    7.0635 C   0  0  0  0  0  0  0  0  0  0  0  0
   -2.2702    3.3754    7.8940 C   0  0  0  0  0  0  0  0  0  0  0  0
   -2.4625    4.5164    7.5439 O   0  0  0  0  0  0  0  0  0  0  0  0
   -2.4596    2.7956    9.2439 C   0  0  0  0  0  0  0  0  0  0  0  0
   -2.8358    3.4314   10.4092 C   0  0  0  0  0  0  0  0  0  0  0  0
   -2.9247    2.6768   11.5734 C   0  0  0  0  0  0  0  0  0  0  0  0
   -3.3853    3.4080   13.0601 Cl  0  0  0  0  0  0  0  0  0  0  0  0
   -2.6341    1.3112   11.5291 C   0  0  0  0  0  0  0  0  0  0  0  0
   -2.7085    0.5942   12.6562 F   0  0  0  0  0  0  0  0  0  0  0  0
   -2.2667    0.6627   10.3599 C   0  0  0  0  0  0  0  0  0  0  0  0
   -2.1802    1.4178    9.2019 C   0  0  0  0  0  0  0  0  0  0  0  0
   -1.8581    1.0414    7.8256 C   0  0  0  0  0  0  0  0  0  0  0  0
   -1.9044   -0.2363    7.3271 C   0  0  0  0  0  0  0  0  0  0  0  0
   -2.0850   -1.3853    8.1235 C   0  0  0  0  0  0  0  0  0  0  0  0
   -2.2042   -2.3547    8.7262 N   0  0  0  0  0  0  0  0  0  0  0  0
   -1.8685   -0.5442    5.9532 C   0  0  0  0  0  0  0  0  0  0  0  0
   -1.8891   -0.8455    4.8458 N   0  0  0  0  0  0  0  0  0  0  0  0
   -0.4088    1.7896    4.9756 C   0  0  0  0  0  0  0  0  0  0  0  0
    0.5909    0.8599    5.2553 C   0  0  0  0  0  0  0  0  0  0  0  0
    1.0873    0.5302    6.6254 C   0  0  0  0  0  0  0  0  0  0  0  0
    2.6013    0.7024    6.7476 C   0  0  0  0  0  0  0  0  0  0  0  0
    1.1527    0.3556    4.0759 C   0  0  0  0  0  0  0  0  0  0  0  0
    0.5980    0.8851    2.9009 C   0  0  0  0  0  0  0  0  0  0  0  0
   -0.5881    2.0797    3.2462 S   0  0  0  0  0  0  0  0  0  0  0  0
    1.1365    0.2928    1.7571 C   0  0  0  0  0  0  0  0  0  0  0  0
    2.1100   -0.6636    2.0663 C   0  0  0  0  0  0  0  0  0  0  0  0
    2.3695   -0.8630    3.7623 S   0  0  0  0  0  0  0  0  0  0  0  0
    2.5941   -1.1640    0.8487 C   0  0  0  0  0  0  0  0  0  0  0  0
    3.6552   -2.0496    0.5545 C   0  0  0  0  0  0  0  0  0  0  0  0
    4.4671   -2.6727    1.3937 N   0  0  0  0  0  0  0  0  0  0  0  0
    5.5575   -3.5030    0.5330 S   0  0  0  0  0  0  0  0  0  0  0  0
    5.0342   -3.1021   -0.9449 N   0  0  0  0  0  0  0  0  0  0  0  0
    3.9859   -2.3047   -0.8182 C   0  0  0  0  0  0  0  0  0  0  0  0
    3.1550   -1.7739   -1.8312 C   0  0  0  0  0  0  0  0  0  0  0  0
    3.1091   -2.0153   -3.2094 C   0  0  0  0  0  0  0  0  0  0  0  0
    3.9885   -2.9003   -4.4082 S   0  0  0  0  0  0  0  0  0  0  0  0
    2.7765   -2.4422   -5.5870 C   0  0  0  0  0  0  0  0  0  0  0  0
    2.6075   -2.7235   -6.9275 C   0  0  0  0  0  0  0  0  0  0  0  0
    1.4515   -2.1455   -7.4606 C   0  0  0  0  0  0  0  0  0  0  0  0
    0.5696   -1.2244   -6.2480 S   0  0  0  0  0  0  0  0  0  0  0  0
    1.7494   -1.6312   -5.0584 C   0  0  0  0  0  0  0  0  0  0  0  0
    1.9570   -1.3827   -3.7000 C   0  0  0  0  0  0  0  0  0  0  0  0
    1.3122   -0.7368   -2.6781 N   0  0  0  0  0  0  0  0  0  0  0  0
   -0.0499   -0.2818   -2.8539 C   0  0  0  0  0  0  0  0  0  0  0  0
   -0.1253    1.0306   -3.6347 C   0  0  0  0  0  0  0  0  0  0  0  0
    2.0371   -0.9429   -1.5228 C   0  0  0  0  0  0  0  0  0  0  0  0
    1.8477   -0.5234   -0.1818 C   0  0  0  0  0  0  0  0  0  0  0  0
    0.9784    0.3851    0.3983 N   0  0  0  0  0  0  0  0  0  0  0  0
    0.4462    1.6150   -0.1482 C   0  0  0  0  0  0  0  0  0  0  0  0
    1.4091    2.7791    0.0849 C   0  0  0  0  0  0  0  0  0  0  0  0
    1.0816   -2.3234   -8.7988 C   0  0  0  0  0  0  0  0  0  0  0  0
   -0.0047   -1.8551   -9.4975 C   0  0  0  0  0  0  0  0  0  0  0  0
   -1.0675   -0.9954   -8.9522 C   0  0  0  0  0  0  0  0  0  0  0  0
   -1.1571   -0.5581   -7.8186 O   0  0  0  0  0  0  0  0  0  0  0  0
   -1.9967   -0.7735  -10.0633 C   0  0  0  0  0  0  0  0  0  0  0  0
   -1.5218   -1.4628  -11.2255 C   0  0  0  0  0  0  0  0  0  0  0  0
   -2.3322   -1.3107  -12.3060 C   0  0  0  0  0  0  0  0  0  0  0  0
   -3.6959   -0.3193  -11.9302 S   0  0  0  0  0  0  0  0  0  0  0  0
   -3.1635   -0.1053  -10.2783 C   0  0  0  0  0  0  0  0  0  0  0  0
   -4.0543    0.8282   -9.1797 Cl  0  0  0  0  0  0  0  0  0  0  0  0
   -0.2801   -2.1385  -10.8943 C   0  0  0  0  0  0  0  0  0  0  0  0
    0.4468   -2.8904  -11.7816 C   0  0  0  0  0  0  0  0  0  0  0  0
    0.0178   -3.0640  -13.1138 C   0  0  0  0  0  0  0  0  0  0  0  0
   -0.3157   -3.2169  -14.2011 N   0  0  0  0  0  0  0  0  0  0  0  0
    1.6559   -3.5593  -11.5120 C   0  0  0  0  0  0  0  0  0  0  0  0
    2.6432   -4.1275  -11.3619 N   0  0  0  0  0  0  0  0  0  0  0  0
   -1.5359    3.5198    5.4402 H   0  0  0  0  0  0  0  0  0  0  0  0
   -3.0550    4.4872   10.4136 H   0  0  0  0  0  0  0  0  0  0  0  0
   -2.0543   -0.3936   10.3915 H   0  0  0  0  0  0  0  0  0  0  0  0
    0.5995    1.1789    7.3545 H   0  0  0  0  0  0  0  0  0  0  0  0
    0.8249   -0.5067    6.8611 H   0  0  0  0  0  0  0  0  0  0  0  0
    3.1303    0.0056    6.1043 H   0  0  0  0  0  0  0  0  0  0  0  0
    2.8892    1.7158    6.4767 H   0  0  0  0  0  0  0  0  0  0  0  0
    2.9060    0.5195    7.7748 H   0  0  0  0  0  0  0  0  0  0  0  0
    3.2758   -3.3247   -7.5170 H   0  0  0  0  0  0  0  0  0  0  0  0
   -0.5845   -1.0510   -3.4222 H   0  0  0  0  0  0  0  0  0  0  0  0
   -0.5254   -0.2072   -1.8750 H   0  0  0  0  0  0  0  0  0  0  0  0
    0.1395    0.8628   -4.6747 H   0  0  0  0  0  0  0  0  0  0  0  0
   -1.1395    1.4182   -3.6021 H   0  0  0  0  0  0  0  0  0  0  0  0
    0.5536    1.7796   -3.2321 H   0  0  0  0  0  0  0  0  0  0  0  0
   -0.5070    1.8156    0.3501 H   0  0  0  0  0  0  0  0  0  0  0  0
    0.2765    1.5092   -1.2122 H   0  0  0  0  0  0  0  0  0  0  0  0
    1.5718    2.9417    1.1469 H   0  0  0  0  0  0  0  0  0  0  0  0
    2.3684    2.5756   -0.3869 H   0  0  0  0  0  0  0  0  0  0  0  0
    0.9940    3.6872   -0.3431 H   0  0  0  0  0  0  0  0  0  0  0  0
    1.7809   -2.9400   -9.3511 H   0  0  0  0  0  0  0  0  0  0  0  0
   -2.2306   -1.7071  -13.2966 H   0  0  0  0  0  0  0  0  0  0  0  0
  1  2  2  0  0  0  0
  2  3  1  0  0  0  0
  3  4  2  0  0  0  0
  3  5  1  0  0  0  0
  5  6  2  0  0  0  0
  6  7  1  0  0  0  0
  7  8  1  0  0  0  0
  7  9  2  0  0  0  0
  9 10  1  0  0  0  0
  9 11  1  0  0  0  0
 11 12  2  0  0  0  0
 12 13  1  0  0  0  0
 13 14  2  0  0  0  0
 14 15  1  0  0  0  0
 15 16  3  0  0  0  0
 14 17  1  0  0  0  0
 17 18  3  0  0  0  0
  1 19  1  0  0  0  0
 19 20  2  0  0  0  0
 20 21  1  0  0  0  0
 21 22  1  0  0  0  0
 20 23  1  0  0  0  0
 23 24  2  0  0  0  0
 24 25  1  0  0  0  0
 24 26  1  0  0  0  0
 26 27  2  0  0  0  0
 27 28  1  0  0  0  0
 27 29  1  0  0  0  0
 29 30  1  0  0  0  0
 30 31  2  0  0  0  0
 31 32  1  0  0  0  0
 32 33  1  0  0  0  0
 33 34  2  0  0  0  0
 34 35  1  0  0  0  0
 35 36  1  0  0  0  0
 36 37  1  0  0  0  0
 37 38  1  0  0  0  0
 38 39  1  0  0  0  0
 39 40  2  0  0  0  0
 40 41  1  0  0  0  0
 41 42  1  0  0  0  0
 42 43  1  0  0  0  0
 43 44  1  0  0  0  0
 44 45  1  0  0  0  0
 45 46  1  0  0  0  0
 44 47  1  0  0  0  0
 47 48  1  0  0  0  0
 48 49  1  0  0  0  0
 49 50  1  0  0  0  0
 50 51  1  0  0  0  0
 40 52  1  0  0  0  0
 52 53  2  0  0  0  0
 53 54  1  0  0  0  0
 54 55  2  0  0  0  0
 54 56  1  0  0  0  0
 56 57  1  0  0  0  0
 57 58  2  0  0  0  0
 58 59  1  0  0  0  0
 59 60  1  0  0  0  0
 60 61  1  0  0  0  0
 57 62  1  0  0  0  0
 62 63  2  0  0  0  0
 63 64  1  0  0  0  0
 64 65  3  0  0  0  0
 63 66  1  0  0  0  0
 66 67  3  0  0  0  0
 13  2  1  0  0  0  0
 25 19  1  0  0  0  0
 49 26  1  0  0  0  0
 62 53  1  0  0  0  0
 12  5  1  0  0  0  0
 28 23  1  0  0  0  0
 48 29  2  0  0  0  0
 60 56  2  0  0  0  0
 34 30  1  0  0  0  0
 47 35  2  0  0  0  0
 43 36  2  0  0  0  0
 42 38  2  0  0  0  0
  1 68  1  0  0  0  0
  6 69  1  0  0  0  0
 11 70  1  0  0  0  0
 21 71  1  0  0  0  0
 21 72  1  0  0  0  0
 22 73  1  0  0  0  0
 22 74  1  0  0  0  0
 22 75  1  0  0  0  0
 39 76  1  0  0  0  0
 45 77  1  0  0  0  0
 45 78  1  0  0  0  0
 46 79  1  0  0  0  0
 46 80  1  0  0  0  0
 46 81  1  0  0  0  0
 50 82  1  0  0  0  0
 50 83  1  0  0  0  0
 51 84  1  0  0  0  0
 51 85  1  0  0  0  0
 51 86  1  0  0  0  0
 52 87  1  0  0  0  0
 58 88  1  0  0  0  0
M  END
