
  xtb     02022202353D
 energy: -200.476349820372 gnorm: 0.000512039784 xtb: 6.4.1 (unknown)
110124  0     0  0            999 V2000
    0.6477   -0.6353    9.1597 C   0  0  0  0  0  0  0  0  0  0  0  0
   -0.3359    0.2821    9.4107 C   0  0  0  0  0  0  0  0  0  0  0  0
   -0.2460    1.1434   10.6123 C   0  0  0  0  0  0  0  0  0  0  0  0
    0.4949    1.0064   11.5588 O   0  0  0  0  0  0  0  0  0  0  0  0
   -1.2145    2.2410   10.3696 C   0  0  0  0  0  0  0  0  0  0  0  0
   -1.4485    3.3687   11.1292 C   0  0  0  0  0  0  0  0  0  0  0  0
   -2.3980    4.2806   10.6816 C   0  0  0  0  0  0  0  0  0  0  0  0
   -2.7342    5.7085   11.5805 Cl  0  0  0  0  0  0  0  0  0  0  0  0
   -3.0822    4.0313    9.4900 C   0  0  0  0  0  0  0  0  0  0  0  0
   -3.9852    4.9213    9.0595 F   0  0  0  0  0  0  0  0  0  0  0  0
   -2.8625    2.8946    8.7273 C   0  0  0  0  0  0  0  0  0  0  0  0
   -1.9143    1.9905    9.1754 C   0  0  0  0  0  0  0  0  0  0  0  0
   -1.4834    0.7003    8.6418 C   0  0  0  0  0  0  0  0  0  0  0  0
   -2.2100   -0.0787    7.7763 C   0  0  0  0  0  0  0  0  0  0  0  0
   -1.9450   -1.4480    7.5661 C   0  0  0  0  0  0  0  0  0  0  0  0
   -1.7958   -2.5764    7.4142 N   0  0  0  0  0  0  0  0  0  0  0  0
   -3.3356    0.3726    7.0621 C   0  0  0  0  0  0  0  0  0  0  0  0
   -4.2293    0.6996    6.4194 N   0  0  0  0  0  0  0  0  0  0  0  0
    1.0213   -1.2188    7.9368 C   0  0  0  0  0  0  0  0  0  0  0  0
    1.8576   -2.3188    7.7568 C   0  0  0  0  0  0  0  0  0  0  0  0
    2.4826   -3.1186    8.8512 C   0  0  0  0  0  0  0  0  0  0  0  0
    3.8799   -2.5793    9.1679 C   0  0  0  0  0  0  0  0  0  0  0  0
    2.0660   -2.5983    6.4063 C   0  0  0  0  0  0  0  0  0  0  0  0
    3.0351   -3.9584    5.5112 Se  0  0  0  0  0  2  0  0  0  0  0  0
    2.4049   -3.1499    3.9623 C   0  0  0  0  0  0  0  0  0  0  0  0
    2.4750   -3.3257    2.5785 C   0  0  0  0  0  0  0  0  0  0  0  0
    3.1929   -4.2944    1.8479 C   0  0  0  0  0  0  0  0  0  0  0  0
    3.1403   -4.2516    0.4234 C   0  0  0  0  0  0  0  0  0  0  0  0
    3.8680   -5.2007   -0.1440 N   0  0  0  0  0  0  0  0  0  0  0  0
    4.5618   -6.0772    1.0309 S   0  0  0  0  0  0  0  0  0  0  0  0
    3.9583   -5.2734    2.3043 N   0  0  0  0  0  0  0  0  0  0  0  0
    2.3502   -3.2588   -0.1918 C   0  0  0  0  0  0  0  0  0  0  0  0
    2.1303   -3.0314   -1.5521 C   0  0  0  0  0  0  0  0  0  0  0  0
    2.6441   -3.7401   -3.1935 Se  0  0  0  0  0  2  0  0  0  0  0  0
    1.5393   -2.3755   -3.9206 C   0  0  0  0  0  0  0  0  0  0  0  0
    1.2400   -2.0079   -5.2263 C   0  0  0  0  0  0  0  0  0  0  0  0
    1.7469   -2.7709   -6.4063 C   0  0  0  0  0  0  0  0  0  0  0  0
    0.7094   -3.7913   -6.8803 C   0  0  0  0  0  0  0  0  0  0  0  0
    0.3801   -0.8985   -5.2699 C   0  0  0  0  0  0  0  0  0  0  0  0
   -0.0433   -0.3306   -3.6570 S   0  0  0  0  0  0  0  0  0  0  0  0
    0.9202   -1.5728   -2.9478 C   0  0  0  0  0  0  0  0  0  0  0  0
    1.2508   -1.9465   -1.6386 C   0  0  0  0  0  0  0  0  0  0  0  0
    0.9186   -1.5180   -0.3829 N   0  0  0  0  0  0  0  0  0  0  0  0
    1.5982   -2.2896    0.5414 C   0  0  0  0  0  0  0  0  0  0  0  0
    1.6872   -2.3047    1.9648 C   0  0  0  0  0  0  0  0  0  0  0  0
    1.1837   -1.5120    2.9811 N   0  0  0  0  0  0  0  0  0  0  0  0
    1.5991   -2.0258    4.1798 C   0  0  0  0  0  0  0  0  0  0  0  0
    1.4176   -1.7145    5.5292 C   0  0  0  0  0  0  0  0  0  0  0  0
    0.5448   -0.5067    6.3952 S   0  0  0  0  0  0  0  0  0  0  0  0
    0.3009   -0.3690    3.0021 C   0  0  0  0  0  0  0  0  0  0  0  0
   -1.1573   -0.7921    3.1799 C   0  0  0  0  0  0  0  0  0  0  0  0
   -0.0215   -0.4295   -0.2538 C   0  0  0  0  0  0  0  0  0  0  0  0
    0.6766    0.9285   -0.3224 C   0  0  0  0  0  0  0  0  0  0  0  0
   -0.0691   -0.3283   -6.4670 C   0  0  0  0  0  0  0  0  0  0  0  0
   -0.8844    0.7504   -6.6991 C   0  0  0  0  0  0  0  0  0  0  0  0
   -1.4878    1.6165   -5.6829 C   0  0  0  0  0  0  0  0  0  0  0  0
   -1.3966    1.5131   -4.4699 O   0  0  0  0  0  0  0  0  0  0  0  0
   -2.2292    2.6585   -6.4106 C   0  0  0  0  0  0  0  0  0  0  0  0
   -2.9493    3.7155   -5.8598 C   0  0  0  0  0  0  0  0  0  0  0  0
   -3.5331    4.5396   -6.7917 C   0  0  0  0  0  0  0  0  0  0  0  0
   -3.4157    4.3231   -8.1709 C   0  0  0  0  0  0  0  0  0  0  0  0
   -2.7103    3.2820   -8.7268 C   0  0  0  0  0  0  0  0  0  0  0  0
   -2.1009    2.4357   -7.7967 C   0  0  0  0  0  0  0  0  0  0  0  0
   -1.2722    1.2486   -8.0043 C   0  0  0  0  0  0  0  0  0  0  0  0
   -0.9404    0.7202   -9.2264 C   0  0  0  0  0  0  0  0  0  0  0  0
   -1.3425    1.2578  -10.4671 C   0  0  0  0  0  0  0  0  0  0  0  0
   -1.6244    1.6316  -11.5158 N   0  0  0  0  0  0  0  0  0  0  0  0
   -0.1566   -0.4318   -9.4436 C   0  0  0  0  0  0  0  0  0  0  0  0
    0.4684   -1.3586   -9.7116 N   0  0  0  0  0  0  0  0  0  0  0  0
   -4.2400    5.5387   -8.5129 C   0  0  0  0  0  0  0  0  0  0  0  0
   -3.4896    6.8022   -9.0017 C   0  0  0  0  0  0  0  0  0  0  0  0
   -2.1029    6.7310   -8.4120 C   0  0  0  0  0  0  0  0  0  0  0  0
   -2.2076    6.9372   -7.1060 C   0  0  0  0  0  0  0  0  0  0  0  0
   -3.6669    7.1521   -6.7890 C   0  0  0  0  0  0  0  0  0  0  0  0
   -4.1230    7.8546   -8.0777 C   0  0  0  0  0  0  0  0  0  0  0  0
   -4.3666    5.7826   -6.9759 C   0  0  0  0  0  0  0  0  0  0  0  0
    1.2801   -0.8677   10.0104 H   0  0  0  0  0  0  0  0  0  0  0  0
   -0.9085    3.5361   12.0474 H   0  0  0  0  0  0  0  0  0  0  0  0
   -3.4213    2.7557    7.8158 H   0  0  0  0  0  0  0  0  0  0  0  0
    2.5686   -4.1546    8.5103 H   0  0  0  0  0  0  0  0  0  0  0  0
    1.8606   -3.0997    9.7457 H   0  0  0  0  0  0  0  0  0  0  0  0
    4.3416   -3.1767    9.9492 H   0  0  0  0  0  0  0  0  0  0  0  0
    4.5080   -2.6224    8.2800 H   0  0  0  0  0  0  0  0  0  0  0  0
    3.8266   -1.5466    9.5052 H   0  0  0  0  0  0  0  0  0  0  0  0
    2.0046   -2.1041   -7.2304 H   0  0  0  0  0  0  0  0  0  0  0  0
    2.6535   -3.3016   -6.0979 H   0  0  0  0  0  0  0  0  0  0  0  0
    0.4666   -4.4824   -6.0756 H   0  0  0  0  0  0  0  0  0  0  0  0
   -0.2029   -3.2933   -7.1997 H   0  0  0  0  0  0  0  0  0  0  0  0
    1.1039   -4.3554   -7.7204 H   0  0  0  0  0  0  0  0  0  0  0  0
    0.4461    0.2342    2.1111 H   0  0  0  0  0  0  0  0  0  0  0  0
    0.5963    0.2439    3.8597 H   0  0  0  0  0  0  0  0  0  0  0  0
   -1.4703   -1.4775    2.3947 H   0  0  0  0  0  0  0  0  0  0  0  0
   -1.2865   -1.2977    4.1341 H   0  0  0  0  0  0  0  0  0  0  0  0
   -1.8033    0.0812    3.1655 H   0  0  0  0  0  0  0  0  0  0  0  0
   -0.6037   -0.5487    0.6559 H   0  0  0  0  0  0  0  0  0  0  0  0
   -0.7152   -0.5041   -1.0965 H   0  0  0  0  0  0  0  0  0  0  0  0
    1.0911    1.0791   -1.3157 H   0  0  0  0  0  0  0  0  0  0  0  0
    1.4902    0.9958    0.3979 H   0  0  0  0  0  0  0  0  0  0  0  0
   -0.0389    1.7223   -0.1285 H   0  0  0  0  0  0  0  0  0  0  0  0
    0.3068   -0.8355   -7.3448 H   0  0  0  0  0  0  0  0  0  0  0  0
   -3.0177    3.8425   -4.7906 H   0  0  0  0  0  0  0  0  0  0  0  0
   -2.6308    3.1322   -9.7904 H   0  0  0  0  0  0  0  0  0  0  0  0
   -5.1521    5.3531   -9.0765 H   0  0  0  0  0  0  0  0  0  0  0  0
   -3.5475    6.9753  -10.0729 H   0  0  0  0  0  0  0  0  0  0  0  0
   -1.2230    6.4886   -8.9787 H   0  0  0  0  0  0  0  0  0  0  0  0
   -1.4321    6.9009   -6.3632 H   0  0  0  0  0  0  0  0  0  0  0  0
   -3.8855    7.6454   -5.8455 H   0  0  0  0  0  0  0  0  0  0  0  0
   -3.6801    8.8420   -8.1985 H   0  0  0  0  0  0  0  0  0  0  0  0
   -5.2057    7.9225   -8.1752 H   0  0  0  0  0  0  0  0  0  0  0  0
   -5.3618    5.7622   -6.5359 H   0  0  0  0  0  0  0  0  0  0  0  0
  1  2  2  0  0  0  0
  2  3  1  0  0  0  0
  3  4  2  0  0  0  0
  3  5  1  0  0  0  0
  5  6  2  0  0  0  0
  6  7  1  0  0  0  0
  7  8  1  0  0  0  0
  7  9  2  0  0  0  0
  9 10  1  0  0  0  0
  9 11  1  0  0  0  0
 11 12  2  0  0  0  0
 12 13  1  0  0  0  0
 13 14  2  0  0  0  0
 14 15  1  0  0  0  0
 15 16  3  0  0  0  0
 14 17  1  0  0  0  0
 17 18  3  0  0  0  0
  1 19  1  0  0  0  0
 19 20  2  0  0  0  0
 20 21  1  0  0  0  0
 21 22  1  0  0  0  0
 20 23  1  0  0  0  0
 23 24  1  0  0  0  0
 24 25  1  0  0  0  0
 25 26  1  0  0  0  0
 26 27  1  0  0  0  0
 27 28  1  0  0  0  0
 28 29  2  0  0  0  0
 29 30  1  0  0  0  0
 30 31  1  0  0  0  0
 28 32  1  0  0  0  0
 32 33  1  0  0  0  0
 33 34  1  0  0  0  0
 34 35  1  0  0  0  0
 35 36  1  0  0  0  0
 36 37  1  0  0  0  0
 37 38  1  0  0  0  0
 36 39  2  0  0  0  0
 39 40  1  0  0  0  0
 40 41  1  0  0  0  0
 41 42  1  0  0  0  0
 42 43  1  0  0  0  0
 43 44  1  0  0  0  0
 44 45  1  0  0  0  0
 45 46  1  0  0  0  0
 46 47  1  0  0  0  0
 47 48  1  0  0  0  0
 48 49  1  0  0  0  0
 46 50  1  0  0  0  0
 50 51  1  0  0  0  0
 43 52  1  0  0  0  0
 52 53  1  0  0  0  0
 39 54  1  0  0  0  0
 54 55  2  0  0  0  0
 55 56  1  0  0  0  0
 56 57  2  0  0  0  0
 56 58  1  0  0  0  0
 58 59  2  0  0  0  0
 59 60  1  0  0  0  0
 60 61  2  0  0  0  0
 61 62  1  0  0  0  0
 62 63  2  0  0  0  0
 63 64  1  0  0  0  0
 64 65  2  0  0  0  0
 65 66  1  0  0  0  0
 66 67  3  0  0  0  0
 65 68  1  0  0  0  0
 68 69  3  0  0  0  0
 61 70  1  0  0  0  0
 70 71  1  0  0  0  0
 71 72  1  0  0  0  0
 72 73  2  0  0  0  0
 73 74  1  0  0  0  0
 74 75  1  0  0  0  0
 74 76  1  0  0  0  0
 13  2  1  0  0  0  0
 49 19  1  0  0  0  0
 64 55  1  0  0  0  0
 76 70  1  0  0  0  0
 12  5  1  0  0  0  0
 48 23  2  0  0  0  0
 63 58  1  0  0  0  0
 75 71  1  0  0  0  0
 47 25  2  0  0  0  0
 76 60  1  0  0  0  0
 45 26  2  0  0  0  0
 31 27  2  0  0  0  0
 44 32  2  0  0  0  0
 42 33  2  0  0  0  0
 41 35  2  0  0  0  0
  1 77  1  0  0  0  0
  6 78  1  0  0  0  0
 11 79  1  0  0  0  0
 21 80  1  0  0  0  0
 21 81  1  0  0  0  0
 22 82  1  0  0  0  0
 22 83  1  0  0  0  0
 22 84  1  0  0  0  0
 37 85  1  0  0  0  0
 37 86  1  0  0  0  0
 38 87  1  0  0  0  0
 38 88  1  0  0  0  0
 38 89  1  0  0  0  0
 50 90  1  0  0  0  0
 50 91  1  0  0  0  0
 51 92  1  0  0  0  0
 51 93  1  0  0  0  0
 51 94  1  0  0  0  0
 52 95  1  0  0  0  0
 52 96  1  0  0  0  0
 53 97  1  0  0  0  0
 53 98  1  0  0  0  0
 53 99  1  0  0  0  0
 54100  1  0  0  0  0
 59101  1  0  0  0  0
 62102  1  0  0  0  0
 70103  1  0  0  0  0
 71104  1  0  0  0  0
 72105  1  0  0  0  0
 73106  1  0  0  0  0
 74107  1  0  0  0  0
 75108  1  0  0  0  0
 75109  1  0  0  0  0
 76110  1  0  0  0  0
M  END
