
  xtb     02012217333D
 energy: -176.918328047667 gnorm: 0.000492910965 xtb: 6.4.1 (unknown)
 88 98  0     0  0            999 V2000
    4.8426    5.5219   -1.0428 C   0  0  0  0  0  0  0  0  0  0  0  0
    4.6569    6.0556   -2.2969 C   0  0  0  0  0  0  0  0  0  0  0  0
    3.6022    5.7595   -3.2843 C   0  0  0  0  0  0  0  0  0  0  0  0
    2.6497    5.0084   -3.1976 O   0  0  0  0  0  0  0  0  0  0  0  0
    3.9112    6.5933   -4.4659 C   0  0  0  0  0  0  0  0  0  0  0  0
    3.2234    6.6555   -5.6608 C   0  0  0  0  0  0  0  0  0  0  0  0
    3.6970    7.5092   -6.6490 C   0  0  0  0  0  0  0  0  0  0  0  0
    2.8919    7.6346   -8.1637 Cl  0  0  0  0  0  0  0  0  0  0  0  0
    4.8420    8.2698   -6.4015 C   0  0  0  0  0  0  0  0  0  0  0  0
    5.2957    9.0891   -7.3575 F   0  0  0  0  0  0  0  0  0  0  0  0
    5.5346    8.2130   -5.2019 C   0  0  0  0  0  0  0  0  0  0  0  0
    5.0599    7.3598   -4.2175 C   0  0  0  0  0  0  0  0  0  0  0  0
    5.5391    7.0615   -2.8689 C   0  0  0  0  0  0  0  0  0  0  0  0
    6.6288    7.6567   -2.2874 C   0  0  0  0  0  0  0  0  0  0  0  0
    7.4261    8.6327   -2.9245 C   0  0  0  0  0  0  0  0  0  0  0  0
    8.1186    9.4289   -3.3762 N   0  0  0  0  0  0  0  0  0  0  0  0
    7.1347    7.4221   -0.9904 C   0  0  0  0  0  0  0  0  0  0  0  0
    7.6253    7.3103    0.0425 N   0  0  0  0  0  0  0  0  0  0  0  0
    4.1466    4.5442   -0.3154 C   0  0  0  0  0  0  0  0  0  0  0  0
    4.7988    4.1607    1.4579 Se  0  0  0  0  0  2  0  0  0  0  0  0
    3.4306    2.9340    1.5444 C   0  0  0  0  0  0  0  0  0  0  0  0
    2.8820    1.9882    2.4206 C   0  0  0  0  0  0  0  0  0  0  0  0
    3.1770    1.6668    3.7633 C   0  0  0  0  0  0  0  0  0  0  0  0
    2.3708    0.6923    4.4414 C   0  0  0  0  0  0  0  0  0  0  0  0
    2.7258    0.5421    5.7077 N   0  0  0  0  0  0  0  0  0  0  0  0
    3.9663    1.5330    6.0183 S   0  0  0  0  0  0  0  0  0  0  0  0
    4.1020    2.1963    4.5469 N   0  0  0  0  0  0  0  0  0  0  0  0
    1.3971   -0.0220    3.7032 C   0  0  0  0  0  0  0  0  0  0  0  0
    0.6134   -1.1377    4.0251 C   0  0  0  0  0  0  0  0  0  0  0  0
    0.2623   -2.1387    5.3905 S   0  0  0  0  0  0  0  0  0  0  0  0
   -0.7499   -3.1340    4.3602 C   0  0  0  0  0  0  0  0  0  0  0  0
   -1.5009   -4.2736    4.6093 C   0  0  0  0  0  0  0  0  0  0  0  0
   -1.6216   -4.8844    5.9666 C   0  0  0  0  0  0  0  0  0  0  0  0
   -2.8830   -4.3856    6.6777 C   0  0  0  0  0  0  0  0  0  0  0  0
   -2.1557   -4.7200    3.4455 C   0  0  0  0  0  0  0  0  0  0  0  0
   -1.8060   -3.6962    2.0504 S   0  0  0  0  0  0  0  0  0  0  0  0
   -0.8012   -2.6931    3.0252 C   0  0  0  0  0  0  0  0  0  0  0  0
   -0.0240   -1.5466    2.8440 C   0  0  0  0  0  0  0  0  0  0  0  0
    0.3060   -0.7070    1.8128 N   0  0  0  0  0  0  0  0  0  0  0  0
    1.1638    0.2519    2.3234 C   0  0  0  0  0  0  0  0  0  0  0  0
    1.8068    1.3646    1.7322 C   0  0  0  0  0  0  0  0  0  0  0  0
    1.6516    1.9694    0.5017 N   0  0  0  0  0  0  0  0  0  0  0  0
    2.6524    2.9042    0.3656 C   0  0  0  0  0  0  0  0  0  0  0  0
    3.0415    3.7698   -0.6472 C   0  0  0  0  0  0  0  0  0  0  0  0
    0.4161    2.0752   -0.2468 C   0  0  0  0  0  0  0  0  0  0  0  0
   -0.1683    3.4861   -0.1879 C   0  0  0  0  0  0  0  0  0  0  0  0
    0.1646   -1.1650    0.4431 C   0  0  0  0  0  0  0  0  0  0  0  0
    1.5185   -1.4563   -0.1955 C   0  0  0  0  0  0  0  0  0  0  0  0
   -2.9784   -5.8482    3.4248 C   0  0  0  0  0  0  0  0  0  0  0  0
   -3.7058   -6.4189    2.4061 C   0  0  0  0  0  0  0  0  0  0  0  0
   -3.7955   -5.9326    1.0294 C   0  0  0  0  0  0  0  0  0  0  0  0
   -3.2309   -4.9727    0.5351 O   0  0  0  0  0  0  0  0  0  0  0  0
   -4.7202   -6.8504    0.3321 C   0  0  0  0  0  0  0  0  0  0  0  0
   -5.1386   -6.8098   -0.9818 C   0  0  0  0  0  0  0  0  0  0  0  0
   -6.0246   -7.7866   -1.4207 C   0  0  0  0  0  0  0  0  0  0  0  0
   -6.5874   -7.7961   -3.0457 Cl  0  0  0  0  0  0  0  0  0  0  0  0
   -6.4585   -8.7671   -0.5261 C   0  0  0  0  0  0  0  0  0  0  0  0
   -7.3137   -9.7031   -0.9539 F   0  0  0  0  0  0  0  0  0  0  0  0
   -6.0397   -8.8140    0.7950 C   0  0  0  0  0  0  0  0  0  0  0  0
   -5.1553   -7.8399    1.2301 C   0  0  0  0  0  0  0  0  0  0  0  0
   -4.5284   -7.6058    2.5308 C   0  0  0  0  0  0  0  0  0  0  0  0
   -4.6977   -8.3962    3.6389 C   0  0  0  0  0  0  0  0  0  0  0  0
   -4.0883   -8.1991    4.8955 C   0  0  0  0  0  0  0  0  0  0  0  0
   -3.6308   -8.1103    5.9459 N   0  0  0  0  0  0  0  0  0  0  0  0
   -5.5162   -9.5455    3.6704 C   0  0  0  0  0  0  0  0  0  0  0  0
   -6.1640  -10.4881    3.7652 N   0  0  0  0  0  0  0  0  0  0  0  0
    5.6900    5.9210   -0.4961 H   0  0  0  0  0  0  0  0  0  0  0  0
    2.3426    6.0541   -5.8195 H   0  0  0  0  0  0  0  0  0  0  0  0
    6.4104    8.8286   -5.0810 H   0  0  0  0  0  0  0  0  0  0  0  0
   -0.7462   -4.5937    6.5505 H   0  0  0  0  0  0  0  0  0  0  0  0
   -1.6462   -5.9734    5.9071 H   0  0  0  0  0  0  0  0  0  0  0  0
   -2.9494   -4.8347    7.6643 H   0  0  0  0  0  0  0  0  0  0  0  0
   -2.8535   -3.3041    6.7865 H   0  0  0  0  0  0  0  0  0  0  0  0
   -3.7747   -4.6543    6.1163 H   0  0  0  0  0  0  0  0  0  0  0  0
    2.5714    3.8442   -1.6114 H   0  0  0  0  0  0  0  0  0  0  0  0
   -0.3056    1.3987    0.2057 H   0  0  0  0  0  0  0  0  0  0  0  0
    0.5942    1.7864   -1.2875 H   0  0  0  0  0  0  0  0  0  0  0  0
   -1.1428    3.4883   -0.6686 H   0  0  0  0  0  0  0  0  0  0  0  0
    0.4670    4.2038   -0.6968 H   0  0  0  0  0  0  0  0  0  0  0  0
   -0.2904    3.7998    0.8467 H   0  0  0  0  0  0  0  0  0  0  0  0
   -0.4262   -2.0829    0.4861 H   0  0  0  0  0  0  0  0  0  0  0  0
   -0.3927   -0.4503   -0.1639 H   0  0  0  0  0  0  0  0  0  0  0  0
    2.1181   -0.5531   -0.2745 H   0  0  0  0  0  0  0  0  0  0  0  0
    1.3695   -1.8635   -1.1913 H   0  0  0  0  0  0  0  0  0  0  0  0
    2.0659   -2.1843    0.3986 H   0  0  0  0  0  0  0  0  0  0  0  0
   -3.0491   -6.3407    4.3847 H   0  0  0  0  0  0  0  0  0  0  0  0
   -4.7861   -6.0390   -1.6481 H   0  0  0  0  0  0  0  0  0  0  0  0
   -6.4146   -9.5990    1.4307 H   0  0  0  0  0  0  0  0  0  0  0  0
  1  2  2  0  0  0  0
  2  3  1  0  0  0  0
  3  4  2  0  0  0  0
  3  5  1  0  0  0  0
  5  6  2  0  0  0  0
  6  7  1  0  0  0  0
  7  8  1  0  0  0  0
  7  9  2  0  0  0  0
  9 10  1  0  0  0  0
  9 11  1  0  0  0  0
 11 12  2  0  0  0  0
 12 13  1  0  0  0  0
 13 14  2  0  0  0  0
 14 15  1  0  0  0  0
 15 16  3  0  0  0  0
 14 17  1  0  0  0  0
 17 18  3  0  0  0  0
  1 19  1  0  0  0  0
 19 20  1  0  0  0  0
 20 21  1  0  0  0  0
 21 22  1  0  0  0  0
 22 23  1  0  0  0  0
 23 24  1  0  0  0  0
 24 25  2  0  0  0  0
 25 26  1  0  0  0  0
 26 27  1  0  0  0  0
 24 28  1  0  0  0  0
 28 29  1  0  0  0  0
 29 30  1  0  0  0  0
 30 31  1  0  0  0  0
 31 32  1  0  0  0  0
 32 33  1  0  0  0  0
 33 34  1  0  0  0  0
 32 35  2  0  0  0  0
 35 36  1  0  0  0  0
 36 37  1  0  0  0  0
 37 38  1  0  0  0  0
 38 39  1  0  0  0  0
 39 40  1  0  0  0  0
 40 41  1  0  0  0  0
 41 42  1  0  0  0  0
 42 43  1  0  0  0  0
 43 44  1  0  0  0  0
 42 45  1  0  0  0  0
 45 46  1  0  0  0  0
 39 47  1  0  0  0  0
 47 48  1  0  0  0  0
 35 49  1  0  0  0  0
 49 50  2  0  0  0  0
 50 51  1  0  0  0  0
 51 52  2  0  0  0  0
 51 53  1  0  0  0  0
 53 54  2  0  0  0  0
 54 55  1  0  0  0  0
 55 56  1  0  0  0  0
 55 57  2  0  0  0  0
 57 58  1  0  0  0  0
 57 59  1  0  0  0  0
 59 60  2  0  0  0  0
 60 61  1  0  0  0  0
 61 62  2  0  0  0  0
 62 63  1  0  0  0  0
 63 64  3  0  0  0  0
 62 65  1  0  0  0  0
 65 66  3  0  0  0  0
 13  2  1  0  0  0  0
 44 19  2  0  0  0  0
 61 50  1  0  0  0  0
 12  5  1  0  0  0  0
 43 21  2  0  0  0  0
 60 53  1  0  0  0  0
 41 22  2  0  0  0  0
 27 23  2  0  0  0  0
 40 28  2  0  0  0  0
 38 29  2  0  0  0  0
 37 31  2  0  0  0  0
  1 67  1  0  0  0  0
  6 68  1  0  0  0  0
 11 69  1  0  0  0  0
 33 70  1  0  0  0  0
 33 71  1  0  0  0  0
 34 72  1  0  0  0  0
 34 73  1  0  0  0  0
 34 74  1  0  0  0  0
 44 75  1  0  0  0  0
 45 76  1  0  0  0  0
 45 77  1  0  0  0  0
 46 78  1  0  0  0  0
 46 79  1  0  0  0  0
 46 80  1  0  0  0  0
 47 81  1  0  0  0  0
 47 82  1  0  0  0  0
 48 83  1  0  0  0  0
 48 84  1  0  0  0  0
 48 85  1  0  0  0  0
 49 86  1  0  0  0  0
 54 87  1  0  0  0  0
 59 88  1  0  0  0  0
M  END
