
  xtb     02112208263D
 energy: -176.476160595660 gnorm: 0.000903385753 xtb: 6.4.1 (unknown)
 88 99  0     0  0            999 V2000
    6.2852    6.2542    1.5521 C   0  0  0  0  0  0  0  0  0  0  0  0
    5.6345    7.4415    1.3654 C   0  0  0  0  0  0  0  0  0  0  0  0
    6.3957    8.6295    0.9070 C   0  0  0  0  0  0  0  0  0  0  0  0
    7.5962    8.7679    0.8914 O   0  0  0  0  0  0  0  0  0  0  0  0
    5.3655    9.5771    0.4162 C   0  0  0  0  0  0  0  0  0  0  0  0
    5.5421   10.7888   -0.2199 C   0  0  0  0  0  0  0  0  0  0  0  0
    4.4130   11.4960   -0.6177 C   0  0  0  0  0  0  0  0  0  0  0  0
    4.5637   13.0114   -1.4164 Cl  0  0  0  0  0  0  0  0  0  0  0  0
    3.1455   10.9657   -0.3647 C   0  0  0  0  0  0  0  0  0  0  0  0
    2.0649   11.6458   -0.7645 F   0  0  0  0  0  0  0  0  0  0  0  0
    2.9588    9.7551    0.2849 C   0  0  0  0  0  0  0  0  0  0  0  0
    4.0863    9.0546    0.6792 C   0  0  0  0  0  0  0  0  0  0  0  0
    4.2353    7.7972    1.4088 C   0  0  0  0  0  0  0  0  0  0  0  0
    3.2809    7.2437    2.2273 C   0  0  0  0  0  0  0  0  0  0  0  0
    1.9416    7.6769    2.2809 C   0  0  0  0  0  0  0  0  0  0  0  0
    0.8331    7.9688    2.3398 N   0  0  0  0  0  0  0  0  0  0  0  0
    3.5726    6.2411    3.1756 C   0  0  0  0  0  0  0  0  0  0  0  0
    3.7823    5.4558    3.9871 N   0  0  0  0  0  0  0  0  0  0  0  0
    5.7805    4.9399    1.5403 C   0  0  0  0  0  0  0  0  0  0  0  0
    6.4982    3.8199    1.9336 C   0  0  0  0  0  0  0  0  0  0  0  0
    5.8324    2.6119    1.7691 C   0  0  0  0  0  0  0  0  0  0  0  0
    6.3147    0.9741    2.1562 S   0  0  0  0  0  0  0  0  0  0  0  0
    4.7997    0.4088    1.5519 C   0  0  0  0  0  0  0  0  0  0  0  0
    4.1122   -0.7953    1.3595 C   0  0  0  0  0  0  0  0  0  0  0  0
    4.5288   -2.1250    1.5863 C   0  0  0  0  0  0  0  0  0  0  0  0
    3.6500   -3.1935    1.2237 C   0  0  0  0  0  0  0  0  0  0  0  0
    4.1776   -4.3854    1.4572 N   0  0  0  0  0  0  0  0  0  0  0  0
    5.6549   -4.1766    2.0832 S   0  0  0  0  0  0  0  0  0  0  0  0
    5.6790   -2.5586    2.0786 N   0  0  0  0  0  0  0  0  0  0  0  0
    2.3707   -2.8787    0.7167 C   0  0  0  0  0  0  0  0  0  0  0  0
    1.3074   -3.7203    0.3678 C   0  0  0  0  0  0  0  0  0  0  0  0
    0.2388   -2.8940    0.0083 C   0  0  0  0  0  0  0  0  0  0  0  0
    0.6056   -1.5817    0.1178 N   0  0  0  0  0  0  0  0  0  0  0  0
   -0.4090   -0.5748   -0.0805 C   0  0  0  0  0  0  0  0  0  0  0  0
   -0.6400   -0.2826   -1.5624 C   0  0  0  0  0  0  0  0  0  0  0  0
    1.9248   -1.5327    0.5346 C   0  0  0  0  0  0  0  0  0  0  0  0
    2.8379   -0.4735    0.7967 C   0  0  0  0  0  0  0  0  0  0  0  0
    2.7927    0.8984    0.6205 N   0  0  0  0  0  0  0  0  0  0  0  0
    3.9645    1.4301    1.0837 C   0  0  0  0  0  0  0  0  0  0  0  0
    4.5490    2.6930    1.1941 C   0  0  0  0  0  0  0  0  0  0  0  0
    4.0999    4.4541    0.7998 Se  0  0  0  0  0  2  0  0  0  0  0  0
    1.8316    1.7937    0.0234 C   0  0  0  0  0  0  0  0  0  0  0  0
    0.9980    2.5175    1.0805 C   0  0  0  0  0  0  0  0  0  0  0  0
   -0.9160   -3.6147   -0.3156 C   0  0  0  0  0  0  0  0  0  0  0  0
   -0.6961   -5.0005   -0.2001 C   0  0  0  0  0  0  0  0  0  0  0  0
    0.9310   -5.4060    0.3036 S   0  0  0  0  0  0  0  0  0  0  0  0
   -1.7863   -5.8138   -0.4918 C   0  0  0  0  0  0  0  0  0  0  0  0
   -2.9365   -5.1304   -0.8526 C   0  0  0  0  0  0  0  0  0  0  0  0
   -2.6661   -3.2508   -0.8459 Se  0  0  0  0  0  2  0  0  0  0  0  0
   -4.1690   -5.7280   -1.1772 C   0  0  0  0  0  0  0  0  0  0  0  0
   -5.3177   -5.0982   -1.5332 C   0  0  0  0  0  0  0  0  0  0  0  0
   -5.5331   -3.3693   -1.6842 S   0  0  0  0  0  0  0  0  0  0  0  0
   -7.2065   -3.5885   -2.1596 C   0  0  0  0  0  0  0  0  0  0  0  0
   -7.9896   -2.5222   -2.5150 C   0  0  0  0  0  0  0  0  0  0  0  0
   -9.3137   -2.6157   -2.9804 C   0  0  0  0  0  0  0  0  0  0  0  0
  -10.3875   -2.6166   -3.3864 N   0  0  0  0  0  0  0  0  0  0  0  0
   -7.4505   -1.2212   -2.4595 C   0  0  0  0  0  0  0  0  0  0  0  0
   -6.9995   -0.1676   -2.4076 N   0  0  0  0  0  0  0  0  0  0  0  0
   -7.5590   -4.8989   -2.1531 N   0  0  0  0  0  0  0  0  0  0  0  0
   -8.8939   -5.3430   -2.3975 C   0  0  0  0  0  0  0  0  0  0  0  0
   -9.1824   -6.0257   -3.5675 C   0  0  0  0  0  0  0  0  0  0  0  0
  -10.4757   -6.4631   -3.7895 C   0  0  0  0  0  0  0  0  0  0  0  0
  -11.4632   -6.2218   -2.8500 C   0  0  0  0  0  0  0  0  0  0  0  0
  -11.1613   -5.5522   -1.6764 C   0  0  0  0  0  0  0  0  0  0  0  0
   -9.8720   -5.1129   -1.4412 C   0  0  0  0  0  0  0  0  0  0  0  0
   -6.5559   -5.8117   -1.8352 C   0  0  0  0  0  0  0  0  0  0  0  0
   -6.7195   -7.0080   -1.8131 O   0  0  0  0  0  0  0  0  0  0  0  0
    7.3660    6.3364    1.6293 H   0  0  0  0  0  0  0  0  0  0  0  0
    6.5319   11.1760   -0.4014 H   0  0  0  0  0  0  0  0  0  0  0  0
    1.9558    9.3963    0.4513 H   0  0  0  0  0  0  0  0  0  0  0  0
    7.4802    3.8966    2.3674 H   0  0  0  0  0  0  0  0  0  0  0  0
   -1.3424   -0.9726    0.3417 H   0  0  0  0  0  0  0  0  0  0  0  0
   -0.1573    0.3215    0.4783 H   0  0  0  0  0  0  0  0  0  0  0  0
   -1.3420    0.5388   -1.6719 H   0  0  0  0  0  0  0  0  0  0  0  0
   -1.0601   -1.1594   -2.0537 H   0  0  0  0  0  0  0  0  0  0  0  0
    0.2879   -0.0290   -2.0710 H   0  0  0  0  0  0  0  0  0  0  0  0
    1.2121    1.2552   -0.6878 H   0  0  0  0  0  0  0  0  0  0  0  0
    2.4022    2.5439   -0.5417 H   0  0  0  0  0  0  0  0  0  0  0  0
    1.6327    3.1760    1.6727 H   0  0  0  0  0  0  0  0  0  0  0  0
    0.2328    3.1205    0.6004 H   0  0  0  0  0  0  0  0  0  0  0  0
    0.5221    1.8177    1.7637 H   0  0  0  0  0  0  0  0  0  0  0  0
   -1.7515   -6.8881   -0.4414 H   0  0  0  0  0  0  0  0  0  0  0  0
   -4.2181   -6.8101   -1.1390 H   0  0  0  0  0  0  0  0  0  0  0  0
   -8.4022   -6.2077   -4.2908 H   0  0  0  0  0  0  0  0  0  0  0  0
  -10.7110   -6.9901   -4.7012 H   0  0  0  0  0  0  0  0  0  0  0  0
  -12.4722   -6.5584   -3.0317 H   0  0  0  0  0  0  0  0  0  0  0  0
  -11.9295   -5.3693   -0.9412 H   0  0  0  0  0  0  0  0  0  0  0  0
   -9.6238   -4.5909   -0.5284 H   0  0  0  0  0  0  0  0  0  0  0  0
  1  2  2  0  0  0  0
  2  3  1  0  0  0  0
  3  4  2  0  0  0  0
  3  5  1  0  0  0  0
  5  6  2  0  0  0  0
  6  7  1  0  0  0  0
  7  8  1  0  0  0  0
  7  9  2  0  0  0  0
  9 10  1  0  0  0  0
  9 11  1  0  0  0  0
 11 12  2  0  0  0  0
 12 13  1  0  0  0  0
 13 14  2  0  0  0  0
 14 15  1  0  0  0  0
 15 16  3  0  0  0  0
 14 17  1  0  0  0  0
 17 18  3  0  0  0  0
  1 19  1  0  0  0  0
 19 20  2  0  0  0  0
 20 21  1  0  0  0  0
 21 22  1  0  0  0  0
 22 23  1  0  0  0  0
 23 24  1  0  0  0  0
 24 25  1  0  0  0  0
 25 26  1  0  0  0  0
 26 27  2  0  0  0  0
 27 28  1  0  0  0  0
 28 29  1  0  0  0  0
 26 30  1  0  0  0  0
 30 31  1  0  0  0  0
 31 32  2  0  0  0  0
 32 33  1  0  0  0  0
 33 34  1  0  0  0  0
 34 35  1  0  0  0  0
 33 36  1  0  0  0  0
 36 37  1  0  0  0  0
 37 38  1  0  0  0  0
 38 39  1  0  0  0  0
 39 40  1  0  0  0  0
 40 41  1  0  0  0  0
 38 42  1  0  0  0  0
 42 43  1  0  0  0  0
 32 44  1  0  0  0  0
 44 45  2  0  0  0  0
 45 46  1  0  0  0  0
 45 47  1  0  0  0  0
 47 48  2  0  0  0  0
 48 49  1  0  0  0  0
 48 50  1  0  0  0  0
 50 51  2  0  0  0  0
 51 52  1  0  0  0  0
 52 53  1  0  0  0  0
 53 54  2  0  0  0  0
 54 55  1  0  0  0  0
 55 56  3  0  0  0  0
 54 57  1  0  0  0  0
 57 58  3  0  0  0  0
 53 59  1  0  0  0  0
 59 60  1  0  0  0  0
 60 61  2  0  0  0  0
 61 62  1  0  0  0  0
 62 63  2  0  0  0  0
 63 64  1  0  0  0  0
 64 65  2  0  0  0  0
 59 66  1  0  0  0  0
 66 67  2  0  0  0  0
 13  2  1  0  0  0  0
 41 19  1  0  0  0  0
 49 44  1  0  0  0  0
 66 51  1  0  0  0  0
 12  5  1  0  0  0  0
 40 21  2  0  0  0  0
 65 60  1  0  0  0  0
 39 23  2  0  0  0  0
 37 24  2  0  0  0  0
 29 25  2  0  0  0  0
 36 30  2  0  0  0  0
 46 31  1  0  0  0  0
  1 68  1  0  0  0  0
  6 69  1  0  0  0  0
 11 70  1  0  0  0  0
 20 71  1  0  0  0  0
 34 72  1  0  0  0  0
 34 73  1  0  0  0  0
 35 74  1  0  0  0  0
 35 75  1  0  0  0  0
 35 76  1  0  0  0  0
 42 77  1  0  0  0  0
 42 78  1  0  0  0  0
 43 79  1  0  0  0  0
 43 80  1  0  0  0  0
 43 81  1  0  0  0  0
 47 82  1  0  0  0  0
 50 83  1  0  0  0  0
 61 84  1  0  0  0  0
 62 85  1  0  0  0  0
 63 86  1  0  0  0  0
 64 87  1  0  0  0  0
 65 88  1  0  0  0  0
M  END
