97

C         -3.90930       -1.65420       -5.82920
C         -3.98160       -2.32090       -7.01660
C         -4.84000       -1.80360       -8.11090
O         -5.39280       -0.72970       -8.15940
C         -4.91140       -2.90830       -9.09720
C         -5.66910       -2.98860      -10.24760
C         -5.59160       -4.14920      -11.00940
Cl        -6.51190       -4.31440      -12.45260
C         -4.75760       -5.18980      -10.59280
F         -4.70060       -6.30910      -11.32340
C         -3.98420       -5.11280       -9.44480
C         -4.06370       -3.95440       -8.68980
C         -3.37200       -3.55170       -7.46760
C         -2.20100       -4.09370       -7.00550
C         -1.41800       -3.52210       -5.98210
N         -0.71340       -3.08350       -5.18900
C         -1.59740       -5.24190       -7.55860
N         -1.08020       -6.18650       -7.95500
C         -3.48260       -2.12500       -4.56530
C         -3.63670       -3.36060       -3.94650
C         -4.44100       -4.50160       -4.49090
C         -3.67250       -5.82210       -4.52150
C         -3.08790       -3.35900       -2.65700
Se        -2.95300       -4.67830       -1.30150
C         -2.02960       -3.37820       -0.35220
C         -1.38200       -3.23100        0.87630
C         -1.27910       -4.15530        1.93590
C         -0.59430       -3.75800        3.12180
N         -0.58150       -4.70440        4.04720
S         -1.37240       -5.99410        3.46260
N         -1.75870       -5.38690        2.00850
C         -0.01370       -2.47360        3.16550
C          0.74940       -1.89300        4.18000
Se         1.38130       -2.32270        5.87510
C          2.19960       -0.60900        5.80190
C          3.00280        0.08330        6.69540
C          3.35870       -0.46150        8.03970
C          2.39640        0.06040        9.10940
C          3.37050        1.34660        6.19540
S          2.69480        1.63930        4.59300
C          1.94410        0.08800        4.60590
C          1.14120       -0.63210        3.71430
N          0.64870       -0.43180        2.45280
C         -0.08920       -1.54080        2.08550
C         -0.83080       -1.91510        0.92530
N         -1.18910       -1.27960       -0.25030
C         -1.89250       -2.16120       -1.02520
C         -2.49650       -2.14100       -2.28820
S         -2.69870       -0.95230       -3.51590
C         -0.92450        0.03710       -0.78030
C          0.30320        0.03490       -1.69120
C          0.96750        0.80480        1.77860
C         -0.01090        1.91760        2.15340
C          4.18600        2.23470        6.89770
C          4.63400        3.49640        6.57830
C          4.31210        4.24560        5.36500
O          3.61930        3.89190        4.42590
C          5.00110        5.54620        5.49330
C          5.00370        6.60630        4.61070
C          5.74050        7.72230        4.97870
F          5.77330        8.78110        4.15180
C          6.44560        7.78660        6.17060
C          6.43390        6.71180        7.04770
C          5.70650        5.58040        6.70870
C          5.50110        4.30970        7.40590
C          6.05550        3.97750        8.61630
C          5.87940        2.75610        9.29880
N          5.78660        1.79300        9.91910
C          6.90150        4.82710        9.35960
N          7.59480        5.46410       10.01660
H         -4.25780       -0.62550       -5.85890
H         -6.30460       -2.17030      -10.54620
H         -3.36110       -5.94990       -9.17380
H         -5.31330       -4.62770       -3.84060
H         -4.80560       -4.25520       -5.48890
H         -4.26840       -6.58400       -5.01770
H         -3.45590       -6.16280       -3.50920
H         -2.72800       -5.72280       -5.04990
H          4.38290       -0.20500        8.31430
H          3.27940       -1.55220        7.99170
H          2.65720       -0.35960       10.07640
H          1.37460       -0.22460        8.86680
H          2.44850        1.14440        9.17910
H         -0.83320        0.75400        0.03050
H         -1.79990        0.32470       -1.37150
H          1.17890       -0.35500       -1.17570
H          0.12120       -0.59210       -2.56030
H          0.51360        1.04450       -2.03260
H          1.01240        0.64100        0.70570
H          1.96890        1.09960        2.10620
H          0.20090        2.80840        1.56910
H          0.09930        2.16640        3.20560
H         -1.04290        1.61570        1.98330
H          4.51030        1.84930        7.85440
H          4.45970        6.56960        3.68050
H          7.00120        8.68090        6.40500
H          6.98600        6.77530        7.97050
