125

C          7.69480        4.53560       -0.87850
C          8.34570        5.47880       -0.12020
C          7.82180        6.66060        0.59350
O          6.68820        7.08930        0.66290
C          8.99900        7.30810        1.21820
C          9.02050        8.44330        2.00180
C         10.24490        8.88140        2.49040
Cl        10.34570       10.28640        3.47910
C         11.40140        8.16750        2.17200
F         12.58010        8.59490        2.64460
C         11.38470        7.02790        1.38300
C         10.16090        6.59100        0.89870
C          9.78830        5.44600        0.07050
C         10.67840        4.50270       -0.38110
C         10.38910        3.34460       -1.13330
N         10.27530        2.36950       -1.73240
C         12.06730        4.54870       -0.13550
N         13.20480        4.51700        0.01860
C          6.33560        4.20100       -1.12060
C          5.21740        4.85950       -0.55140
C          3.94120        4.40390       -0.73770
C          3.72300        3.25350       -1.50550
C          2.61590        2.46120       -1.83980
C          3.07600        1.38750       -2.61980
N          4.41810        1.48490       -2.81660
C          4.84670        2.59540       -2.11850
C          6.12310        3.06620       -1.93320
C          5.24510        0.48740       -3.44700
C          5.84130       -0.47720       -2.42360
C          1.97450        0.56060       -2.89440
C          1.78490       -0.60770       -3.66040
C          0.50810       -1.23600       -3.69160
N          0.60260       -2.29760       -4.49630
N          1.84950       -2.28440       -4.90630
C          2.34760       -3.25000       -5.84160
C          2.03310       -2.82910       -7.27450
N          2.60150       -1.31120       -4.44840
C         -0.52970       -0.76460       -2.85950
C         -0.32850        0.40470       -2.06650
C          0.87220        1.13890       -2.20170
N          1.26350        2.33040       -1.60580
C          0.42350        3.49870       -1.45040
C          0.69630        4.53630       -2.53940
N         -1.38150        0.54120       -1.17970
C         -1.46830        1.32270        0.03190
C         -2.62160        2.32540       -0.01300
C         -2.22800       -0.51910       -1.38820
C         -1.75030       -1.31480       -2.43810
N         -2.53880       -2.41620       -2.59350
C         -2.37940       -3.43450       -3.59850
C         -3.37210       -3.25000       -4.74530
C         -3.50340       -2.36390       -1.61830
C         -3.33840       -1.17940       -0.82320
C         -4.17680       -0.96890        0.27350
C         -5.08470       -1.93850        0.61020
C         -5.22700       -3.11820       -0.14990
C         -4.47500       -3.29740       -1.31020
C         -6.12160       -4.15420        0.29680
C         -6.34420       -4.50520        1.58620
C         -7.53990       -5.29770        1.97900
O         -8.28030       -5.90840        1.24100
C         -7.65590       -5.12910        3.44180
C         -8.68640       -5.57930        4.26500
C         -8.53010       -5.25300        5.59070
C         -7.42940       -4.52900        6.06980
C         -6.40280       -4.08330        5.27340
C         -6.54170       -4.40760        3.92130
C         -5.64080       -4.14450        2.80410
C         -4.30700       -3.85290        2.91430
C         -3.65550       -3.56170        4.12940
N         -3.07220       -3.28770        5.08010
C         -3.38920       -3.89410        1.84320
N         -2.56470       -3.98960        1.04970
C         -7.93010       -4.55170        7.49150
C         -8.58070       -3.26180        8.04910
C         -9.13990       -2.51650        6.86280
C        -10.18210       -3.20030        6.40970
C        -10.34690       -4.42020        7.28190
C         -9.87400       -3.85450        8.63070
C         -9.15670       -5.35760        6.95920
H          8.36820        3.84810       -1.37650
H          8.10790        8.97120        2.22820
H         12.31650        6.52800        1.17680
H          5.38280        5.73620        0.04880
H          3.10880        4.91570       -0.27820
H          6.96930        2.56110       -2.37530
H          6.04200        0.99050       -4.00180
H          4.61180       -0.06550       -4.14560
H          6.45170        0.05690       -1.69920
H          6.46170       -1.21280       -2.92730
H          5.04560       -0.99590       -1.89410
H          1.87380       -4.20770       -5.61530
H          3.42630       -3.32240       -5.69040
H          0.95820       -2.73460       -7.40820
H          2.40980       -3.57350       -7.97000
H          2.50040       -1.87280       -7.49690
H         -0.61390        3.18400       -1.53020
H          0.59650        3.94260       -0.46400
H          0.01590        5.37580       -2.42160
H          1.71650        4.90500       -2.48170
H          0.54160        4.09670       -3.52270
H         -1.64180        0.62560        0.86030
H         -0.51560        1.82000        0.21220
H         -2.69740        2.84010        0.94110
H         -3.55760        1.80950       -0.20920
H         -2.48470        3.06850       -0.79490
H         -2.51760       -4.41440       -3.13190
H         -1.35730       -3.36030       -3.97840
H         -4.39550       -3.28450       -4.37850
H         -3.21010       -2.28950       -5.22850
H         -3.23790       -4.03680       -5.48230
H         -4.09360       -0.07690        0.87540
H         -5.73010       -1.79370        1.46470
H         -4.58940       -4.20200       -1.88740
H         -6.70270       -4.68080       -0.45250
H         -9.51640       -6.13620        3.85900
H         -5.56360       -3.52180        5.65000
H         -7.27820       -5.03450        8.21690
H         -7.94540       -2.68960        8.72000
H         -8.69910       -1.62680        6.45250
H        -10.78580       -2.99640        5.54470
H        -11.32100       -4.90140        7.25490
H         -9.69890       -4.62020        9.38520
H        -10.54500       -3.09390        9.02710
H         -9.30770       -6.36580        7.33990
