
  xtb     02012221163D
 energy: -241.912990031402 gnorm: 0.000724059766 xtb: 6.4.1 (unknown)
138152  0     0  0            999 V2000
   -2.0865   -3.6258   -7.8210 C   0  0  0  0  0  0  0  0  0  0  0  0
   -1.2950   -3.7379   -8.9400 C   0  0  0  0  0  0  0  0  0  0  0  0
    0.0530   -3.1865   -9.0909 C   0  0  0  0  0  0  0  0  0  0  0  0
    0.6990   -2.5573   -8.2729 O   0  0  0  0  0  0  0  0  0  0  0  0
    0.4888   -3.5439  -10.4574 C   0  0  0  0  0  0  0  0  0  0  0  0
    1.6849   -3.2509  -11.0790 C   0  0  0  0  0  0  0  0  0  0  0  0
    1.8744   -3.6936  -12.3830 C   0  0  0  0  0  0  0  0  0  0  0  0
    3.3415   -3.3651  -13.2178 Cl  0  0  0  0  0  0  0  0  0  0  0  0
    0.8575   -4.4122  -13.0151 C   0  0  0  0  0  0  0  0  0  0  0  0
    1.0448   -4.8343  -14.2712 F   0  0  0  0  0  0  0  0  0  0  0  0
   -0.3464   -4.7102  -12.3946 C   0  0  0  0  0  0  0  0  0  0  0  0
   -0.5328   -4.2692  -11.0941 C   0  0  0  0  0  0  0  0  0  0  0  0
   -1.6580   -4.4122  -10.1701 C   0  0  0  0  0  0  0  0  0  0  0  0
   -2.8246   -5.0770  -10.4497 C   0  0  0  0  0  0  0  0  0  0  0  0
   -3.0970   -5.7085  -11.6820 C   0  0  0  0  0  0  0  0  0  0  0  0
   -3.3821   -6.2428  -12.6569 N   0  0  0  0  0  0  0  0  0  0  0  0
   -3.9164   -5.2376   -9.5713 C   0  0  0  0  0  0  0  0  0  0  0  0
   -4.8456   -5.4175   -8.9200 N   0  0  0  0  0  0  0  0  0  0  0  0
   -1.8448   -3.0074   -6.5908 C   0  0  0  0  0  0  0  0  0  0  0  0
   -0.3785   -2.1625   -6.1057 S   0  0  0  0  0  0  0  0  0  0  0  0
   -1.0808   -1.8337   -4.5845 C   0  0  0  0  0  0  0  0  0  0  0  0
   -0.7316   -1.1651   -3.3881 C   0  0  0  0  0  0  0  0  0  0  0  0
   -1.7820   -1.2401   -2.4894 C   0  0  0  0  0  0  0  0  0  0  0  0
   -2.9348   -2.0317   -3.0635 C   0  0  0  0  0  0  0  0  0  0  0  0
   -2.3846   -2.3411   -4.4410 C   0  0  0  0  0  0  0  0  0  0  0  0
   -2.8084   -3.0032   -5.5670 C   0  0  0  0  0  0  0  0  0  0  0  0
   -4.1747   -1.1547   -3.0993 C   0  0  0  0  0  0  0  0  0  0  0  0
   -4.3109   -0.1887   -4.0876 C   0  0  0  0  0  0  0  0  0  0  0  0
   -5.4180    0.6383   -4.1133 C   0  0  0  0  0  0  0  0  0  0  0  0
   -6.4135    0.5285   -3.1513 C   0  0  0  0  0  0  0  0  0  0  0  0
   -7.5989    1.4493   -3.1585 C   0  0  0  0  0  0  0  0  0  0  0  0
   -7.3222    2.6852   -2.2999 C   0  0  0  0  0  0  0  0  0  0  0  0
   -6.2625   -0.4258   -2.1540 C   0  0  0  0  0  0  0  0  0  0  0  0
   -5.1580   -1.2567   -2.1245 C   0  0  0  0  0  0  0  0  0  0  0  0
   -3.1746   -3.3529   -2.3532 C   0  0  0  0  0  0  0  0  0  0  0  0
   -4.2475   -4.1452   -2.7466 C   0  0  0  0  0  0  0  0  0  0  0  0
   -4.4750   -5.3682   -2.1471 C   0  0  0  0  0  0  0  0  0  0  0  0
   -3.6386   -5.8358   -1.1404 C   0  0  0  0  0  0  0  0  0  0  0  0
   -3.8581   -7.1850   -0.5206 C   0  0  0  0  0  0  0  0  0  0  0  0
   -3.1011   -8.2597   -1.3038 C   0  0  0  0  0  0  0  0  0  0  0  0
   -2.5654   -5.0444   -0.7572 C   0  0  0  0  0  0  0  0  0  0  0  0
   -2.3311   -3.8193   -1.3562 C   0  0  0  0  0  0  0  0  0  0  0  0
   -1.5180   -0.5708   -1.2767 C   0  0  0  0  0  0  0  0  0  0  0  0
   -2.3320   -0.3989   -0.1550 C   0  0  0  0  0  0  0  0  0  0  0  0
   -1.8158    0.2823    0.9209 C   0  0  0  0  0  0  0  0  0  0  0  0
   -2.6817    0.6116    2.4108 S   0  0  0  0  0  0  0  0  0  0  0  0
   -1.2697    1.3852    3.0442 C   0  0  0  0  0  0  0  0  0  0  0  0
   -0.9073    2.0366    4.2445 C   0  0  0  0  0  0  0  0  0  0  0  0
    0.4245    2.4702    4.1415 C   0  0  0  0  0  0  0  0  0  0  0  0
    1.0117    2.0573    2.8080 C   0  0  0  0  0  0  0  0  0  0  0  0
    1.4400    3.2352    1.9494 C   0  0  0  0  0  0  0  0  0  0  0  0
    2.5017    3.1277    1.0615 C   0  0  0  0  0  0  0  0  0  0  0  0
    2.8529    4.1959    0.2574 C   0  0  0  0  0  0  0  0  0  0  0  0
    2.1550    5.3948    0.3157 C   0  0  0  0  0  0  0  0  0  0  0  0
    2.5182    6.5381   -0.5866 C   0  0  0  0  0  0  0  0  0  0  0  0
    1.7785    6.4212   -1.9210 C   0  0  0  0  0  0  0  0  0  0  0  0
    1.0849    5.4918    1.1955 C   0  0  0  0  0  0  0  0  0  0  0  0
    0.7280    4.4262    2.0000 C   0  0  0  0  0  0  0  0  0  0  0  0
    2.1577    1.0996    3.0910 C   0  0  0  0  0  0  0  0  0  0  0  0
    2.0521   -0.2657    2.8735 C   0  0  0  0  0  0  0  0  0  0  0  0
    3.1073   -1.1065    3.1816 C   0  0  0  0  0  0  0  0  0  0  0  0
    4.2845   -0.6097    3.7221 C   0  0  0  0  0  0  0  0  0  0  0  0
    5.4406   -1.5205    4.0174 C   0  0  0  0  0  0  0  0  0  0  0  0
    6.3483   -1.6471    2.7920 C   0  0  0  0  0  0  0  0  0  0  0  0
    4.3825    0.7593    3.9411 C   0  0  0  0  0  0  0  0  0  0  0  0
    3.3344    1.6039    3.6339 C   0  0  0  0  0  0  0  0  0  0  0  0
   -0.1903    1.3930    2.1768 C   0  0  0  0  0  0  0  0  0  0  0  0
   -0.4806    0.7886    0.9358 C   0  0  0  0  0  0  0  0  0  0  0  0
    0.3250    0.6374   -0.1948 C   0  0  0  0  0  0  0  0  0  0  0  0
   -0.2000   -0.0209   -1.2811 C   0  0  0  0  0  0  0  0  0  0  0  0
    0.6449   -0.3029   -2.7925 S   0  0  0  0  0  0  0  0  0  0  0  0
    0.8707    3.1231    5.2713 C   0  0  0  0  0  0  0  0  0  0  0  0
   -0.1111    3.2082    6.2592 C   0  0  0  0  0  0  0  0  0  0  0  0
   -1.6216    2.4458    5.7355 S   0  0  0  0  0  0  0  0  0  0  0  0
   -0.1300    3.7839    7.5365 C   0  0  0  0  0  0  0  0  0  0  0  0
    0.8581    4.3660    8.2946 C   0  0  0  0  0  0  0  0  0  0  0  0
    2.3070    4.4364    8.0230 C   0  0  0  0  0  0  0  0  0  0  0  0
    2.9195    4.1393    7.0180 O   0  0  0  0  0  0  0  0  0  0  0  0
    2.9192    4.9507    9.2696 C   0  0  0  0  0  0  0  0  0  0  0  0
    4.2594    5.1433    9.5405 C   0  0  0  0  0  0  0  0  0  0  0  0
    4.5986    5.6242   10.7945 C   0  0  0  0  0  0  0  0  0  0  0  0
    5.8862    5.8234   11.1030 F   0  0  0  0  0  0  0  0  0  0  0  0
    3.6107    5.9001   11.7400 C   0  0  0  0  0  0  0  0  0  0  0  0
    3.9665    6.3568   12.9461 F   0  0  0  0  0  0  0  0  0  0  0  0
    2.2644    5.7112   11.4647 C   0  0  0  0  0  0  0  0  0  0  0  0
    1.9176    5.2309   10.2114 C   0  0  0  0  0  0  0  0  0  0  0  0
    0.6180    4.9315    9.6107 C   0  0  0  0  0  0  0  0  0  0  0  0
   -0.5923    5.2135   10.1892 C   0  0  0  0  0  0  0  0  0  0  0  0
   -1.8615    5.0360    9.5969 C   0  0  0  0  0  0  0  0  0  0  0  0
   -2.9329    4.9522    9.1913 N   0  0  0  0  0  0  0  0  0  0  0  0
   -0.7385    5.7731   11.4769 C   0  0  0  0  0  0  0  0  0  0  0  0
   -0.9225    6.2230   12.5166 N   0  0  0  0  0  0  0  0  0  0  0  0
   -3.0671   -4.0829   -7.8758 H   0  0  0  0  0  0  0  0  0  0  0  0
    2.4505   -2.6932  -10.5638 H   0  0  0  0  0  0  0  0  0  0  0  0
   -1.0877   -5.2689  -12.9419 H   0  0  0  0  0  0  0  0  0  0  0  0
   -3.7666   -3.4739   -5.6939 H   0  0  0  0  0  0  0  0  0  0  0  0
   -3.5486   -0.0854   -4.8465 H   0  0  0  0  0  0  0  0  0  0  0  0
   -5.5114    1.3777   -4.8957 H   0  0  0  0  0  0  0  0  0  0  0  0
   -8.4741    0.9279   -2.7657 H   0  0  0  0  0  0  0  0  0  0  0  0
   -7.8178    1.7628   -4.1810 H   0  0  0  0  0  0  0  0  0  0  0  0
   -7.1152    2.3944   -1.2725 H   0  0  0  0  0  0  0  0  0  0  0  0
   -8.1814    3.3516   -2.3061 H   0  0  0  0  0  0  0  0  0  0  0  0
   -6.4595    3.2263   -2.6823 H   0  0  0  0  0  0  0  0  0  0  0  0
   -7.0220   -0.5254   -1.3918 H   0  0  0  0  0  0  0  0  0  0  0  0
   -5.0721   -2.0004   -1.3453 H   0  0  0  0  0  0  0  0  0  0  0  0
   -4.9170   -3.7927   -3.5172 H   0  0  0  0  0  0  0  0  0  0  0  0
   -5.3160   -5.9681   -2.4634 H   0  0  0  0  0  0  0  0  0  0  0  0
   -3.5068   -7.1790    0.5131 H   0  0  0  0  0  0  0  0  0  0  0  0
   -4.9232   -7.4242   -0.5191 H   0  0  0  0  0  0  0  0  0  0  0  0
   -2.0360   -8.0391   -1.3162 H   0  0  0  0  0  0  0  0  0  0  0  0
   -3.2486   -9.2363   -0.8489 H   0  0  0  0  0  0  0  0  0  0  0  0
   -3.4539   -8.2981   -2.3319 H   0  0  0  0  0  0  0  0  0  0  0  0
   -1.9010   -5.3880    0.0228 H   0  0  0  0  0  0  0  0  0  0  0  0
   -1.4859   -3.2285   -1.0364 H   0  0  0  0  0  0  0  0  0  0  0  0
   -3.3361   -0.7894   -0.1458 H   0  0  0  0  0  0  0  0  0  0  0  0
    3.0702    2.2104    1.0074 H   0  0  0  0  0  0  0  0  0  0  0  0
    3.6866    4.0965   -0.4230 H   0  0  0  0  0  0  0  0  0  0  0  0
    3.5942    6.5361   -0.7711 H   0  0  0  0  0  0  0  0  0  0  0  0
    2.2544    7.4842   -0.1103 H   0  0  0  0  0  0  0  0  0  0  0  0
    0.7028    6.4360   -1.7600 H   0  0  0  0  0  0  0  0  0  0  0  0
    2.0368    5.4882   -2.4169 H   0  0  0  0  0  0  0  0  0  0  0  0
    2.0435    7.2479   -2.5757 H   0  0  0  0  0  0  0  0  0  0  0  0
    0.5250    6.4140    1.2552 H   0  0  0  0  0  0  0  0  0  0  0  0
   -0.1088    4.5246    2.6767 H   0  0  0  0  0  0  0  0  0  0  0  0
    1.1464   -0.6848    2.4609 H   0  0  0  0  0  0  0  0  0  0  0  0
    3.0080   -2.1677    3.0029 H   0  0  0  0  0  0  0  0  0  0  0  0
    5.0713   -2.5098    4.2949 H   0  0  0  0  0  0  0  0  0  0  0  0
    6.0190   -1.1239    4.8539 H   0  0  0  0  0  0  0  0  0  0  0  0
    6.7342   -0.6716    2.5046 H   0  0  0  0  0  0  0  0  0  0  0  0
    5.7939   -2.0573    1.9507 H   0  0  0  0  0  0  0  0  0  0  0  0
    7.1882   -2.3032    3.0074 H   0  0  0  0  0  0  0  0  0  0  0  0
    5.2884    1.1690    4.3634 H   0  0  0  0  0  0  0  0  0  0  0  0
    3.4324    2.6645    3.8086 H   0  0  0  0  0  0  0  0  0  0  0  0
    1.3267    1.0337   -0.2063 H   0  0  0  0  0  0  0  0  0  0  0  0
    1.8523    3.5343    5.4118 H   0  0  0  0  0  0  0  0  0  0  0  0
   -1.1055    3.7307    8.0060 H   0  0  0  0  0  0  0  0  0  0  0  0
    5.0186    4.9270    8.8060 H   0  0  0  0  0  0  0  0  0  0  0  0
    1.5424    5.9379   12.2315 H   0  0  0  0  0  0  0  0  0  0  0  0
  1  2  2  0  0  0  0
  2  3  1  0  0  0  0
  3  4  2  0  0  0  0
  3  5  1  0  0  0  0
  5  6  2  0  0  0  0
  6  7  1  0  0  0  0
  7  8  1  0  0  0  0
  7  9  2  0  0  0  0
  9 10  1  0  0  0  0
  9 11  1  0  0  0  0
 11 12  2  0  0  0  0
 12 13  1  0  0  0  0
 13 14  2  0  0  0  0
 14 15  1  0  0  0  0
 15 16  3  0  0  0  0
 14 17  1  0  0  0  0
 17 18  3  0  0  0  0
  1 19  1  0  0  0  0
 19 20  1  0  0  0  0
 20 21  1  0  0  0  0
 21 22  1  0  0  0  0
 22 23  2  0  0  0  0
 23 24  1  0  0  0  0
 24 25  1  0  0  0  0
 25 26  1  0  0  0  0
 24 27  1  0  0  0  0
 27 28  2  0  0  0  0
 28 29  1  0  0  0  0
 29 30  2  0  0  0  0
 30 31  1  0  0  0  0
 31 32  1  0  0  0  0
 30 33  1  0  0  0  0
 33 34  2  0  0  0  0
 24 35  1  0  0  0  0
 35 36  2  0  0  0  0
 36 37  1  0  0  0  0
 37 38  2  0  0  0  0
 38 39  1  0  0  0  0
 39 40  1  0  0  0  0
 38 41  1  0  0  0  0
 41 42  2  0  0  0  0
 23 43  1  0  0  0  0
 43 44  2  0  0  0  0
 44 45  1  0  0  0  0
 45 46  1  0  0  0  0
 46 47  1  0  0  0  0
 47 48  1  0  0  0  0
 48 49  2  0  0  0  0
 49 50  1  0  0  0  0
 50 51  1  0  0  0  0
 51 52  2  0  0  0  0
 52 53  1  0  0  0  0
 53 54  2  0  0  0  0
 54 55  1  0  0  0  0
 55 56  1  0  0  0  0
 54 57  1  0  0  0  0
 57 58  2  0  0  0  0
 50 59  1  0  0  0  0
 59 60  2  0  0  0  0
 60 61  1  0  0  0  0
 61 62  2  0  0  0  0
 62 63  1  0  0  0  0
 63 64  1  0  0  0  0
 62 65  1  0  0  0  0
 65 66  2  0  0  0  0
 50 67  1  0  0  0  0
 67 68  1  0  0  0  0
 68 69  1  0  0  0  0
 69 70  2  0  0  0  0
 70 71  1  0  0  0  0
 49 72  1  0  0  0  0
 72 73  2  0  0  0  0
 73 74  1  0  0  0  0
 73 75  1  0  0  0  0
 75 76  2  0  0  0  0
 76 77  1  0  0  0  0
 77 78  2  0  0  0  0
 77 79  1  0  0  0  0
 79 80  2  0  0  0  0
 80 81  1  0  0  0  0
 81 82  1  0  0  0  0
 81 83  2  0  0  0  0
 83 84  1  0  0  0  0
 83 85  1  0  0  0  0
 85 86  2  0  0  0  0
 86 87  1  0  0  0  0
 87 88  2  0  0  0  0
 88 89  1  0  0  0  0
 89 90  3  0  0  0  0
 88 91  1  0  0  0  0
 91 92  3  0  0  0  0
 13  2  1  0  0  0  0
 26 19  2  0  0  0  0
 34 27  1  0  0  0  0
 42 35  1  0  0  0  0
 70 43  1  0  0  0  0
 87 76  1  0  0  0  0
 12  5  1  0  0  0  0
 25 21  2  0  0  0  0
 68 45  2  0  0  0  0
 86 79  1  0  0  0  0
 71 22  1  0  0  0  0
 67 47  2  0  0  0  0
 74 48  1  0  0  0  0
 58 51  1  0  0  0  0
 66 59  1  0  0  0  0
  1 93  1  0  0  0  0
  6 94  1  0  0  0  0
 11 95  1  0  0  0  0
 26 96  1  0  0  0  0
 28 97  1  0  0  0  0
 29 98  1  0  0  0  0
 31 99  1  0  0  0  0
 31100  1  0  0  0  0
 32101  1  0  0  0  0
 32102  1  0  0  0  0
 32103  1  0  0  0  0
 33104  1  0  0  0  0
 34105  1  0  0  0  0
 36106  1  0  0  0  0
 37107  1  0  0  0  0
 39108  1  0  0  0  0
 39109  1  0  0  0  0
 40110  1  0  0  0  0
 40111  1  0  0  0  0
 40112  1  0  0  0  0
 41113  1  0  0  0  0
 42114  1  0  0  0  0
 44115  1  0  0  0  0
 52116  1  0  0  0  0
 53117  1  0  0  0  0
 55118  1  0  0  0  0
 55119  1  0  0  0  0
 56120  1  0  0  0  0
 56121  1  0  0  0  0
 56122  1  0  0  0  0
 57123  1  0  0  0  0
 58124  1  0  0  0  0
 60125  1  0  0  0  0
 61126  1  0  0  0  0
 63127  1  0  0  0  0
 63128  1  0  0  0  0
 64129  1  0  0  0  0
 64130  1  0  0  0  0
 64131  1  0  0  0  0
 65132  1  0  0  0  0
 66133  1  0  0  0  0
 69134  1  0  0  0  0
 72135  1  0  0  0  0
 75136  1  0  0  0  0
 80137  1  0  0  0  0
 85138  1  0  0  0  0
M  END
