
  xtb     02012217553D
 energy: -192.123464428395 gnorm: 0.000986600409 xtb: 6.4.1 (unknown)
103115  0     0  0            999 V2000
    6.2769   -4.7991   -0.4511 C   0  0  0  0  0  0  0  0  0  0  0  0
    5.7097   -5.8579   -1.1033 C   0  0  0  0  0  0  0  0  0  0  0  0
    6.5529   -6.7278   -1.9570 C   0  0  0  0  0  0  0  0  0  0  0  0
    7.7612   -6.7618   -1.9994 O   0  0  0  0  0  0  0  0  0  0  0  0
    5.5930   -7.4959   -2.7865 C   0  0  0  0  0  0  0  0  0  0  0  0
    5.8547   -8.3691   -3.8223 C   0  0  0  0  0  0  0  0  0  0  0  0
    4.7787   -8.9565   -4.4782 C   0  0  0  0  0  0  0  0  0  0  0  0
    5.0369  -10.0509   -5.7801 Cl  0  0  0  0  0  0  0  0  0  0  0  0
    3.4774   -8.6511   -4.0733 C   0  0  0  0  0  0  0  0  0  0  0  0
    2.4469   -9.2101   -4.7197 F   0  0  0  0  0  0  0  0  0  0  0  0
    3.2056   -7.7854   -3.0250 C   0  0  0  0  0  0  0  0  0  0  0  0
    4.2802   -7.2011   -2.3759 C   0  0  0  0  0  0  0  0  0  0  0  0
    4.3403   -6.2973   -1.2293 C   0  0  0  0  0  0  0  0  0  0  0  0
    3.3520   -6.1419   -0.2906 C   0  0  0  0  0  0  0  0  0  0  0  0
    2.0404   -6.6309   -0.4404 C   0  0  0  0  0  0  0  0  0  0  0  0
    0.9502   -6.9808   -0.5256 N   0  0  0  0  0  0  0  0  0  0  0  0
    3.5810   -5.5475    0.9680 C   0  0  0  0  0  0  0  0  0  0  0  0
    3.7571   -5.1266    2.0216 N   0  0  0  0  0  0  0  0  0  0  0  0
    5.6793   -3.6187    0.0266 C   0  0  0  0  0  0  0  0  0  0  0  0
    6.2594   -2.6921    0.8905 C   0  0  0  0  0  0  0  0  0  0  0  0
    7.6063   -2.8279    1.5196 C   0  0  0  0  0  0  0  0  0  0  0  0
    8.6773   -2.1815    0.6361 C   0  0  0  0  0  0  0  0  0  0  0  0
    5.4249   -1.5936    1.0972 C   0  0  0  0  0  0  0  0  0  0  0  0
    5.5917   -0.1531    2.0767 S   0  0  0  0  0  0  0  0  0  0  0  0
    4.0351    0.3629    1.5369 C   0  0  0  0  0  0  0  0  0  0  0  0
    3.1592    1.4450    1.7023 C   0  0  0  0  0  0  0  0  0  0  0  0
    3.3352    2.6679    2.3940 C   0  0  0  0  0  0  0  0  0  0  0  0
    2.2958    3.6589    2.3089 C   0  0  0  0  0  0  0  0  0  0  0  0
    2.5566    4.7923    2.9300 N   0  0  0  0  0  0  0  0  0  0  0  0
    4.1487    4.6746    3.6773 Se  0  0  0  0  0  2  0  0  0  0  0  0
    4.3966    3.0318    3.0862 N   0  0  0  0  0  0  0  0  0  0  0  0
    1.0946    3.3185    1.6411 C   0  0  0  0  0  0  0  0  0  0  0  0
   -0.1198    4.0106    1.5493 C   0  0  0  0  0  0  0  0  0  0  0  0
   -0.8064    5.5200    2.0383 S   0  0  0  0  0  0  0  0  0  0  0  0
   -2.3501    4.9904    1.3918 C   0  0  0  0  0  0  0  0  0  0  0  0
   -3.5972    5.5978    1.3339 C   0  0  0  0  0  0  0  0  0  0  0  0
   -3.8706    6.9408    1.9275 C   0  0  0  0  0  0  0  0  0  0  0  0
   -4.4432    6.8039    3.3412 C   0  0  0  0  0  0  0  0  0  0  0  0
   -4.5447    4.7639    0.7132 C   0  0  0  0  0  0  0  0  0  0  0  0
   -3.8468    3.2248    0.2058 S   0  0  0  0  0  0  0  0  0  0  0  0
   -2.3123    3.7045    0.8256 C   0  0  0  0  0  0  0  0  0  0  0  0
   -1.0303    3.1554    0.9149 C   0  0  0  0  0  0  0  0  0  0  0  0
   -0.4158    1.9745    0.5992 N   0  0  0  0  0  0  0  0  0  0  0  0
    0.8975    2.0532    1.0111 C   0  0  0  0  0  0  0  0  0  0  0  0
    1.9942    1.1547    0.9352 C   0  0  0  0  0  0  0  0  0  0  0  0
    2.1834   -0.0545    0.2866 N   0  0  0  0  0  0  0  0  0  0  0  0
    3.4174   -0.5292    0.6509 C   0  0  0  0  0  0  0  0  0  0  0  0
    4.2134   -1.6442    0.3898 C   0  0  0  0  0  0  0  0  0  0  0  0
    4.0994   -3.0810   -0.5528 S   0  0  0  0  0  0  0  0  0  0  0  0
    1.6109   -0.5522   -0.9459 C   0  0  0  0  0  0  0  0  0  0  0  0
    2.2521    0.1260   -2.1554 C   0  0  0  0  0  0  0  0  0  0  0  0
   -1.2189    0.8429    0.1943 C   0  0  0  0  0  0  0  0  0  0  0  0
   -1.5870    0.9043   -1.2881 C   0  0  0  0  0  0  0  0  0  0  0  0
   -5.8805    5.1365    0.5312 C   0  0  0  0  0  0  0  0  0  0  0  0
   -6.9329    4.4657   -0.0435 C   0  0  0  0  0  0  0  0  0  0  0  0
   -6.8792    3.1307   -0.6447 C   0  0  0  0  0  0  0  0  0  0  0  0
   -5.9089    2.3944   -0.7323 O   0  0  0  0  0  0  0  0  0  0  0  0
   -8.2336    2.8452   -1.1392 C   0  0  0  0  0  0  0  0  0  0  0  0
   -8.6935    1.7315   -1.7793 C   0  0  0  0  0  0  0  0  0  0  0  0
  -10.0499    1.6751   -2.1716 C   0  0  0  0  0  0  0  0  0  0  0  0
  -10.5834    0.5541   -2.8366 C   0  0  0  0  0  0  0  0  0  0  0  0
  -11.9004    0.5227   -3.2081 C   0  0  0  0  0  0  0  0  0  0  0  0
  -12.7405    1.6108   -2.9298 C   0  0  0  0  0  0  0  0  0  0  0  0
  -12.2527    2.7150   -2.2846 C   0  0  0  0  0  0  0  0  0  0  0  0
  -10.9018    2.7809   -1.8886 C   0  0  0  0  0  0  0  0  0  0  0  0
  -10.3944    3.9214   -1.2229 C   0  0  0  0  0  0  0  0  0  0  0  0
   -9.0770    3.9562   -0.8518 C   0  0  0  0  0  0  0  0  0  0  0  0
   -8.2848    4.9749   -0.1676 C   0  0  0  0  0  0  0  0  0  0  0  0
   -8.7647    6.1854    0.2673 C   0  0  0  0  0  0  0  0  0  0  0  0
  -10.0995    6.6101    0.1035 C   0  0  0  0  0  0  0  0  0  0  0  0
  -11.1675    7.0196    0.0017 N   0  0  0  0  0  0  0  0  0  0  0  0
   -8.0203    7.1795    0.9333 C   0  0  0  0  0  0  0  0  0  0  0  0
   -7.4845    8.0360    1.4819 N   0  0  0  0  0  0  0  0  0  0  0  0
    7.3593   -4.8404   -0.3814 H   0  0  0  0  0  0  0  0  0  0  0  0
    6.8693   -8.5898   -4.1132 H   0  0  0  0  0  0  0  0  0  0  0  0
    2.1801   -7.5884   -2.7571 H   0  0  0  0  0  0  0  0  0  0  0  0
    7.8433   -3.8789    1.6847 H   0  0  0  0  0  0  0  0  0  0  0  0
    7.5877   -2.3220    2.4868 H   0  0  0  0  0  0  0  0  0  0  0  0
    8.4592   -1.1263    0.4895 H   0  0  0  0  0  0  0  0  0  0  0  0
    8.7185   -2.6651   -0.3373 H   0  0  0  0  0  0  0  0  0  0  0  0
    9.6512   -2.2715    1.1092 H   0  0  0  0  0  0  0  0  0  0  0  0
   -4.5660    7.5107    1.3097 H   0  0  0  0  0  0  0  0  0  0  0  0
   -2.9278    7.4893    1.9771 H   0  0  0  0  0  0  0  0  0  0  0  0
   -3.7459    6.2693    3.9820 H   0  0  0  0  0  0  0  0  0  0  0  0
   -5.3862    6.2626    3.3246 H   0  0  0  0  0  0  0  0  0  0  0  0
   -4.6209    7.7891    3.7622 H   0  0  0  0  0  0  0  0  0  0  0  0
    0.5391   -0.4008   -0.9692 H   0  0  0  0  0  0  0  0  0  0  0  0
    1.8070   -1.6277   -0.9765 H   0  0  0  0  0  0  0  0  0  0  0  0
    1.8206   -0.2692   -3.0708 H   0  0  0  0  0  0  0  0  0  0  0  0
    3.3241   -0.0549   -2.1716 H   0  0  0  0  0  0  0  0  0  0  0  0
    2.0841    1.2006   -2.1215 H   0  0  0  0  0  0  0  0  0  0  0  0
   -0.6961   -0.0769    0.4602 H   0  0  0  0  0  0  0  0  0  0  0  0
   -2.1443    0.8734    0.7793 H   0  0  0  0  0  0  0  0  0  0  0  0
   -2.0680   -0.0228   -1.5870 H   0  0  0  0  0  0  0  0  0  0  0  0
   -0.7117    1.0696   -1.9122 H   0  0  0  0  0  0  0  0  0  0  0  0
   -2.2856    1.7186   -1.4607 H   0  0  0  0  0  0  0  0  0  0  0  0
   -6.1024    6.1232    0.9137 H   0  0  0  0  0  0  0  0  0  0  0  0
   -8.0313    0.9033   -1.9841 H   0  0  0  0  0  0  0  0  0  0  0  0
   -9.9314   -0.2810   -3.0479 H   0  0  0  0  0  0  0  0  0  0  0  0
  -12.3014   -0.3406   -3.7181 H   0  0  0  0  0  0  0  0  0  0  0  0
  -13.7770    1.5703   -3.2292 H   0  0  0  0  0  0  0  0  0  0  0  0
  -12.8961    3.5553   -2.0682 H   0  0  0  0  0  0  0  0  0  0  0  0
  -11.0674    4.7402   -1.0253 H   0  0  0  0  0  0  0  0  0  0  0  0
  1  2  2  0  0  0  0
  2  3  1  0  0  0  0
  3  4  2  0  0  0  0
  3  5  1  0  0  0  0
  5  6  2  0  0  0  0
  6  7  1  0  0  0  0
  7  8  1  0  0  0  0
  7  9  2  0  0  0  0
  9 10  1  0  0  0  0
  9 11  1  0  0  0  0
 11 12  2  0  0  0  0
 12 13  1  0  0  0  0
 13 14  2  0  0  0  0
 14 15  1  0  0  0  0
 15 16  3  0  0  0  0
 14 17  1  0  0  0  0
 17 18  3  0  0  0  0
  1 19  1  0  0  0  0
 19 20  2  0  0  0  0
 20 21  1  0  0  0  0
 21 22  1  0  0  0  0
 20 23  1  0  0  0  0
 23 24  1  0  0  0  0
 24 25  1  0  0  0  0
 25 26  1  0  0  0  0
 26 27  1  0  0  0  0
 27 28  1  0  0  0  0
 28 29  2  0  0  0  0
 29 30  1  0  0  0  0
 30 31  1  0  0  0  0
 28 32  1  0  0  0  0
 32 33  1  0  0  0  0
 33 34  1  0  0  0  0
 34 35  1  0  0  0  0
 35 36  1  0  0  0  0
 36 37  1  0  0  0  0
 37 38  1  0  0  0  0
 36 39  2  0  0  0  0
 39 40  1  0  0  0  0
 40 41  1  0  0  0  0
 41 42  1  0  0  0  0
 42 43  1  0  0  0  0
 43 44  1  0  0  0  0
 44 45  1  0  0  0  0
 45 46  1  0  0  0  0
 46 47  1  0  0  0  0
 47 48  1  0  0  0  0
 48 49  1  0  0  0  0
 46 50  1  0  0  0  0
 50 51  1  0  0  0  0
 43 52  1  0  0  0  0
 52 53  1  0  0  0  0
 39 54  1  0  0  0  0
 54 55  2  0  0  0  0
 55 56  1  0  0  0  0
 56 57  2  0  0  0  0
 56 58  1  0  0  0  0
 58 59  2  0  0  0  0
 59 60  1  0  0  0  0
 60 61  2  0  0  0  0
 61 62  1  0  0  0  0
 62 63  2  0  0  0  0
 63 64  1  0  0  0  0
 64 65  2  0  0  0  0
 65 66  1  0  0  0  0
 66 67  2  0  0  0  0
 67 68  1  0  0  0  0
 68 69  2  0  0  0  0
 69 70  1  0  0  0  0
 70 71  3  0  0  0  0
 69 72  1  0  0  0  0
 72 73  3  0  0  0  0
 13  2  1  0  0  0  0
 49 19  1  0  0  0  0
 68 55  1  0  0  0  0
 12  5  1  0  0  0  0
 48 23  2  0  0  0  0
 67 58  1  0  0  0  0
 47 25  2  0  0  0  0
 65 60  1  0  0  0  0
 45 26  2  0  0  0  0
 31 27  2  0  0  0  0
 44 32  2  0  0  0  0
 42 33  2  0  0  0  0
 41 35  2  0  0  0  0
  1 74  1  0  0  0  0
  6 75  1  0  0  0  0
 11 76  1  0  0  0  0
 21 77  1  0  0  0  0
 21 78  1  0  0  0  0
 22 79  1  0  0  0  0
 22 80  1  0  0  0  0
 22 81  1  0  0  0  0
 37 82  1  0  0  0  0
 37 83  1  0  0  0  0
 38 84  1  0  0  0  0
 38 85  1  0  0  0  0
 38 86  1  0  0  0  0
 50 87  1  0  0  0  0
 50 88  1  0  0  0  0
 51 89  1  0  0  0  0
 51 90  1  0  0  0  0
 51 91  1  0  0  0  0
 52 92  1  0  0  0  0
 52 93  1  0  0  0  0
 53 94  1  0  0  0  0
 53 95  1  0  0  0  0
 53 96  1  0  0  0  0
 54 97  1  0  0  0  0
 59 98  1  0  0  0  0
 61 99  1  0  0  0  0
 62100  1  0  0  0  0
 63101  1  0  0  0  0
 64102  1  0  0  0  0
 66103  1  0  0  0  0
M  END
