132

C          8.34250        3.55020        0.93600
C          9.40480        2.86910        0.38430
C          9.32120        1.72380       -0.52040
O          8.32080        1.18960       -0.96670
C         10.71600        1.32430       -0.80290
C         11.16630        0.28890       -1.59520
C         12.53810        0.09540       -1.70760
Cl        13.16890       -1.17750       -2.67750
C         13.40650        0.94660       -1.02160
F         14.72640        0.75300       -1.13070
C         12.95910        1.99080       -0.22600
C         11.59120        2.18260       -0.11610
C         10.80160        3.16670        0.62480
C         11.32530        4.17830        1.39000
C         10.58490        5.14450        2.10180
N         10.05670        5.96350        2.71100
C         12.70780        4.39760        1.56730
N         13.81610        4.63020        1.75430
C          6.96640        3.36100        0.80990
C          6.01960        4.14590        1.49730
C          6.33060        5.24310        2.46160
C          6.61470        4.67810        3.85640
C          4.72480        3.73470        1.22060
S          3.16110        4.28640        1.79620
C          2.41570        3.06510        0.83010
C          1.13600        2.55140        0.58110
C         -0.09450        2.88930        1.19600
N         -0.15680        3.82040        2.14420
C         -1.32450        4.06840        2.71580
C         -1.26050        4.94750        3.85710
S          0.06420        6.06830        3.93250
C         -0.41210        6.61760        5.49970
C          0.34220        7.66990        6.23620
C          1.78370        7.23890        6.50790
C         -1.51680        5.92730        5.91290
C         -2.01020        4.97850        5.00180
F         -2.09890        6.14080        7.10800
C         -2.51330        3.44810        2.22620
C         -3.85980        3.86100        2.55170
C         -4.97830        3.08120        2.42930
C         -6.15110        3.80200        2.71130
F         -7.37040        3.23470        2.67830
C         -5.96640        5.11840        3.02520
C         -6.99590        6.14660        3.34190
C         -7.07840        7.21200        2.24760
S         -4.27850        5.49380        2.98050
N         -2.43450        2.45400        1.35480
C         -1.24060        2.12770        0.86370
C         -1.09700        1.09580       -0.09720
C         -2.07420        0.25680       -0.65130
S         -3.75210       -0.09530       -0.45840
C         -3.64650       -1.24180       -1.77630
C         -4.57300       -2.12860       -2.34400
C         -6.02290       -2.16560       -1.99770
C         -6.66210       -0.77830       -2.01310
C         -3.98370       -2.88330       -3.35200
S         -2.30320       -2.43070       -3.64080
C         -2.36070       -1.31090       -2.33420
C         -1.45970       -0.46820       -1.67720
N         -0.13610       -0.12540       -1.76120
C          0.63400       -0.52090       -2.91800
C          1.15840       -1.95100       -2.80050
C          0.12210        0.81230       -0.77990
C          1.29350        1.48110       -0.34760
N          2.64070        1.34020       -0.63240
C          3.31760        2.28820        0.09420
C          4.64550        2.65660        0.31800
S          6.20120        2.12490       -0.19360
C          3.38060        0.18380       -1.08980
C          3.45320       -0.88040        0.00340
C         -4.51750       -3.89600       -4.17780
C         -5.39760       -4.86880       -3.78900
C         -5.58310       -5.30300       -2.38410
O         -5.16600       -4.76770       -1.37830
C         -6.28170       -6.60040       -2.46710
C         -6.63300       -7.44230       -1.45220
C         -7.28270       -8.65870       -1.75970
C         -7.66580       -9.56510       -0.75040
C         -8.28550      -10.74380       -1.06020
C         -8.54010      -11.04260       -2.40550
F         -9.15030      -12.20720       -2.69100
C         -8.19100      -10.19850       -3.42290
C         -7.55120       -8.98060       -3.12190
C         -7.17460       -8.08820       -4.15300
C         -6.55040       -6.91350       -3.82950
C         -6.04700       -5.82510       -4.65940
C         -6.23720       -5.68100       -6.00940
C         -6.90940       -6.62150       -6.81580
N         -7.43950       -7.35900       -7.51800
C         -5.82400       -4.55290       -6.74810
N         -5.53040       -3.65210       -7.39710
H          8.60170        4.36840        1.59360
H         10.46990       -0.35190       -2.11180
H         13.68550        2.60910        0.27530
H          7.18740        5.82970        2.12730
H          5.46300        5.90350        2.51610
H          5.75090        4.13010        4.22540
H          6.83400        5.48990        4.54370
H          7.46950        4.00620        3.83370
H          0.34880        8.59130        5.64790
H         -0.17300        7.86850        7.17830
H          2.29950        7.04270        5.57070
H          2.31410        8.02200        7.04320
H          1.80190        6.33340        7.10980
H         -2.85170        4.34360        5.20730
H         -4.95160        2.04360        2.15550
H         -7.96060        5.64550        3.44600
H         -6.75140        6.62680        4.29290
H         -7.83780        7.94760        2.49920
H         -7.33710        6.75740        1.29420
H         -6.12180        7.71900        2.14270
H         -6.12820       -2.61180       -1.00490
H         -6.54390       -2.81110       -2.70680
H         -6.51130       -0.30150       -2.97930
H         -7.73080       -0.86900       -1.83690
H         -6.24200       -0.14090       -1.24050
H          1.43460        0.20340       -3.07450
H         -0.03060       -0.46540       -3.78740
H          1.74050       -2.09040       -1.89420
H          1.77960       -2.18650       -3.66000
H          0.32580       -2.64890       -2.77960
H          2.94290       -0.23040       -1.99200
H          4.38900        0.52920       -1.33150
H          2.45450       -1.19960        0.29600
H          4.01120       -1.74120       -0.35410
H          3.95710       -0.48340        0.88130
H         -4.11750       -3.93630       -5.18490
H         -6.41670       -7.18410       -0.42630
H         -7.45860       -9.31300        0.27880
H         -8.58290      -11.44900       -0.30040
H         -8.40370      -10.46070       -4.44750
H         -7.38140       -8.36250       -5.17520
