
  xtb     02012218313D
 energy: -183.885922289815 gnorm: 0.000557431841 xtb: 6.4.1 (unknown)
 91102  0     0  0            999 V2000
   -1.6381    7.3028    4.0121 C   0  0  0  0  0  0  0  0  0  0  0  0
   -1.3129    6.9204    5.2817 C   0  0  0  0  0  0  0  0  0  0  0  0
   -1.9733    7.5679    6.4408 C   0  0  0  0  0  0  0  0  0  0  0  0
   -2.6419    8.5752    6.4322 O   0  0  0  0  0  0  0  0  0  0  0  0
   -1.6829    6.6782    7.5911 C   0  0  0  0  0  0  0  0  0  0  0  0
   -2.1510    6.7634    8.8865 C   0  0  0  0  0  0  0  0  0  0  0  0
   -1.7562    5.7892    9.7964 C   0  0  0  0  0  0  0  0  0  0  0  0
   -2.3049    5.8374   11.4260 Cl  0  0  0  0  0  0  0  0  0  0  0  0
   -0.9057    4.7626    9.3787 C   0  0  0  0  0  0  0  0  0  0  0  0
   -0.5432    3.8207   10.2576 F   0  0  0  0  0  0  0  0  0  0  0  0
   -0.4201    4.6766    8.0831 C   0  0  0  0  0  0  0  0  0  0  0  0
   -0.8161    5.6491    7.1800 C   0  0  0  0  0  0  0  0  0  0  0  0
   -0.4564    5.8700    5.7817 C   0  0  0  0  0  0  0  0  0  0  0  0
    0.6659    5.3821    5.1625 C   0  0  0  0  0  0  0  0  0  0  0  0
    1.1479    5.9009    3.9425 C   0  0  0  0  0  0  0  0  0  0  0  0
    1.5952    6.3491    2.9849 N   0  0  0  0  0  0  0  0  0  0  0  0
    1.4997    4.3889    5.7109 C   0  0  0  0  0  0  0  0  0  0  0  0
    2.1898    3.5575    6.0984 N   0  0  0  0  0  0  0  0  0  0  0  0
   -1.4975    6.5929    2.8046 C   0  0  0  0  0  0  0  0  0  0  0  0
   -1.5444    7.1327    1.5223 C   0  0  0  0  0  0  0  0  0  0  0  0
   -1.5905    8.5916    1.2211 C   0  0  0  0  0  0  0  0  0  0  0  0
   -0.2025    9.2143    1.3931 C   0  0  0  0  0  0  0  0  0  0  0  0
   -1.4281    6.1408    0.5464 C   0  0  0  0  0  0  0  0  0  0  0  0
   -1.3268    4.8373    1.0546 C   0  0  0  0  0  0  0  0  0  0  0  0
   -1.3616    4.8329    2.7776 S   0  0  0  0  0  0  0  0  0  0  0  0
   -1.2158    3.8924    0.0336 C   0  0  0  0  0  0  0  0  0  0  0  0
   -1.2515    4.4850   -1.2354 C   0  0  0  0  0  0  0  0  0  0  0  0
   -1.3997    6.2052   -1.2009 S   0  0  0  0  0  0  0  0  0  0  0  0
   -1.1679    3.4456   -2.1725 C   0  0  0  0  0  0  0  0  0  0  0  0
   -1.2890    3.4527   -3.5805 C   0  0  0  0  0  0  0  0  0  0  0  0
   -1.4655    4.4864   -4.3880 N   0  0  0  0  0  0  0  0  0  0  0  0
   -1.6280    3.9348   -5.9004 S   0  0  0  0  0  0  0  0  0  0  0  0
   -1.4775    2.3551   -5.5841 N   0  0  0  0  0  0  0  0  0  0  0  0
   -1.2924    2.2026   -4.2827 C   0  0  0  0  0  0  0  0  0  0  0  0
   -1.0413    1.0141   -3.5604 C   0  0  0  0  0  0  0  0  0  0  0  0
   -0.8208   -0.2988   -3.9933 C   0  0  0  0  0  0  0  0  0  0  0  0
   -0.8147   -1.2098   -5.4652 S   0  0  0  0  0  0  0  0  0  0  0  0
   -0.2663   -2.6074   -4.5612 C   0  0  0  0  0  0  0  0  0  0  0  0
    0.0580   -3.9005   -4.9166 C   0  0  0  0  0  0  0  0  0  0  0  0
    0.4714   -4.6750   -3.8272 C   0  0  0  0  0  0  0  0  0  0  0  0
    0.4409   -3.7528   -2.3281 S   0  0  0  0  0  0  0  0  0  0  0  0
   -0.1091   -2.3605   -3.1802 C   0  0  0  0  0  0  0  0  0  0  0  0
   -0.4394   -1.0416   -2.8664 C   0  0  0  0  0  0  0  0  0  0  0  0
   -0.4405   -0.2391   -1.7575 N   0  0  0  0  0  0  0  0  0  0  0  0
    0.2075   -0.6923   -0.5471 C   0  0  0  0  0  0  0  0  0  0  0  0
   -0.6878   -1.6196    0.2734 C   0  0  0  0  0  0  0  0  0  0  0  0
   -0.8305    1.0245   -2.1477 C   0  0  0  0  0  0  0  0  0  0  0  0
   -1.0289    2.2348   -1.4349 C   0  0  0  0  0  0  0  0  0  0  0  0
   -1.0757    2.5336   -0.0810 N   0  0  0  0  0  0  0  0  0  0  0  0
   -1.5148    1.7071    1.0238 C   0  0  0  0  0  0  0  0  0  0  0  0
   -3.0027    1.3841    0.9031 C   0  0  0  0  0  0  0  0  0  0  0  0
    0.8669   -6.0091   -3.9703 C   0  0  0  0  0  0  0  0  0  0  0  0
    1.3006   -6.9162   -3.0321 C   0  0  0  0  0  0  0  0  0  0  0  0
    1.4158   -6.6686   -1.5945 C   0  0  0  0  0  0  0  0  0  0  0  0
    1.1659   -5.6415   -0.9875 O   0  0  0  0  0  0  0  0  0  0  0  0
    1.8985   -7.9305   -1.0001 C   0  0  0  0  0  0  0  0  0  0  0  0
    2.1631   -8.2114    0.3239 C   0  0  0  0  0  0  0  0  0  0  0  0
    2.6163   -9.4844    0.6514 C   0  0  0  0  0  0  0  0  0  0  0  0
    2.9579   -9.8734    2.2892 Cl  0  0  0  0  0  0  0  0  0  0  0  0
    2.7910  -10.4382   -0.3547 C   0  0  0  0  0  0  0  0  0  0  0  0
    3.4068  -12.1698    0.0905 Br  0  0  0  0  0  0  0  0  0  0  0  0
    2.5235  -10.1529   -1.6887 C   0  0  0  0  0  0  0  0  0  0  0  0
    2.0724   -8.8854   -2.0168 C   0  0  0  0  0  0  0  0  0  0  0  0
    1.7102   -8.2814   -3.2994 C   0  0  0  0  0  0  0  0  0  0  0  0
    1.7704   -8.9167   -4.5123 C   0  0  0  0  0  0  0  0  0  0  0  0
    2.1907  -10.2536   -4.6825 C   0  0  0  0  0  0  0  0  0  0  0  0
    2.5222  -11.3329   -4.8882 N   0  0  0  0  0  0  0  0  0  0  0  0
    1.4344   -8.3513   -5.7605 C   0  0  0  0  0  0  0  0  0  0  0  0
    1.1832   -7.9700   -6.8145 N   0  0  0  0  0  0  0  0  0  0  0  0
   -2.1556    8.2553    3.9411 H   0  0  0  0  0  0  0  0  0  0  0  0
   -2.8052    7.5674    9.1838 H   0  0  0  0  0  0  0  0  0  0  0  0
    0.2343    3.8617    7.8184 H   0  0  0  0  0  0  0  0  0  0  0  0
   -1.9245    8.7247    0.1903 H   0  0  0  0  0  0  0  0  0  0  0  0
   -2.2984    9.0916    1.8852 H   0  0  0  0  0  0  0  0  0  0  0  0
   -0.2381   10.2739    1.1547 H   0  0  0  0  0  0  0  0  0  0  0  0
    0.5122    8.7306    0.7325 H   0  0  0  0  0  0  0  0  0  0  0  0
    0.1450    9.0942    2.4164 H   0  0  0  0  0  0  0  0  0  0  0  0
    0.0112   -4.2924   -5.9165 H   0  0  0  0  0  0  0  0  0  0  0  0
    1.1020   -1.2507   -0.8439 H   0  0  0  0  0  0  0  0  0  0  0  0
    0.5405    0.1777    0.0202 H   0  0  0  0  0  0  0  0  0  0  0  0
   -0.8329   -2.5575   -0.2555 H   0  0  0  0  0  0  0  0  0  0  0  0
   -0.2136   -1.8393    1.2258 H   0  0  0  0  0  0  0  0  0  0  0  0
   -1.6635   -1.1769    0.4554 H   0  0  0  0  0  0  0  0  0  0  0  0
   -1.3329    2.2808    1.9363 H   0  0  0  0  0  0  0  0  0  0  0  0
   -0.9371    0.7911    1.0863 H   0  0  0  0  0  0  0  0  0  0  0  0
   -3.2022    0.8409   -0.0187 H   0  0  0  0  0  0  0  0  0  0  0  0
   -3.3194    0.7767    1.7463 H   0  0  0  0  0  0  0  0  0  0  0  0
   -3.5901    2.2995    0.8955 H   0  0  0  0  0  0  0  0  0  0  0  0
    0.8162   -6.3557   -4.9951 H   0  0  0  0  0  0  0  0  0  0  0  0
    2.0217   -7.4602    1.0847 H   0  0  0  0  0  0  0  0  0  0  0  0
    2.6724  -10.9205   -2.4307 H   0  0  0  0  0  0  0  0  0  0  0  0
  1  2  2  0  0  0  0
  2  3  1  0  0  0  0
  3  4  2  0  0  0  0
  3  5  1  0  0  0  0
  5  6  2  0  0  0  0
  6  7  1  0  0  0  0
  7  8  1  0  0  0  0
  7  9  2  0  0  0  0
  9 10  1  0  0  0  0
  9 11  1  0  0  0  0
 11 12  2  0  0  0  0
 12 13  1  0  0  0  0
 13 14  2  0  0  0  0
 14 15  1  0  0  0  0
 15 16  3  0  0  0  0
 14 17  1  0  0  0  0
 17 18  3  0  0  0  0
  1 19  1  0  0  0  0
 19 20  2  0  0  0  0
 20 21  1  0  0  0  0
 21 22  1  0  0  0  0
 20 23  1  0  0  0  0
 23 24  2  0  0  0  0
 24 25  1  0  0  0  0
 24 26  1  0  0  0  0
 26 27  2  0  0  0  0
 27 28  1  0  0  0  0
 27 29  1  0  0  0  0
 29 30  1  0  0  0  0
 30 31  2  0  0  0  0
 31 32  1  0  0  0  0
 32 33  1  0  0  0  0
 33 34  2  0  0  0  0
 34 35  1  0  0  0  0
 35 36  1  0  0  0  0
 36 37  1  0  0  0  0
 37 38  1  0  0  0  0
 38 39  1  0  0  0  0
 39 40  2  0  0  0  0
 40 41  1  0  0  0  0
 41 42  1  0  0  0  0
 42 43  1  0  0  0  0
 43 44  1  0  0  0  0
 44 45  1  0  0  0  0
 45 46  1  0  0  0  0
 44 47  1  0  0  0  0
 47 48  1  0  0  0  0
 48 49  1  0  0  0  0
 49 50  1  0  0  0  0
 50 51  1  0  0  0  0
 40 52  1  0  0  0  0
 52 53  2  0  0  0  0
 53 54  1  0  0  0  0
 54 55  2  0  0  0  0
 54 56  1  0  0  0  0
 56 57  2  0  0  0  0
 57 58  1  0  0  0  0
 58 59  1  0  0  0  0
 58 60  2  0  0  0  0
 60 61  1  0  0  0  0
 60 62  1  0  0  0  0
 62 63  2  0  0  0  0
 63 64  1  0  0  0  0
 64 65  2  0  0  0  0
 65 66  1  0  0  0  0
 66 67  3  0  0  0  0
 65 68  1  0  0  0  0
 68 69  3  0  0  0  0
 13  2  1  0  0  0  0
 25 19  1  0  0  0  0
 49 26  1  0  0  0  0
 64 53  1  0  0  0  0
 12  5  1  0  0  0  0
 28 23  1  0  0  0  0
 48 29  2  0  0  0  0
 63 56  1  0  0  0  0
 34 30  1  0  0  0  0
 47 35  2  0  0  0  0
 43 36  2  0  0  0  0
 42 38  2  0  0  0  0
  1 70  1  0  0  0  0
  6 71  1  0  0  0  0
 11 72  1  0  0  0  0
 21 73  1  0  0  0  0
 21 74  1  0  0  0  0
 22 75  1  0  0  0  0
 22 76  1  0  0  0  0
 22 77  1  0  0  0  0
 39 78  1  0  0  0  0
 45 79  1  0  0  0  0
 45 80  1  0  0  0  0
 46 81  1  0  0  0  0
 46 82  1  0  0  0  0
 46 83  1  0  0  0  0
 50 84  1  0  0  0  0
 50 85  1  0  0  0  0
 51 86  1  0  0  0  0
 51 87  1  0  0  0  0
 51 88  1  0  0  0  0
 52 89  1  0  0  0  0
 57 90  1  0  0  0  0
 62 91  1  0  0  0  0
M  END
