
  xtb     02012223393D
 energy: -156.460672741643 gnorm: 0.000385742175 xtb: 6.4.1 (unknown)
 78 87  0     0  0            999 V2000
   -0.5049    4.9118   -5.0886 C   0  0  0  0  0  0  0  0  0  0  0  0
   -0.8375    4.9260   -6.4214 C   0  0  0  0  0  0  0  0  0  0  0  0
   -1.2113    3.7943   -7.2925 C   0  0  0  0  0  0  0  0  0  0  0  0
   -1.4501    2.6401   -6.9981 O   0  0  0  0  0  0  0  0  0  0  0  0
   -1.2360    4.3410   -8.6674 C   0  0  0  0  0  0  0  0  0  0  0  0
   -1.4795    3.6633   -9.8447 C   0  0  0  0  0  0  0  0  0  0  0  0
   -1.4386    4.3773  -11.0359 C   0  0  0  0  0  0  0  0  0  0  0  0
   -1.7274    3.5957  -12.5403 Cl  0  0  0  0  0  0  0  0  0  0  0  0
   -1.1565    5.7450  -11.0027 C   0  0  0  0  0  0  0  0  0  0  0  0
   -1.1122    6.4263  -12.1537 F   0  0  0  0  0  0  0  0  0  0  0  0
   -0.9166    6.4319   -9.8227 C   0  0  0  0  0  0  0  0  0  0  0  0
   -0.9577    5.7164   -8.6359 C   0  0  0  0  0  0  0  0  0  0  0  0
   -0.7591    6.1211   -7.2463 C   0  0  0  0  0  0  0  0  0  0  0  0
   -0.5927    7.4154   -6.8273 C   0  0  0  0  0  0  0  0  0  0  0  0
   -0.4932    7.8569   -5.4900 C   0  0  0  0  0  0  0  0  0  0  0  0
   -0.4246    8.3136   -4.4383 N   0  0  0  0  0  0  0  0  0  0  0  0
   -0.5343    8.5232   -7.7007 C   0  0  0  0  0  0  0  0  0  0  0  0
   -0.4731    9.4655   -8.3531 N   0  0  0  0  0  0  0  0  0  0  0  0
   -0.5159    3.8851   -4.1327 C   0  0  0  0  0  0  0  0  0  0  0  0
    0.1480    4.3144   -2.5407 S   0  0  0  0  0  0  0  0  0  0  0  0
   -0.1652    2.7296   -1.9675 C   0  0  0  0  0  0  0  0  0  0  0  0
   -0.0341    1.9280   -0.8382 C   0  0  0  0  0  0  0  0  0  0  0  0
    0.5653    1.9993    0.7912 S   0  0  0  0  0  0  0  0  0  0  0  0
    0.1176    0.3270    1.0088 C   0  0  0  0  0  0  0  0  0  0  0  0
   -0.4716   -0.2511   -0.1244 C   0  0  0  0  0  0  0  0  0  0  0  0
   -0.5583    0.6583   -1.1825 C   0  0  0  0  0  0  0  0  0  0  0  0
   -0.9863    0.6594   -2.4757 N   0  0  0  0  0  0  0  0  0  0  0  0
   -0.7674    1.9192   -2.9708 C   0  0  0  0  0  0  0  0  0  0  0  0
   -0.9629    2.5703   -4.1782 C   0  0  0  0  0  0  0  0  0  0  0  0
   -1.6583   -0.4220   -3.1526 C   0  0  0  0  0  0  0  0  0  0  0  0
   -3.1649   -0.3777   -2.9120 C   0  0  0  0  0  0  0  0  0  0  0  0
   -0.9230   -1.9221    0.0927 S   0  0  0  0  0  0  0  0  0  0  0  0
   -0.3101   -1.8554    1.7166 C   0  0  0  0  0  0  0  0  0  0  0  0
   -0.1421   -2.6708    2.8310 C   0  0  0  0  0  0  0  0  0  0  0  0
    0.4826   -1.8704    3.8277 C   0  0  0  0  0  0  0  0  0  0  0  0
    0.7008   -0.6093    3.3355 N   0  0  0  0  0  0  0  0  0  0  0  0
    1.2414    0.5143    4.0597 C   0  0  0  0  0  0  0  0  0  0  0  0
    0.1391    1.3227    4.7387 C   0  0  0  0  0  0  0  0  0  0  0  0
    0.2142   -0.5866    2.0629 C   0  0  0  0  0  0  0  0  0  0  0  0
    0.7349   -2.5446    5.0130 C   0  0  0  0  0  0  0  0  0  0  0  0
    0.3180   -3.8677    4.9511 C   0  0  0  0  0  0  0  0  0  0  0  0
   -0.4206   -4.2684    3.3856 S   0  0  0  0  0  0  0  0  0  0  0  0
    0.3682   -4.9207    5.8790 C   0  0  0  0  0  0  0  0  0  0  0  0
    0.9446   -5.0199    7.1202 C   0  0  0  0  0  0  0  0  0  0  0  0
    1.7998   -4.0423    7.8235 C   0  0  0  0  0  0  0  0  0  0  0  0
    2.0428   -2.8865    7.5384 O   0  0  0  0  0  0  0  0  0  0  0  0
    2.3437   -4.7605    8.9964 C   0  0  0  0  0  0  0  0  0  0  0  0
    3.2440   -4.2958    9.9337 C   0  0  0  0  0  0  0  0  0  0  0  0
    3.6110   -5.1787   10.9377 C   0  0  0  0  0  0  0  0  0  0  0  0
    4.4871   -4.7742   11.8722 F   0  0  0  0  0  0  0  0  0  0  0  0
    3.1082   -6.4694   11.0118 C   0  0  0  0  0  0  0  0  0  0  0  0
    2.2003   -6.9203   10.0657 C   0  0  0  0  0  0  0  0  0  0  0  0
    1.8118   -6.0591    9.0489 C   0  0  0  0  0  0  0  0  0  0  0  0
    0.8891   -6.2286    7.9284 C   0  0  0  0  0  0  0  0  0  0  0  0
    0.0821   -7.3193    7.7378 C   0  0  0  0  0  0  0  0  0  0  0  0
    0.0817   -8.4569    8.5737 C   0  0  0  0  0  0  0  0  0  0  0  0
    0.0328   -9.4132    9.2066 N   0  0  0  0  0  0  0  0  0  0  0  0
   -0.8907   -7.4734    6.7261 C   0  0  0  0  0  0  0  0  0  0  0  0
   -1.7186   -7.6814    5.9575 N   0  0  0  0  0  0  0  0  0  0  0  0
   -0.1409    5.8506   -4.6879 H   0  0  0  0  0  0  0  0  0  0  0  0
   -1.6937    2.6065   -9.8362 H   0  0  0  0  0  0  0  0  0  0  0  0
   -0.7035    7.4870   -9.8705 H   0  0  0  0  0  0  0  0  0  0  0  0
   -1.3969    2.1428   -5.0626 H   0  0  0  0  0  0  0  0  0  0  0  0
   -1.4431   -0.3370   -4.2202 H   0  0  0  0  0  0  0  0  0  0  0  0
   -1.2471   -1.3643   -2.7803 H   0  0  0  0  0  0  0  0  0  0  0  0
   -3.6459   -1.1991   -3.4345 H   0  0  0  0  0  0  0  0  0  0  0  0
   -3.5787    0.5593   -3.2770 H   0  0  0  0  0  0  0  0  0  0  0  0
   -3.3814   -0.4669   -1.8500 H   0  0  0  0  0  0  0  0  0  0  0  0
    1.9418    0.1295    4.8045 H   0  0  0  0  0  0  0  0  0  0  0  0
    1.7859    1.1456    3.3520 H   0  0  0  0  0  0  0  0  0  0  0  0
    0.5744    2.1593    5.2768 H   0  0  0  0  0  0  0  0  0  0  0  0
   -0.5569    1.7102    3.9984 H   0  0  0  0  0  0  0  0  0  0  0  0
   -0.4080    0.7003    5.4428 H   0  0  0  0  0  0  0  0  0  0  0  0
    1.1987   -2.1300    5.8884 H   0  0  0  0  0  0  0  0  0  0  0  0
   -0.1175   -5.8188    5.5152 H   0  0  0  0  0  0  0  0  0  0  0  0
    3.6435   -3.2954    9.8861 H   0  0  0  0  0  0  0  0  0  0  0  0
    3.4333   -7.1144   11.8128 H   0  0  0  0  0  0  0  0  0  0  0  0
    1.8204   -7.9260   10.1328 H   0  0  0  0  0  0  0  0  0  0  0  0
  1  2  2  0  0  0  0
  2  3  1  0  0  0  0
  3  4  2  0  0  0  0
  3  5  1  0  0  0  0
  5  6  2  0  0  0  0
  6  7  1  0  0  0  0
  7  8  1  0  0  0  0
  7  9  2  0  0  0  0
  9 10  1  0  0  0  0
  9 11  1  0  0  0  0
 11 12  2  0  0  0  0
 12 13  1  0  0  0  0
 13 14  2  0  0  0  0
 14 15  1  0  0  0  0
 15 16  3  0  0  0  0
 14 17  1  0  0  0  0
 17 18  3  0  0  0  0
  1 19  1  0  0  0  0
 19 20  1  0  0  0  0
 20 21  1  0  0  0  0
 21 22  1  0  0  0  0
 22 23  1  0  0  0  0
 23 24  1  0  0  0  0
 24 25  2  0  0  0  0
 25 26  1  0  0  0  0
 26 27  1  0  0  0  0
 27 28  1  0  0  0  0
 28 29  1  0  0  0  0
 27 30  1  0  0  0  0
 30 31  1  0  0  0  0
 25 32  1  0  0  0  0
 32 33  1  0  0  0  0
 33 34  1  0  0  0  0
 34 35  2  0  0  0  0
 35 36  1  0  0  0  0
 36 37  1  0  0  0  0
 37 38  1  0  0  0  0
 36 39  1  0  0  0  0
 35 40  1  0  0  0  0
 40 41  2  0  0  0  0
 41 42  1  0  0  0  0
 41 43  1  0  0  0  0
 43 44  2  0  0  0  0
 44 45  1  0  0  0  0
 45 46  2  0  0  0  0
 45 47  1  0  0  0  0
 47 48  2  0  0  0  0
 48 49  1  0  0  0  0
 49 50  1  0  0  0  0
 49 51  2  0  0  0  0
 51 52  1  0  0  0  0
 52 53  2  0  0  0  0
 53 54  1  0  0  0  0
 54 55  2  0  0  0  0
 55 56  1  0  0  0  0
 56 57  3  0  0  0  0
 55 58  1  0  0  0  0
 58 59  3  0  0  0  0
 13  2  1  0  0  0  0
 29 19  2  0  0  0  0
 39 33  2  0  0  0  0
 54 44  1  0  0  0  0
 12  5  1  0  0  0  0
 28 21  2  0  0  0  0
 42 34  1  0  0  0  0
 53 47  1  0  0  0  0
 26 22  2  0  0  0  0
 39 24  1  0  0  0  0
  1 60  1  0  0  0  0
  6 61  1  0  0  0  0
 11 62  1  0  0  0  0
 29 63  1  0  0  0  0
 30 64  1  0  0  0  0
 30 65  1  0  0  0  0
 31 66  1  0  0  0  0
 31 67  1  0  0  0  0
 31 68  1  0  0  0  0
 37 69  1  0  0  0  0
 37 70  1  0  0  0  0
 38 71  1  0  0  0  0
 38 72  1  0  0  0  0
 38 73  1  0  0  0  0
 40 74  1  0  0  0  0
 43 75  1  0  0  0  0
 48 76  1  0  0  0  0
 51 77  1  0  0  0  0
 52 78  1  0  0  0  0
M  END
