98

C         -7.06900       -2.66600        5.83920
C         -6.64260       -2.26970        7.08970
C         -5.42450       -1.52630        7.36260
O         -4.58000       -1.15480        6.55560
C         -5.39010       -1.29740        8.81900
C         -4.44060       -0.63050        9.56560
C         -4.63050       -0.53830       10.93970
Cl        -3.48780        0.28060       11.93040
C         -5.76360       -1.11790       11.51380
F         -5.94130       -1.02420       12.83670
C         -6.72070       -1.79080       10.76800
C         -6.53040       -1.88170        9.39900
C         -7.33020       -2.50510        8.34300
C         -8.50630       -3.18060        8.54210
C         -9.10720       -3.36240        9.80610
N         -9.64820       -3.54190       10.80230
C         -9.28590       -3.79340        7.53840
N         -9.97640       -4.31880        6.78540
C         -6.49940       -2.47200        4.57950
C         -7.13350       -2.94720        3.42420
C         -6.48330       -2.67010        2.24060
S         -6.92300       -3.04170        0.58210
C         -5.48970       -2.23300        0.05490
C         -4.85060       -1.87180       -1.13480
C         -5.25640       -2.04930       -2.47610
C         -4.46010       -1.47740       -3.51790
N         -4.97550       -1.68140       -4.71990
S         -6.34650       -2.52550       -4.55240
N         -6.33480       -2.66130       -2.93910
C         -3.25460       -0.82690       -3.17370
C         -2.26500       -0.27040       -3.99080
C         -1.23080        0.15050       -3.14740
N         -1.55480       -0.11680       -1.84580
C         -0.55520        0.11650       -0.83160
C         -0.48630        1.58910       -0.42690
C         -2.80760       -0.70160       -1.82050
C         -3.65920       -1.16310       -0.77880
N         -3.61850       -1.07750        0.59970
C         -4.71370       -1.72540        1.10440
C         -5.26780       -1.95750        2.36370
Se        -4.87870       -1.57640        4.14820
C         -2.76400       -0.36470        1.51830
C         -1.78230       -1.29910        2.22510
C         -0.13860        0.68510       -3.83630
C         -0.38230        0.67090       -5.22550
S         -1.94200       -0.00220       -5.66750
C          0.63260        1.17890       -6.01420
C          1.76060        1.62200       -5.31920
Se         1.54720        1.38900       -3.44790
C          2.86030        2.15940       -6.00260
C          4.06190        2.62900       -5.53230
C          4.47400        2.64200       -4.13450
O          3.80830        2.28950       -3.16550
C          5.84810        3.15620       -4.09860
C          6.65940        3.31990       -2.97810
C          7.91160        3.80940       -3.26240
C          8.32450        4.11850       -4.56510
C          7.53110        3.96750       -5.67850
C          6.25450        3.46610       -5.41380
C          5.15070        3.16660       -6.32680
C          5.16070        3.38430       -7.67970
C          6.25010        3.92570       -8.39510
N          7.09200        4.35640       -9.04610
C          4.09420        3.12050       -8.56520
N          3.27810        2.94280       -9.35420
C          9.69890        4.54390       -4.11430
C         10.87010        3.55760       -4.34780
C         10.26780        2.17460       -4.37280
C          9.87740        1.88070       -3.13980
C         10.20850        3.05980       -2.25860
C         11.49240        3.55650       -2.94230
C          9.23930        4.19880       -2.66260
H         -8.00480       -3.21210        5.80170
H         -3.57600       -0.19250        9.09340
H         -7.57140       -2.21410       11.27650
H         -8.06680       -3.48260        3.47350
H         -0.73580       -0.53320        0.02010
H          0.41500       -0.16500       -1.26400
H         -0.09370        2.18350       -1.25120
H         -1.46830        1.98160       -0.16980
H          0.17850        1.70740        0.42400
H         -2.25640        0.44230        0.99830
H         -3.41460        0.08810        2.27950
H         -1.23570       -1.91730        1.51580
H         -2.32020       -1.96150        2.90250
H         -1.07490       -0.71730        2.80890
H          0.57280        1.23340       -7.08820
H          2.71430        2.19020       -7.07650
H          6.30020        3.07030       -1.99200
H          7.86700        4.21100       -6.67240
H          9.97440        5.57390       -4.33140
H         11.51670        3.81460       -5.18230
H         10.14040        1.59320       -5.26710
H          9.35810        1.00450       -2.79810
H         10.25390        2.86330       -1.19060
H         12.31850        2.85330       -2.84830
H         11.80900        4.54310       -2.60700
H          9.21580        5.00320       -1.93010
