
  xtb     02012222073D
 energy: -259.884643500585 gnorm: 0.000433709900 xtb: 6.4.1 (unknown)
150165  0     0  0            999 V2000
    2.8930   -7.0834    5.4098 C   0  0  0  0  0  0  0  0  0  0  0  0
    3.6851   -6.8673    6.5153 C   0  0  0  0  0  0  0  0  0  0  0  0
    3.9618   -5.5759    7.1458 C   0  0  0  0  0  0  0  0  0  0  0  0
    3.5515   -4.4766    6.8213 O   0  0  0  0  0  0  0  0  0  0  0  0
    4.8597   -5.8647    8.2854 C   0  0  0  0  0  0  0  0  0  0  0  0
    5.4050   -4.9788    9.1910 C   0  0  0  0  0  0  0  0  0  0  0  0
    6.2324   -5.4829   10.1877 C   0  0  0  0  0  0  0  0  0  0  0  0
    6.9465   -4.4349   11.3500 Cl  0  0  0  0  0  0  0  0  0  0  0  0
    6.4820   -6.8555   10.2392 C   0  0  0  0  0  0  0  0  0  0  0  0
    7.2801   -7.3351   11.2010 F   0  0  0  0  0  0  0  0  0  0  0  0
    5.9360   -7.7506    9.3314 C   0  0  0  0  0  0  0  0  0  0  0  0
    5.1115   -7.2459    8.3386 C   0  0  0  0  0  0  0  0  0  0  0  0
    4.3927   -7.8986    7.2440 C   0  0  0  0  0  0  0  0  0  0  0  0
    4.4223   -9.2454    6.9790 C   0  0  0  0  0  0  0  0  0  0  0  0
    5.1516  -10.1832    7.7398 C   0  0  0  0  0  0  0  0  0  0  0  0
    5.7215  -10.9976    8.3142 N   0  0  0  0  0  0  0  0  0  0  0  0
    3.7498   -9.8966    5.9247 C   0  0  0  0  0  0  0  0  0  0  0  0
    3.2365  -10.5054    5.0958 N   0  0  0  0  0  0  0  0  0  0  0  0
    2.1965   -6.1945    4.5901 C   0  0  0  0  0  0  0  0  0  0  0  0
    1.4591   -6.6201    3.4657 C   0  0  0  0  0  0  0  0  0  0  0  0
    1.2380   -8.0373    3.0480 C   0  0  0  0  0  0  0  0  0  0  0  0
    0.1100   -8.6772    3.8624 C   0  0  0  0  0  0  0  0  0  0  0  0
    0.9100   -5.5403    2.7968 C   0  0  0  0  0  0  0  0  0  0  0  0
   -0.0515   -5.4121    1.3422 S   0  0  0  0  0  0  0  0  0  0  0  0
   -0.0373   -3.6929    1.5189 C   0  0  0  0  0  0  0  0  0  0  0  0
   -0.5033   -2.5794    0.7856 C   0  0  0  0  0  0  0  0  0  0  0  0
   -0.1002   -1.4122    1.4348 C   0  0  0  0  0  0  0  0  0  0  0  0
    0.6469   -1.7298    2.7057 C   0  0  0  0  0  0  0  0  0  0  0  0
    0.6486   -3.2371    2.6458 C   0  0  0  0  0  0  0  0  0  0  0  0
    1.1999   -4.2847    3.3728 C   0  0  0  0  0  0  0  0  0  0  0  0
    2.1668   -4.4380    4.7866 S   0  0  0  0  0  0  0  0  0  0  0  0
    2.0838   -1.2404    2.7313 C   0  0  0  0  0  0  0  0  0  0  0  0
    2.7816   -1.2785    3.9322 C   0  0  0  0  0  0  0  0  0  0  0  0
    4.1002   -0.8732    3.9857 C   0  0  0  0  0  0  0  0  0  0  0  0
    4.7542   -0.4187    2.8469 C   0  0  0  0  0  0  0  0  0  0  0  0
    6.1692    0.0769    2.9228 C   0  0  0  0  0  0  0  0  0  0  0  0
    6.1933    1.5623    3.2896 C   0  0  0  0  0  0  0  0  0  0  0  0
    4.0526   -0.3899    1.6500 C   0  0  0  0  0  0  0  0  0  0  0  0
    2.7340   -0.8042    1.5873 C   0  0  0  0  0  0  0  0  0  0  0  0
   -0.1382   -1.1579    3.8744 C   0  0  0  0  0  0  0  0  0  0  0  0
   -0.9803   -1.9418    4.6480 C   0  0  0  0  0  0  0  0  0  0  0  0
   -1.6995   -1.3771    5.6858 C   0  0  0  0  0  0  0  0  0  0  0  0
   -1.6025   -0.0218    5.9692 C   0  0  0  0  0  0  0  0  0  0  0  0
   -2.4226    0.5933    7.0659 C   0  0  0  0  0  0  0  0  0  0  0  0
   -3.7900    1.0236    6.5309 C   0  0  0  0  0  0  0  0  0  0  0  0
   -0.7658    0.7593    5.1817 C   0  0  0  0  0  0  0  0  0  0  0  0
   -0.0405    0.2004    4.1479 C   0  0  0  0  0  0  0  0  0  0  0  0
   -0.4829   -0.2796    0.7266 C   0  0  0  0  0  0  0  0  0  0  0  0
   -0.2300    1.4284    0.9211 S   0  0  0  0  0  0  0  0  0  0  0  0
   -0.9973    1.6949   -0.6076 C   0  0  0  0  0  0  0  0  0  0  0  0
   -1.2566    2.7970   -1.4537 C   0  0  0  0  0  0  0  0  0  0  0  0
   -1.8881    2.3391   -2.6097 C   0  0  0  0  0  0  0  0  0  0  0  0
   -2.0883    0.8444   -2.5618 C   0  0  0  0  0  0  0  0  0  0  0  0
   -3.5444    0.4149   -2.5079 C   0  0  0  0  0  0  0  0  0  0  0  0
   -4.5693    1.3186   -2.2730 C   0  0  0  0  0  0  0  0  0  0  0  0
   -5.8813    0.8845   -2.2115 C   0  0  0  0  0  0  0  0  0  0  0  0
   -6.1992   -0.4568   -2.3735 C   0  0  0  0  0  0  0  0  0  0  0  0
   -7.6204   -0.9283   -2.2663 C   0  0  0  0  0  0  0  0  0  0  0  0
   -7.9596   -1.2810   -0.8165 C   0  0  0  0  0  0  0  0  0  0  0  0
   -5.1650   -1.3587   -2.5925 C   0  0  0  0  0  0  0  0  0  0  0  0
   -3.8538   -0.9308   -2.6610 C   0  0  0  0  0  0  0  0  0  0  0  0
   -1.3798    0.2268   -3.7542 C   0  0  0  0  0  0  0  0  0  0  0  0
   -0.0924   -0.2794   -3.6605 C   0  0  0  0  0  0  0  0  0  0  0  0
    0.5337   -0.8045   -4.7765 C   0  0  0  0  0  0  0  0  0  0  0  0
   -0.1035   -0.8269   -6.0090 C   0  0  0  0  0  0  0  0  0  0  0  0
    0.5951   -1.3567   -7.2275 C   0  0  0  0  0  0  0  0  0  0  0  0
    1.3379   -0.2299   -7.9485 C   0  0  0  0  0  0  0  0  0  0  0  0
   -1.3863   -0.3006   -6.0990 C   0  0  0  0  0  0  0  0  0  0  0  0
   -2.0192    0.2199   -4.9875 C   0  0  0  0  0  0  0  0  0  0  0  0
   -1.4474    0.5320   -1.2318 C   0  0  0  0  0  0  0  0  0  0  0  0
   -1.1635   -0.5955   -0.4702 C   0  0  0  0  0  0  0  0  0  0  0  0
   -1.3601   -2.3070   -0.6948 S   0  0  0  0  0  0  0  0  0  0  0  0
   -2.1016    3.3730   -3.5127 C   0  0  0  0  0  0  0  0  0  0  0  0
   -1.6360    4.6154   -3.0415 C   0  0  0  0  0  0  0  0  0  0  0  0
   -0.9436    4.4948   -1.4456 S   0  0  0  0  0  0  0  0  0  0  0  0
   -1.8031    5.6831   -3.9270 C   0  0  0  0  0  0  0  0  0  0  0  0
   -1.5429    7.1054   -3.5445 C   0  0  0  0  0  0  0  0  0  0  0  0
   -0.0900    7.3524   -3.1400 C   0  0  0  0  0  0  0  0  0  0  0  0
   -2.4065    5.2502   -5.1063 C   0  0  0  0  0  0  0  0  0  0  0  0
   -2.8176    3.5311   -5.0664 S   0  0  0  0  0  0  0  0  0  0  0  0
   -2.8075    5.9680   -6.2527 C   0  0  0  0  0  0  0  0  0  0  0  0
   -2.1243    6.9978   -6.8449 C   0  0  0  0  0  0  0  0  0  0  0  0
   -0.6663    7.2040   -6.7030 C   0  0  0  0  0  0  0  0  0  0  0  0
    0.1121    6.5815   -6.0144 O   0  0  0  0  0  0  0  0  0  0  0  0
   -0.3199    8.2389   -7.7041 C   0  0  0  0  0  0  0  0  0  0  0  0
    0.9199    8.7800   -7.9755 C   0  0  0  0  0  0  0  0  0  0  0  0
    1.0152    9.7395   -8.9765 C   0  0  0  0  0  0  0  0  0  0  0  0
    2.5289   10.4614   -9.3592 Cl  0  0  0  0  0  0  0  0  0  0  0  0
   -0.1339   10.1159   -9.6755 C   0  0  0  0  0  0  0  0  0  0  0  0
   -0.0332   11.0360  -10.6423 F   0  0  0  0  0  0  0  0  0  0  0  0
   -1.3816    9.5720   -9.4120 C   0  0  0  0  0  0  0  0  0  0  0  0
   -1.4742    8.6195   -8.4096 C   0  0  0  0  0  0  0  0  0  0  0  0
   -2.6141    7.8699   -7.8879 C   0  0  0  0  0  0  0  0  0  0  0  0
   -3.9231    8.0308   -8.2644 C   0  0  0  0  0  0  0  0  0  0  0  0
   -4.3486    8.9101   -9.2810 C   0  0  0  0  0  0  0  0  0  0  0  0
   -4.7494    9.6036  -10.1031 N   0  0  0  0  0  0  0  0  0  0  0  0
   -5.0119    7.3620   -7.6672 C   0  0  0  0  0  0  0  0  0  0  0  0
   -5.9443    6.8714   -7.2107 N   0  0  0  0  0  0  0  0  0  0  0  0
    2.7939   -8.1153    5.1024 H   0  0  0  0  0  0  0  0  0  0  0  0
    5.1928   -3.9238    9.1244 H   0  0  0  0  0  0  0  0  0  0  0  0
    6.1711   -8.7976    9.4298 H   0  0  0  0  0  0  0  0  0  0  0  0
    0.9628   -8.0441    1.9912 H   0  0  0  0  0  0  0  0  0  0  0  0
    2.1479   -8.6277    3.1660 H   0  0  0  0  0  0  0  0  0  0  0  0
    0.3571   -8.6875    4.9211 H   0  0  0  0  0  0  0  0  0  0  0  0
   -0.0437   -9.7014    3.5352 H   0  0  0  0  0  0  0  0  0  0  0  0
   -0.8165   -8.1237    3.7274 H   0  0  0  0  0  0  0  0  0  0  0  0
    2.2891   -1.6246    4.8287 H   0  0  0  0  0  0  0  0  0  0  0  0
    4.6290   -0.9148    4.9264 H   0  0  0  0  0  0  0  0  0  0  0  0
    6.7184   -0.4888    3.6779 H   0  0  0  0  0  0  0  0  0  0  0  0
    6.6652   -0.0646    1.9605 H   0  0  0  0  0  0  0  0  0  0  0  0
    7.2175    1.9228    3.3507 H   0  0  0  0  0  0  0  0  0  0  0  0
    5.7103    1.7220    4.2509 H   0  0  0  0  0  0  0  0  0  0  0  0
    5.6635    2.1458    2.5399 H   0  0  0  0  0  0  0  0  0  0  0  0
    4.5430   -0.0438    0.7513 H   0  0  0  0  0  0  0  0  0  0  0  0
    2.2158   -0.7842    0.6398 H   0  0  0  0  0  0  0  0  0  0  0  0
   -1.0750   -2.9989    4.4482 H   0  0  0  0  0  0  0  0  0  0  0  0
   -2.3443   -2.0028    6.2862 H   0  0  0  0  0  0  0  0  0  0  0  0
   -2.5630   -0.1286    7.8728 H   0  0  0  0  0  0  0  0  0  0  0  0
   -1.9046    1.4642    7.4720 H   0  0  0  0  0  0  0  0  0  0  0  0
   -3.6712    1.7524    5.7322 H   0  0  0  0  0  0  0  0  0  0  0  0
   -4.3856    1.4700    7.3235 H   0  0  0  0  0  0  0  0  0  0  0  0
   -4.3278    0.1658    6.1330 H   0  0  0  0  0  0  0  0  0  0  0  0
   -0.6767    1.8171    5.3830 H   0  0  0  0  0  0  0  0  0  0  0  0
    0.6152    0.8197    3.5528 H   0  0  0  0  0  0  0  0  0  0  0  0
   -4.3502    2.3681   -2.1424 H   0  0  0  0  0  0  0  0  0  0  0  0
   -6.6696    1.6030   -2.0388 H   0  0  0  0  0  0  0  0  0  0  0  0
   -8.2972   -0.1453   -2.6136 H   0  0  0  0  0  0  0  0  0  0  0  0
   -7.7657   -1.8096   -2.8940 H   0  0  0  0  0  0  0  0  0  0  0  0
   -7.2993   -2.0654   -0.4533 H   0  0  0  0  0  0  0  0  0  0  0  0
   -7.8393   -0.4096   -0.1766 H   0  0  0  0  0  0  0  0  0  0  0  0
   -8.9872   -1.6285   -0.7407 H   0  0  0  0  0  0  0  0  0  0  0  0
   -5.3890   -2.4082   -2.7173 H   0  0  0  0  0  0  0  0  0  0  0  0
   -3.0629   -1.6435   -2.8458 H   0  0  0  0  0  0  0  0  0  0  0  0
    0.4291   -0.2679   -2.7147 H   0  0  0  0  0  0  0  0  0  0  0  0
    1.5338   -1.2035   -4.6851 H   0  0  0  0  0  0  0  0  0  0  0  0
   -0.1344   -1.7995   -7.9084 H   0  0  0  0  0  0  0  0  0  0  0  0
    1.3082   -2.1312   -6.9388 H   0  0  0  0  0  0  0  0  0  0  0  0
    2.0826    0.2137   -7.2914 H   0  0  0  0  0  0  0  0  0  0  0  0
    1.8391   -0.6114   -8.8348 H   0  0  0  0  0  0  0  0  0  0  0  0
    0.6420    0.5495   -8.2505 H   0  0  0  0  0  0  0  0  0  0  0  0
   -1.8983   -0.3012   -7.0503 H   0  0  0  0  0  0  0  0  0  0  0  0
   -3.0197    0.6185   -5.0733 H   0  0  0  0  0  0  0  0  0  0  0  0
   -2.1916    7.3413   -2.6938 H   0  0  0  0  0  0  0  0  0  0  0  0
   -1.8162    7.7645   -4.3686 H   0  0  0  0  0  0  0  0  0  0  0  0
    0.1703    6.7689   -2.2608 H   0  0  0  0  0  0  0  0  0  0  0  0
    0.5745    7.0749   -3.9528 H   0  0  0  0  0  0  0  0  0  0  0  0
    0.0524    8.4055   -2.9112 H   0  0  0  0  0  0  0  0  0  0  0  0
   -3.7154    5.6127   -6.7267 H   0  0  0  0  0  0  0  0  0  0  0  0
    1.7902    8.4668   -7.4212 H   0  0  0  0  0  0  0  0  0  0  0  0
   -2.2280    9.9007   -9.9928 H   0  0  0  0  0  0  0  0  0  0  0  0
  1  2  2  0  0  0  0
  2  3  1  0  0  0  0
  3  4  2  0  0  0  0
  3  5  1  0  0  0  0
  5  6  2  0  0  0  0
  6  7  1  0  0  0  0
  7  8  1  0  0  0  0
  7  9  2  0  0  0  0
  9 10  1  0  0  0  0
  9 11  1  0  0  0  0
 11 12  2  0  0  0  0
 12 13  1  0  0  0  0
 13 14  2  0  0  0  0
 14 15  1  0  0  0  0
 15 16  3  0  0  0  0
 14 17  1  0  0  0  0
 17 18  3  0  0  0  0
  1 19  1  0  0  0  0
 19 20  2  0  0  0  0
 20 21  1  0  0  0  0
 21 22  1  0  0  0  0
 20 23  1  0  0  0  0
 23 24  1  0  0  0  0
 24 25  1  0  0  0  0
 25 26  1  0  0  0  0
 26 27  2  0  0  0  0
 27 28  1  0  0  0  0
 28 29  1  0  0  0  0
 29 30  1  0  0  0  0
 30 31  1  0  0  0  0
 28 32  1  0  0  0  0
 32 33  2  0  0  0  0
 33 34  1  0  0  0  0
 34 35  2  0  0  0  0
 35 36  1  0  0  0  0
 36 37  1  0  0  0  0
 35 38  1  0  0  0  0
 38 39  2  0  0  0  0
 28 40  1  0  0  0  0
 40 41  2  0  0  0  0
 41 42  1  0  0  0  0
 42 43  2  0  0  0  0
 43 44  1  0  0  0  0
 44 45  1  0  0  0  0
 43 46  1  0  0  0  0
 46 47  2  0  0  0  0
 27 48  1  0  0  0  0
 48 49  1  0  0  0  0
 49 50  1  0  0  0  0
 50 51  1  0  0  0  0
 51 52  2  0  0  0  0
 52 53  1  0  0  0  0
 53 54  1  0  0  0  0
 54 55  2  0  0  0  0
 55 56  1  0  0  0  0
 56 57  2  0  0  0  0
 57 58  1  0  0  0  0
 58 59  1  0  0  0  0
 57 60  1  0  0  0  0
 60 61  2  0  0  0  0
 53 62  1  0  0  0  0
 62 63  2  0  0  0  0
 63 64  1  0  0  0  0
 64 65  2  0  0  0  0
 65 66  1  0  0  0  0
 66 67  1  0  0  0  0
 65 68  1  0  0  0  0
 68 69  2  0  0  0  0
 53 70  1  0  0  0  0
 70 71  1  0  0  0  0
 71 72  1  0  0  0  0
 52 73  1  0  0  0  0
 73 74  2  0  0  0  0
 74 75  1  0  0  0  0
 74 76  1  0  0  0  0
 76 77  1  0  0  0  0
 77 78  1  0  0  0  0
 76 79  2  0  0  0  0
 79 80  1  0  0  0  0
 79 81  1  0  0  0  0
 81 82  2  0  0  0  0
 82 83  1  0  0  0  0
 83 84  2  0  0  0  0
 83 85  1  0  0  0  0
 85 86  2  0  0  0  0
 86 87  1  0  0  0  0
 87 88  1  0  0  0  0
 87 89  2  0  0  0  0
 89 90  1  0  0  0  0
 89 91  1  0  0  0  0
 91 92  2  0  0  0  0
 92 93  1  0  0  0  0
 93 94  2  0  0  0  0
 94 95  1  0  0  0  0
 95 96  3  0  0  0  0
 94 97  1  0  0  0  0
 97 98  3  0  0  0  0
 13  2  1  0  0  0  0
 31 19  1  0  0  0  0
 39 32  1  0  0  0  0
 47 40  1  0  0  0  0
 71 48  2  0  0  0  0
 80 73  1  0  0  0  0
 93 82  1  0  0  0  0
 12  5  1  0  0  0  0
 30 23  2  0  0  0  0
 70 50  2  0  0  0  0
 92 85  1  0  0  0  0
 29 25  2  0  0  0  0
 75 51  1  0  0  0  0
 72 26  1  0  0  0  0
 61 54  1  0  0  0  0
 69 62  1  0  0  0  0
  1 99  1  0  0  0  0
  6100  1  0  0  0  0
 11101  1  0  0  0  0
 21102  1  0  0  0  0
 21103  1  0  0  0  0
 22104  1  0  0  0  0
 22105  1  0  0  0  0
 22106  1  0  0  0  0
 33107  1  0  0  0  0
 34108  1  0  0  0  0
 36109  1  0  0  0  0
 36110  1  0  0  0  0
 37111  1  0  0  0  0
 37112  1  0  0  0  0
 37113  1  0  0  0  0
 38114  1  0  0  0  0
 39115  1  0  0  0  0
 41116  1  0  0  0  0
 42117  1  0  0  0  0
 44118  1  0  0  0  0
 44119  1  0  0  0  0
 45120  1  0  0  0  0
 45121  1  0  0  0  0
 45122  1  0  0  0  0
 46123  1  0  0  0  0
 47124  1  0  0  0  0
 55125  1  0  0  0  0
 56126  1  0  0  0  0
 58127  1  0  0  0  0
 58128  1  0  0  0  0
 59129  1  0  0  0  0
 59130  1  0  0  0  0
 59131  1  0  0  0  0
 60132  1  0  0  0  0
 61133  1  0  0  0  0
 63134  1  0  0  0  0
 64135  1  0  0  0  0
 66136  1  0  0  0  0
 66137  1  0  0  0  0
 67138  1  0  0  0  0
 67139  1  0  0  0  0
 67140  1  0  0  0  0
 68141  1  0  0  0  0
 69142  1  0  0  0  0
 77143  1  0  0  0  0
 77144  1  0  0  0  0
 78145  1  0  0  0  0
 78146  1  0  0  0  0
 78147  1  0  0  0  0
 81148  1  0  0  0  0
 86149  1  0  0  0  0
 91150  1  0  0  0  0
M  END
