
  xtb     01212212433D
 energy: -195.872123778882 gnorm: 0.000777829661 xtb: 6.4.1 (unknown)
103114  0     0  0            999 V2000
   -2.3775    3.5158   -2.6491 C   0  0  0  0  0  0  0  0  0  0  0  0
   -1.8420    4.1883   -1.5659 C   0  0  0  0  0  0  0  0  0  0  0  0
   -1.8387    3.7343   -0.1781 C   0  0  0  0  0  0  0  0  0  0  0  0
   -2.5105    2.8562    0.3349 O   0  0  0  0  0  0  0  0  0  0  0  0
   -0.8420    4.5748    0.5223 C   0  0  0  0  0  0  0  0  0  0  0  0
   -0.3800    4.4541    1.8160 C   0  0  0  0  0  0  0  0  0  0  0  0
    0.6223    5.3200    2.2402 C   0  0  0  0  0  0  0  0  0  0  0  0
    1.2707    5.1941    3.8337 Cl  0  0  0  0  0  0  0  0  0  0  0  0
    1.1114    6.2807    1.3549 C   0  0  0  0  0  0  0  0  0  0  0  0
    2.0936    7.0965    1.7656 F   0  0  0  0  0  0  0  0  0  0  0  0
    0.6351    6.4205    0.0590 C   0  0  0  0  0  0  0  0  0  0  0  0
   -0.3554    5.5488   -0.3646 C   0  0  0  0  0  0  0  0  0  0  0  0
   -1.0279    5.3806   -1.6552 C   0  0  0  0  0  0  0  0  0  0  0  0
   -0.9011    6.2321   -2.7247 C   0  0  0  0  0  0  0  0  0  0  0  0
   -0.0966    7.3897   -2.7122 C   0  0  0  0  0  0  0  0  0  0  0  0
    0.5415    8.3430   -2.7588 N   0  0  0  0  0  0  0  0  0  0  0  0
   -1.5698    6.0940   -3.9578 C   0  0  0  0  0  0  0  0  0  0  0  0
   -2.0800    6.0462   -4.9864 N   0  0  0  0  0  0  0  0  0  0  0  0
   -2.9561    2.2505   -2.7207 C   0  0  0  0  0  0  0  0  0  0  0  0
   -3.1084    1.5339   -3.9347 C   0  0  0  0  0  0  0  0  0  0  0  0
   -2.9045    2.1835   -5.2692 C   0  0  0  0  0  0  0  0  0  0  0  0
   -3.3685    1.3382   -6.4469 C   0  0  0  0  0  0  0  0  0  0  0  0
   -3.3989    0.1966   -3.7020 C   0  0  0  0  0  0  0  0  0  0  0  0
   -3.3655   -1.4066   -4.7507 Se  0  0  0  0  0  2  0  0  0  0  0  0
   -3.4405   -2.3151   -3.1238 C   0  0  0  0  0  0  0  0  0  0  0  0
   -3.1707   -3.5853   -2.5889 C   0  0  0  0  0  0  0  0  0  0  0  0
   -2.7895   -4.8093   -3.1868 C   0  0  0  0  0  0  0  0  0  0  0  0
   -2.2243   -5.8447   -2.3641 C   0  0  0  0  0  0  0  0  0  0  0  0
   -1.8664   -6.9075   -3.0624 N   0  0  0  0  0  0  0  0  0  0  0  0
   -2.2165   -6.6401   -4.6230 S   0  0  0  0  0  0  0  0  0  0  0  0
   -2.8253   -5.1458   -4.4644 N   0  0  0  0  0  0  0  0  0  0  0  0
   -1.9616   -5.5672   -1.0013 C   0  0  0  0  0  0  0  0  0  0  0  0
   -0.9817   -6.0965   -0.1489 C   0  0  0  0  0  0  0  0  0  0  0  0
    0.4582   -7.2752   -0.2734 Se  0  0  0  0  0  2  0  0  0  0  0  0
    1.2385   -6.2395    1.1135 C   0  0  0  0  0  0  0  0  0  0  0  0
    2.5888   -5.9462    1.3843 C   0  0  0  0  0  0  0  0  0  0  0  0
    3.7252   -6.7280    0.8158 C   0  0  0  0  0  0  0  0  0  0  0  0
    3.6203   -8.2077    1.1781 C   0  0  0  0  0  0  0  0  0  0  0  0
    2.7208   -4.7244    2.0283 C   0  0  0  0  0  0  0  0  0  0  0  0
    1.1633   -4.0955    2.5642 S   0  0  0  0  0  0  0  0  0  0  0  0
    0.3434   -5.2846    1.6109 C   0  0  0  0  0  0  0  0  0  0  0  0
   -0.8766   -5.2087    0.9344 C   0  0  0  0  0  0  0  0  0  0  0  0
   -1.8053   -4.2105    0.8134 N   0  0  0  0  0  0  0  0  0  0  0  0
   -2.4486   -4.3773   -0.3928 C   0  0  0  0  0  0  0  0  0  0  0  0
   -3.1607   -3.4351   -1.1722 C   0  0  0  0  0  0  0  0  0  0  0  0
   -3.5488   -2.1493   -0.8552 N   0  0  0  0  0  0  0  0  0  0  0  0
   -3.6225   -1.4531   -2.0343 C   0  0  0  0  0  0  0  0  0  0  0  0
   -3.5707   -0.0939   -2.3318 C   0  0  0  0  0  0  0  0  0  0  0  0
   -3.3416    1.2642   -1.3144 S   0  0  0  0  0  0  0  0  0  0  0  0
   -4.3072   -1.6930    0.2926 C   0  0  0  0  0  0  0  0  0  0  0  0
   -5.7633   -1.4236   -0.0881 C   0  0  0  0  0  0  0  0  0  0  0  0
   -1.8631   -3.1162    1.7490 C   0  0  0  0  0  0  0  0  0  0  0  0
   -2.7356   -3.4564    2.9562 C   0  0  0  0  0  0  0  0  0  0  0  0
    3.8116   -3.8167    2.0664 C   0  0  0  0  0  0  0  0  0  0  0  0
    3.6655   -2.4767    1.8246 C   0  0  0  0  0  0  0  0  0  0  0  0
    4.6641   -1.4788    2.2954 C   0  0  0  0  0  0  0  0  0  0  0  0
    5.7733   -1.7038    2.7171 O   0  0  0  0  0  0  0  0  0  0  0  0
    3.9863   -0.1628    2.1671 C   0  0  0  0  0  0  0  0  0  0  0  0
    4.4458    1.0888    2.5266 C   0  0  0  0  0  0  0  0  0  0  0  0
    3.6220    2.1804    2.2566 C   0  0  0  0  0  0  0  0  0  0  0  0
    4.0070    3.4828    2.4876 O   0  0  0  0  0  0  0  0  0  0  0  0
    4.6181    3.8435    3.6446 C   0  0  0  0  0  0  0  0  0  0  0  0
    4.7961    3.0964    4.5630 O   0  0  0  0  0  0  0  0  0  0  0  0
    5.0021    5.2919    3.5865 C   0  0  0  0  0  0  0  0  0  0  0  0
    2.3736    2.0079    1.6616 C   0  0  0  0  0  0  0  0  0  0  0  0
    1.9173    0.7512    1.3077 C   0  0  0  0  0  0  0  0  0  0  0  0
    2.7327   -0.3428    1.5556 C   0  0  0  0  0  0  0  0  0  0  0  0
    2.5780   -1.7476    1.2019 C   0  0  0  0  0  0  0  0  0  0  0  0
    1.7147   -2.1967    0.2293 C   0  0  0  0  0  0  0  0  0  0  0  0
    0.6228   -1.4728   -0.2852 C   0  0  0  0  0  0  0  0  0  0  0  0
   -0.3415   -1.0037   -0.7008 N   0  0  0  0  0  0  0  0  0  0  0  0
    1.8131   -3.4430   -0.4187 C   0  0  0  0  0  0  0  0  0  0  0  0
    1.8699   -4.4044   -1.0449 N   0  0  0  0  0  0  0  0  0  0  0  0
   -2.2177    3.9819   -3.6121 H   0  0  0  0  0  0  0  0  0  0  0  0
   -0.7778    3.6981    2.4745 H   0  0  0  0  0  0  0  0  0  0  0  0
    1.0579    7.1856   -0.5713 H   0  0  0  0  0  0  0  0  0  0  0  0
   -3.4452    3.1340   -5.2794 H   0  0  0  0  0  0  0  0  0  0  0  0
   -1.8422    2.4169   -5.3935 H   0  0  0  0  0  0  0  0  0  0  0  0
   -3.3052    1.9218   -7.3617 H   0  0  0  0  0  0  0  0  0  0  0  0
   -2.7424    0.4535   -6.5670 H   0  0  0  0  0  0  0  0  0  0  0  0
   -4.4006    1.0194   -6.3107 H   0  0  0  0  0  0  0  0  0  0  0  0
    3.6936   -6.6211   -0.2731 H   0  0  0  0  0  0  0  0  0  0  0  0
    4.6715   -6.3187    1.1714 H   0  0  0  0  0  0  0  0  0  0  0  0
    2.6976   -8.6331    0.7817 H   0  0  0  0  0  0  0  0  0  0  0  0
    3.6278   -8.3388    2.2579 H   0  0  0  0  0  0  0  0  0  0  0  0
    4.4593   -8.7540    0.7557 H   0  0  0  0  0  0  0  0  0  0  0  0
   -3.8584   -0.7717    0.6785 H   0  0  0  0  0  0  0  0  0  0  0  0
   -4.2901   -2.4665    1.0569 H   0  0  0  0  0  0  0  0  0  0  0  0
   -6.2115   -2.3110   -0.5306 H   0  0  0  0  0  0  0  0  0  0  0  0
   -6.3249   -1.1560    0.8027 H   0  0  0  0  0  0  0  0  0  0  0  0
   -5.8344   -0.6045   -0.7981 H   0  0  0  0  0  0  0  0  0  0  0  0
   -2.1961   -2.2195    1.2328 H   0  0  0  0  0  0  0  0  0  0  0  0
   -0.8468   -2.9209    2.1014 H   0  0  0  0  0  0  0  0  0  0  0  0
   -2.2862   -4.2706    3.5198 H   0  0  0  0  0  0  0  0  0  0  0  0
   -3.7325   -3.7691    2.6522 H   0  0  0  0  0  0  0  0  0  0  0  0
   -2.8211   -2.5906    3.6063 H   0  0  0  0  0  0  0  0  0  0  0  0
    4.8030   -4.1711    2.3243 H   0  0  0  0  0  0  0  0  0  0  0  0
    5.4131    1.2082    2.9879 H   0  0  0  0  0  0  0  0  0  0  0  0
    5.3225    5.6238    4.5690 H   0  0  0  0  0  0  0  0  0  0  0  0
    5.8182    5.4127    2.8767 H   0  0  0  0  0  0  0  0  0  0  0  0
    4.1646    5.8899    3.2368 H   0  0  0  0  0  0  0  0  0  0  0  0
    1.7683    2.8809    1.4728 H   0  0  0  0  0  0  0  0  0  0  0  0
    0.9438    0.6419    0.8570 H   0  0  0  0  0  0  0  0  0  0  0  0
  1  2  2  0  0  0  0
  2  3  1  0  0  0  0
  3  4  2  0  0  0  0
  3  5  1  0  0  0  0
  5  6  2  0  0  0  0
  6  7  1  0  0  0  0
  7  8  1  0  0  0  0
  7  9  2  0  0  0  0
  9 10  1  0  0  0  0
  9 11  1  0  0  0  0
 11 12  2  0  0  0  0
 12 13  1  0  0  0  0
 13 14  2  0  0  0  0
 14 15  1  0  0  0  0
 15 16  3  0  0  0  0
 14 17  1  0  0  0  0
 17 18  3  0  0  0  0
  1 19  1  0  0  0  0
 19 20  2  0  0  0  0
 20 21  1  0  0  0  0
 21 22  1  0  0  0  0
 20 23  1  0  0  0  0
 23 24  1  0  0  0  0
 24 25  1  0  0  0  0
 25 26  1  0  0  0  0
 26 27  1  0  0  0  0
 27 28  1  0  0  0  0
 28 29  2  0  0  0  0
 29 30  1  0  0  0  0
 30 31  1  0  0  0  0
 28 32  1  0  0  0  0
 32 33  1  0  0  0  0
 33 34  1  0  0  0  0
 34 35  1  0  0  0  0
 35 36  1  0  0  0  0
 36 37  1  0  0  0  0
 37 38  1  0  0  0  0
 36 39  2  0  0  0  0
 39 40  1  0  0  0  0
 40 41  1  0  0  0  0
 41 42  1  0  0  0  0
 42 43  1  0  0  0  0
 43 44  1  0  0  0  0
 44 45  1  0  0  0  0
 45 46  1  0  0  0  0
 46 47  1  0  0  0  0
 47 48  1  0  0  0  0
 48 49  1  0  0  0  0
 46 50  1  0  0  0  0
 50 51  1  0  0  0  0
 43 52  1  0  0  0  0
 52 53  1  0  0  0  0
 39 54  1  0  0  0  0
 54 55  2  0  0  0  0
 55 56  1  0  0  0  0
 56 57  2  0  0  0  0
 56 58  1  0  0  0  0
 58 59  2  0  0  0  0
 59 60  1  0  0  0  0
 60 61  1  0  0  0  0
 61 62  1  0  0  0  0
 62 63  2  0  0  0  0
 62 64  1  0  0  0  0
 60 65  2  0  0  0  0
 65 66  1  0  0  0  0
 66 67  2  0  0  0  0
 67 68  1  0  0  0  0
 68 69  2  0  0  0  0
 69 70  1  0  0  0  0
 70 71  3  0  0  0  0
 69 72  1  0  0  0  0
 72 73  3  0  0  0  0
 13  2  1  0  0  0  0
 49 19  1  0  0  0  0
 68 55  1  0  0  0  0
 12  5  1  0  0  0  0
 48 23  2  0  0  0  0
 67 58  1  0  0  0  0
 47 25  2  0  0  0  0
 45 26  2  0  0  0  0
 31 27  2  0  0  0  0
 44 32  2  0  0  0  0
 42 33  2  0  0  0  0
 41 35  2  0  0  0  0
  1 74  1  0  0  0  0
  6 75  1  0  0  0  0
 11 76  1  0  0  0  0
 21 77  1  0  0  0  0
 21 78  1  0  0  0  0
 22 79  1  0  0  0  0
 22 80  1  0  0  0  0
 22 81  1  0  0  0  0
 37 82  1  0  0  0  0
 37 83  1  0  0  0  0
 38 84  1  0  0  0  0
 38 85  1  0  0  0  0
 38 86  1  0  0  0  0
 50 87  1  0  0  0  0
 50 88  1  0  0  0  0
 51 89  1  0  0  0  0
 51 90  1  0  0  0  0
 51 91  1  0  0  0  0
 52 92  1  0  0  0  0
 52 93  1  0  0  0  0
 53 94  1  0  0  0  0
 53 95  1  0  0  0  0
 53 96  1  0  0  0  0
 54 97  1  0  0  0  0
 59 98  1  0  0  0  0
 64 99  1  0  0  0  0
 64100  1  0  0  0  0
 64101  1  0  0  0  0
 65102  1  0  0  0  0
 66103  1  0  0  0  0
M  END
