
  xtb     02012219273D
 energy: -180.495977514390 gnorm: 0.000599930625 xtb: 6.4.1 (unknown)
 91102  0     0  0            999 V2000
   -4.1983    5.2835    1.5124 C   0  0  0  0  0  0  0  0  0  0  0  0
   -5.0915    4.7361    2.4056 C   0  0  0  0  0  0  0  0  0  0  0  0
   -5.1174    3.3465    2.8598 C   0  0  0  0  0  0  0  0  0  0  0  0
   -4.3734    2.4370    2.5361 O   0  0  0  0  0  0  0  0  0  0  0  0
   -6.2397    3.2507    3.8166 C   0  0  0  0  0  0  0  0  0  0  0  0
   -6.6733    2.1468    4.5211 C   0  0  0  0  0  0  0  0  0  0  0  0
   -7.7598    2.2966    5.3749 C   0  0  0  0  0  0  0  0  0  0  0  0
   -8.3531    0.9620    6.2839 Cl  0  0  0  0  0  0  0  0  0  0  0  0
   -8.3707    3.5468    5.4911 C   0  0  0  0  0  0  0  0  0  0  0  0
   -9.4158    3.6848    6.3155 F   0  0  0  0  0  0  0  0  0  0  0  0
   -7.9390    4.6598    4.7852 C   0  0  0  0  0  0  0  0  0  0  0  0
   -6.8559    4.5082    3.9343 C   0  0  0  0  0  0  0  0  0  0  0  0
   -6.1623    5.4570    3.0629 C   0  0  0  0  0  0  0  0  0  0  0  0
   -6.4957    6.7802    2.9198 C   0  0  0  0  0  0  0  0  0  0  0  0
   -7.5581    7.4050    3.6069 C   0  0  0  0  0  0  0  0  0  0  0  0
   -8.4046    7.9748    4.1322 N   0  0  0  0  0  0  0  0  0  0  0  0
   -5.8473    7.7104    2.0811 C   0  0  0  0  0  0  0  0  0  0  0  0
   -5.3776    8.5280    1.4242 N   0  0  0  0  0  0  0  0  0  0  0  0
   -3.1327    4.7143    0.8141 C   0  0  0  0  0  0  0  0  0  0  0  0
   -2.3217    5.4476   -0.0741 C   0  0  0  0  0  0  0  0  0  0  0  0
   -2.4997    6.8856   -0.4351 C   0  0  0  0  0  0  0  0  0  0  0  0
   -3.5556    7.0439   -1.5330 C   0  0  0  0  0  0  0  0  0  0  0  0
   -1.3422    4.6470   -0.6412 C   0  0  0  0  0  0  0  0  0  0  0  0
   -1.3679    3.3085   -0.2054 C   0  0  0  0  0  0  0  0  0  0  0  0
   -2.6359    3.0234    0.9247 S   0  0  0  0  0  0  0  0  0  0  0  0
   -0.3515    2.5656   -0.8097 C   0  0  0  0  0  0  0  0  0  0  0  0
    0.4148    3.3294   -1.7012 C   0  0  0  0  0  0  0  0  0  0  0  0
   -0.0729    4.9846   -1.8037 S   0  0  0  0  0  0  0  0  0  0  0  0
    1.3414    2.4622   -2.2910 C   0  0  0  0  0  0  0  0  0  0  0  0
    2.2528    2.6617   -3.3522 C   0  0  0  0  0  0  0  0  0  0  0  0
    2.5136    3.7749   -4.0188 N   0  0  0  0  0  0  0  0  0  0  0  0
    3.5701    3.4320   -5.1964 S   0  0  0  0  0  0  0  0  0  0  0  0
    3.7365    1.8502   -4.8994 N   0  0  0  0  0  0  0  0  0  0  0  0
    2.9722    1.5339   -3.8663 C   0  0  0  0  0  0  0  0  0  0  0  0
    2.8441    0.2870   -3.2135 C   0  0  0  0  0  0  0  0  0  0  0  0
    3.5151   -0.9259   -3.4128 C   0  0  0  0  0  0  0  0  0  0  0  0
    4.6838   -1.6144   -4.4875 S   0  0  0  0  0  0  0  0  0  0  0  0
    4.6415   -3.0858   -3.5367 C   0  0  0  0  0  0  0  0  0  0  0  0
    5.3024   -4.2941   -3.6293 C   0  0  0  0  0  0  0  0  0  0  0  0
    4.9446   -5.1868   -2.6147 C   0  0  0  0  0  0  0  0  0  0  0  0
    3.7532   -4.4857   -1.5244 S   0  0  0  0  0  0  0  0  0  0  0  0
    3.7537   -3.0267   -2.4418 C   0  0  0  0  0  0  0  0  0  0  0  0
    3.1086   -1.7895   -2.3873 C   0  0  0  0  0  0  0  0  0  0  0  0
    2.1851   -1.1696   -1.5850 N   0  0  0  0  0  0  0  0  0  0  0  0
    2.0107   -1.6775   -0.2400 C   0  0  0  0  0  0  0  0  0  0  0  0
    3.0309   -1.0553    0.7107 C   0  0  0  0  0  0  0  0  0  0  0  0
    1.9970    0.1109   -2.0786 C   0  0  0  0  0  0  0  0  0  0  0  0
    1.1432    1.1786   -1.6974 C   0  0  0  0  0  0  0  0  0  0  0  0
    0.0854    1.2681   -0.8158 N   0  0  0  0  0  0  0  0  0  0  0  0
   -0.7362    0.2363   -0.2234 C   0  0  0  0  0  0  0  0  0  0  0  0
   -0.5575    0.1535    1.2917 C   0  0  0  0  0  0  0  0  0  0  0  0
    5.4945   -6.4714   -2.5299 C   0  0  0  0  0  0  0  0  0  0  0  0
    5.2727   -7.4785   -1.6224 C   0  0  0  0  0  0  0  0  0  0  0  0
    4.3708   -7.4072   -0.4713 C   0  0  0  0  0  0  0  0  0  0  0  0
    3.6702   -6.4710   -0.1268 O   0  0  0  0  0  0  0  0  0  0  0  0
    4.4746   -8.7121    0.2111 C   0  0  0  0  0  0  0  0  0  0  0  0
    3.8226   -9.1384    1.3499 C   0  0  0  0  0  0  0  0  0  0  0  0
    4.1032  -10.4253    1.7843 C   0  0  0  0  0  0  0  0  0  0  0  0
    3.4936  -10.8857    2.8890 F   0  0  0  0  0  0  0  0  0  0  0  0
    4.9920  -11.2562    1.1190 C   0  0  0  0  0  0  0  0  0  0  0  0
    5.6400  -10.8132   -0.0246 C   0  0  0  0  0  0  0  0  0  0  0  0
    5.3816   -9.5302   -0.4851 C   0  0  0  0  0  0  0  0  0  0  0  0
    5.8958   -8.7883   -1.6371 C   0  0  0  0  0  0  0  0  0  0  0  0
    6.7969   -9.2743   -2.5482 C   0  0  0  0  0  0  0  0  0  0  0  0
    7.3004   -8.5781   -3.6675 C   0  0  0  0  0  0  0  0  0  0  0  0
    7.7586   -8.0868   -4.5993 N   0  0  0  0  0  0  0  0  0  0  0  0
    7.3582  -10.5681   -2.4945 C   0  0  0  0  0  0  0  0  0  0  0  0
    7.8534  -11.6034   -2.5127 N   0  0  0  0  0  0  0  0  0  0  0  0
   -4.3304    6.3361    1.3033 H   0  0  0  0  0  0  0  0  0  0  0  0
   -6.1805    1.1942    4.4102 H   0  0  0  0  0  0  0  0  0  0  0  0
   -8.4565    5.5948    4.9231 H   0  0  0  0  0  0  0  0  0  0  0  0
   -1.5445    7.2647   -0.8035 H   0  0  0  0  0  0  0  0  0  0  0  0
   -2.7902    7.4770    0.4342 H   0  0  0  0  0  0  0  0  0  0  0  0
   -4.5212    6.6744   -1.1960 H   0  0  0  0  0  0  0  0  0  0  0  0
   -3.2621    6.4914   -2.4225 H   0  0  0  0  0  0  0  0  0  0  0  0
   -3.6609    8.0934   -1.7917 H   0  0  0  0  0  0  0  0  0  0  0  0
    6.0193   -4.5441   -4.3904 H   0  0  0  0  0  0  0  0  0  0  0  0
    2.1657   -2.7581   -0.2897 H   0  0  0  0  0  0  0  0  0  0  0  0
    1.0042   -1.4996    0.1223 H   0  0  0  0  0  0  0  0  0  0  0  0
    2.9100    0.0256    0.7502 H   0  0  0  0  0  0  0  0  0  0  0  0
    2.9010   -1.4628    1.7093 H   0  0  0  0  0  0  0  0  0  0  0  0
    4.0419   -1.2760    0.3764 H   0  0  0  0  0  0  0  0  0  0  0  0
   -1.7812    0.4898   -0.4330 H   0  0  0  0  0  0  0  0  0  0  0  0
   -0.5241   -0.7106   -0.7218 H   0  0  0  0  0  0  0  0  0  0  0  0
   -1.0983   -0.7057    1.6782 H   0  0  0  0  0  0  0  0  0  0  0  0
   -0.9622    1.0460    1.7610 H   0  0  0  0  0  0  0  0  0  0  0  0
    0.4899    0.0678    1.5678 H   0  0  0  0  0  0  0  0  0  0  0  0
    6.2048   -6.6766   -3.3215 H   0  0  0  0  0  0  0  0  0  0  0  0
    3.1289   -8.5028    1.8765 H   0  0  0  0  0  0  0  0  0  0  0  0
    5.1713  -12.2482    1.5026 H   0  0  0  0  0  0  0  0  0  0  0  0
    6.3281  -11.4692   -0.5312 H   0  0  0  0  0  0  0  0  0  0  0  0
  1  2  2  0  0  0  0
  2  3  1  0  0  0  0
  3  4  2  0  0  0  0
  3  5  1  0  0  0  0
  5  6  2  0  0  0  0
  6  7  1  0  0  0  0
  7  8  1  0  0  0  0
  7  9  2  0  0  0  0
  9 10  1  0  0  0  0
  9 11  1  0  0  0  0
 11 12  2  0  0  0  0
 12 13  1  0  0  0  0
 13 14  2  0  0  0  0
 14 15  1  0  0  0  0
 15 16  3  0  0  0  0
 14 17  1  0  0  0  0
 17 18  3  0  0  0  0
  1 19  1  0  0  0  0
 19 20  2  0  0  0  0
 20 21  1  0  0  0  0
 21 22  1  0  0  0  0
 20 23  1  0  0  0  0
 23 24  2  0  0  0  0
 24 25  1  0  0  0  0
 24 26  1  0  0  0  0
 26 27  2  0  0  0  0
 27 28  1  0  0  0  0
 27 29  1  0  0  0  0
 29 30  1  0  0  0  0
 30 31  2  0  0  0  0
 31 32  1  0  0  0  0
 32 33  1  0  0  0  0
 33 34  2  0  0  0  0
 34 35  1  0  0  0  0
 35 36  1  0  0  0  0
 36 37  1  0  0  0  0
 37 38  1  0  0  0  0
 38 39  1  0  0  0  0
 39 40  2  0  0  0  0
 40 41  1  0  0  0  0
 41 42  1  0  0  0  0
 42 43  1  0  0  0  0
 43 44  1  0  0  0  0
 44 45  1  0  0  0  0
 45 46  1  0  0  0  0
 44 47  1  0  0  0  0
 47 48  1  0  0  0  0
 48 49  1  0  0  0  0
 49 50  1  0  0  0  0
 50 51  1  0  0  0  0
 40 52  1  0  0  0  0
 52 53  2  0  0  0  0
 53 54  1  0  0  0  0
 54 55  2  0  0  0  0
 54 56  1  0  0  0  0
 56 57  2  0  0  0  0
 57 58  1  0  0  0  0
 58 59  1  0  0  0  0
 58 60  2  0  0  0  0
 60 61  1  0  0  0  0
 61 62  2  0  0  0  0
 62 63  1  0  0  0  0
 63 64  2  0  0  0  0
 64 65  1  0  0  0  0
 65 66  3  0  0  0  0
 64 67  1  0  0  0  0
 67 68  3  0  0  0  0
 13  2  1  0  0  0  0
 25 19  1  0  0  0  0
 49 26  1  0  0  0  0
 63 53  1  0  0  0  0
 12  5  1  0  0  0  0
 28 23  1  0  0  0  0
 48 29  2  0  0  0  0
 62 56  1  0  0  0  0
 34 30  1  0  0  0  0
 47 35  2  0  0  0  0
 43 36  2  0  0  0  0
 42 38  2  0  0  0  0
  1 69  1  0  0  0  0
  6 70  1  0  0  0  0
 11 71  1  0  0  0  0
 21 72  1  0  0  0  0
 21 73  1  0  0  0  0
 22 74  1  0  0  0  0
 22 75  1  0  0  0  0
 22 76  1  0  0  0  0
 39 77  1  0  0  0  0
 45 78  1  0  0  0  0
 45 79  1  0  0  0  0
 46 80  1  0  0  0  0
 46 81  1  0  0  0  0
 46 82  1  0  0  0  0
 50 83  1  0  0  0  0
 50 84  1  0  0  0  0
 51 85  1  0  0  0  0
 51 86  1  0  0  0  0
 51 87  1  0  0  0  0
 52 88  1  0  0  0  0
 57 89  1  0  0  0  0
 60 90  1  0  0  0  0
 61 91  1  0  0  0  0
M  END
