
  xtb     02012219013D
 energy: -291.634047352955 gnorm: 0.000478942826 xtb: 6.4.1 (unknown)
175192  0     0  0            999 V2000
   -2.4801    6.1469   -7.4446 C   0  0  0  0  0  0  0  0  0  0  0  0
   -1.9338    7.2428   -8.0734 C   0  0  0  0  0  0  0  0  0  0  0  0
   -0.5925    7.8309   -7.9015 C   0  0  0  0  0  0  0  0  0  0  0  0
    0.3525    7.4253   -7.2552 O   0  0  0  0  0  0  0  0  0  0  0  0
   -0.5985    9.0778   -8.7007 C   0  0  0  0  0  0  0  0  0  0  0  0
    0.4152   10.0044   -8.8331 C   0  0  0  0  0  0  0  0  0  0  0  0
    0.1881   11.1181   -9.6322 C   0  0  0  0  0  0  0  0  0  0  0  0
    1.4066   12.3151   -9.8391 Cl  0  0  0  0  0  0  0  0  0  0  0  0
   -1.0458   11.2612  -10.2695 C   0  0  0  0  0  0  0  0  0  0  0  0
   -1.2608   12.3389  -11.0347 F   0  0  0  0  0  0  0  0  0  0  0  0
   -2.0659   10.3310  -10.1432 C   0  0  0  0  0  0  0  0  0  0  0  0
   -1.8365    9.2208   -9.3453 C   0  0  0  0  0  0  0  0  0  0  0  0
   -2.6760    8.0733   -9.0049 C   0  0  0  0  0  0  0  0  0  0  0  0
   -3.9228    7.8427   -9.5290 C   0  0  0  0  0  0  0  0  0  0  0  0
   -4.5692    8.7107  -10.4349 C   0  0  0  0  0  0  0  0  0  0  0  0
   -5.1568    9.3709  -11.1676 N   0  0  0  0  0  0  0  0  0  0  0  0
   -4.7450    6.7214   -9.2882 C   0  0  0  0  0  0  0  0  0  0  0  0
   -5.4816    5.8474   -9.1704 N   0  0  0  0  0  0  0  0  0  0  0  0
   -1.9528    5.2364   -6.5224 C   0  0  0  0  0  0  0  0  0  0  0  0
   -3.0872    4.0201   -5.9061 S   0  0  0  0  0  0  0  0  0  0  0  0
   -1.8614    3.3587   -4.9240 C   0  0  0  0  0  0  0  0  0  0  0  0
   -1.7189    2.3404   -3.9609 C   0  0  0  0  0  0  0  0  0  0  0  0
   -0.4120    2.3604   -3.4703 C   0  0  0  0  0  0  0  0  0  0  0  0
    0.4098    3.4241   -4.1557 C   0  0  0  0  0  0  0  0  0  0  0  0
   -0.6316    4.0257   -5.0710 C   0  0  0  0  0  0  0  0  0  0  0  0
   -0.6847    5.0764   -5.9598 C   0  0  0  0  0  0  0  0  0  0  0  0
    0.9315    4.5070   -3.2284 C   0  0  0  0  0  0  0  0  0  0  0  0
    1.8665    5.4118   -3.7164 C   0  0  0  0  0  0  0  0  0  0  0  0
    2.3502    6.4207   -2.9076 C   0  0  0  0  0  0  0  0  0  0  0  0
    1.9164    6.5522   -1.5940 C   0  0  0  0  0  0  0  0  0  0  0  0
    2.4204    7.6701   -0.7277 C   0  0  0  0  0  0  0  0  0  0  0  0
    1.5379    8.9096   -0.8877 C   0  0  0  0  0  0  0  0  0  0  0  0
    0.9713    5.6546   -1.1184 C   0  0  0  0  0  0  0  0  0  0  0  0
    0.4783    4.6449   -1.9257 C   0  0  0  0  0  0  0  0  0  0  0  0
    1.5561    2.7375   -4.8801 C   0  0  0  0  0  0  0  0  0  0  0  0
    2.6793    2.3601   -4.1548 C   0  0  0  0  0  0  0  0  0  0  0  0
    3.7238    1.7033   -4.7750 C   0  0  0  0  0  0  0  0  0  0  0  0
    3.6748    1.4072   -6.1317 C   0  0  0  0  0  0  0  0  0  0  0  0
    4.7935    0.6549   -6.7924 C   0  0  0  0  0  0  0  0  0  0  0  0
    4.5708   -0.8531   -6.6599 C   0  0  0  0  0  0  0  0  0  0  0  0
    2.5457    1.7793   -6.8477 C   0  0  0  0  0  0  0  0  0  0  0  0
    1.4942    2.4340   -6.2316 C   0  0  0  0  0  0  0  0  0  0  0  0
   -0.2253    1.3948   -2.4885 C   0  0  0  0  0  0  0  0  0  0  0  0
    1.0890    0.9378   -1.4475 S   0  0  0  0  0  0  0  0  0  0  0  0
    0.0504   -0.2087   -0.6684 C   0  0  0  0  0  0  0  0  0  0  0  0
    0.1744   -1.1014    0.4401 C   0  0  0  0  0  0  0  0  0  0  0  0
    1.2440   -1.3590    1.2937 C   0  0  0  0  0  0  0  0  0  0  0  0
    1.0272   -2.2459    2.3224 C   0  0  0  0  0  0  0  0  0  0  0  0
    2.0023   -2.6834    3.4028 C   0  0  0  0  0  0  0  0  0  0  0  0
    3.1297   -3.5597    2.8849 C   0  0  0  0  0  0  0  0  0  0  0  0
    4.1947   -3.8590    3.7264 C   0  0  0  0  0  0  0  0  0  0  0  0
    5.2097   -4.6950    3.3041 C   0  0  0  0  0  0  0  0  0  0  0  0
    5.1852   -5.2618    2.0358 C   0  0  0  0  0  0  0  0  0  0  0  0
    6.3097   -6.1358    1.5606 C   0  0  0  0  0  0  0  0  0  0  0  0
    7.3722   -5.2986    0.8456 C   0  0  0  0  0  0  0  0  0  0  0  0
    4.1160   -4.9647    1.2023 C   0  0  0  0  0  0  0  0  0  0  0  0
    3.0959   -4.1290    1.6206 C   0  0  0  0  0  0  0  0  0  0  0  0
    2.5232   -1.4479    4.1115 C   0  0  0  0  0  0  0  0  0  0  0  0
    3.6435   -0.7858    3.6251 C   0  0  0  0  0  0  0  0  0  0  0  0
    4.0969    0.3676    4.2362 C   0  0  0  0  0  0  0  0  0  0  0  0
    3.4426    0.8940    5.3426 C   0  0  0  0  0  0  0  0  0  0  0  0
    3.9703    2.1149    6.0386 C   0  0  0  0  0  0  0  0  0  0  0  0
    4.9819    1.7170    7.1154 C   0  0  0  0  0  0  0  0  0  0  0  0
    2.3174    0.2344    5.8178 C   0  0  0  0  0  0  0  0  0  0  0  0
    1.8574   -0.9180    5.2077 C   0  0  0  0  0  0  0  0  0  0  0  0
    1.1098   -3.5484    4.2572 C   0  0  0  0  0  0  0  0  0  0  0  0
   -0.1679   -3.6381    3.6949 C   0  0  0  0  0  0  0  0  0  0  0  0
   -0.2417   -2.8442    2.5116 C   0  0  0  0  0  0  0  0  0  0  0  0
   -1.3060   -2.6017    1.6445 C   0  0  0  0  0  0  0  0  0  0  0  0
   -1.0819   -1.7356    0.6021 C   0  0  0  0  0  0  0  0  0  0  0  0
   -2.0626   -1.2782   -0.4640 C   0  0  0  0  0  0  0  0  0  0  0  0
   -3.2969   -0.7094    0.2077 C   0  0  0  0  0  0  0  0  0  0  0  0
   -3.3751    0.6342    0.5443 C   0  0  0  0  0  0  0  0  0  0  0  0
   -4.4924    1.1318    1.1894 C   0  0  0  0  0  0  0  0  0  0  0  0
   -5.5536    0.3014    1.5214 C   0  0  0  0  0  0  0  0  0  0  0  0
   -6.7477    0.8309    2.2612 C   0  0  0  0  0  0  0  0  0  0  0  0
   -6.5695    0.6391    3.7688 C   0  0  0  0  0  0  0  0  0  0  0  0
   -5.4628   -1.0464    1.1970 C   0  0  0  0  0  0  0  0  0  0  0  0
   -4.3503   -1.5480    0.5499 C   0  0  0  0  0  0  0  0  0  0  0  0
   -2.4154   -2.3622   -1.4694 C   0  0  0  0  0  0  0  0  0  0  0  0
   -1.6976   -3.5459   -1.5562 C   0  0  0  0  0  0  0  0  0  0  0  0
   -2.0199   -4.4893   -2.5153 C   0  0  0  0  0  0  0  0  0  0  0  0
   -3.0527   -4.2705   -3.4163 C   0  0  0  0  0  0  0  0  0  0  0  0
   -3.4298   -5.3183   -4.4230 C   0  0  0  0  0  0  0  0  0  0  0  0
   -4.4751   -6.2689   -3.8357 C   0  0  0  0  0  0  0  0  0  0  0  0
   -3.7598   -3.0773   -3.3320 C   0  0  0  0  0  0  0  0  0  0  0  0
   -3.4452   -2.1334   -2.3743 C   0  0  0  0  0  0  0  0  0  0  0  0
   -1.2327   -0.2526   -1.1878 C   0  0  0  0  0  0  0  0  0  0  0  0
   -1.3994    0.6537   -2.2311 C   0  0  0  0  0  0  0  0  0  0  0  0
   -2.7325    1.1397   -3.2299 S   0  0  0  0  0  0  0  0  0  0  0  0
   -1.2440   -4.6075    4.5976 S   0  0  0  0  0  0  0  0  0  0  0  0
    0.0266   -4.9152    5.7765 C   0  0  0  0  0  0  0  0  0  0  0  0
    1.2252   -4.2738    5.4196 C   0  0  0  0  0  0  0  0  0  0  0  0
   -0.0862   -5.6607    6.9532 C   0  0  0  0  0  0  0  0  0  0  0  0
   -1.1619   -6.3222    7.4993 C   0  0  0  0  0  0  0  0  0  0  0  0
   -2.4973   -6.4224    6.9071 C   0  0  0  0  0  0  0  0  0  0  0  0
   -2.8881   -5.9545    5.8534 O   0  0  0  0  0  0  0  0  0  0  0  0
   -3.3030   -7.2236    7.8536 C   0  0  0  0  0  0  0  0  0  0  0  0
   -4.6267   -7.5967    7.7477 C   0  0  0  0  0  0  0  0  0  0  0  0
   -5.1786   -8.3601    8.7697 C   0  0  0  0  0  0  0  0  0  0  0  0
   -6.8231   -8.8597    8.7031 Cl  0  0  0  0  0  0  0  0  0  0  0  0
   -4.3829   -8.7214    9.8586 C   0  0  0  0  0  0  0  0  0  0  0  0
   -4.9195   -9.4581   10.8391 F   0  0  0  0  0  0  0  0  0  0  0  0
   -3.0520   -8.3483    9.9704 C   0  0  0  0  0  0  0  0  0  0  0  0
   -2.5040   -7.5860    8.9510 C   0  0  0  0  0  0  0  0  0  0  0  0
   -1.1627   -7.0326    8.7619 C   0  0  0  0  0  0  0  0  0  0  0  0
   -0.1262   -7.1682    9.6501 C   0  0  0  0  0  0  0  0  0  0  0  0
    1.1699   -6.6329    9.4994 C   0  0  0  0  0  0  0  0  0  0  0  0
    2.2463   -6.2328    9.4592 N   0  0  0  0  0  0  0  0  0  0  0  0
   -0.2192   -7.8722   10.8694 C   0  0  0  0  0  0  0  0  0  0  0  0
   -0.2266   -8.4243   11.8757 N   0  0  0  0  0  0  0  0  0  0  0  0
   -3.5192    5.9488   -7.6795 H   0  0  0  0  0  0  0  0  0  0  0  0
    1.3569    9.8644   -8.3268 H   0  0  0  0  0  0  0  0  0  0  0  0
   -2.9936   10.5055  -10.6626 H   0  0  0  0  0  0  0  0  0  0  0  0
    0.1348    5.7232   -6.2122 H   0  0  0  0  0  0  0  0  0  0  0  0
    2.2218    5.3180   -4.7318 H   0  0  0  0  0  0  0  0  0  0  0  0
    3.0786    7.1146   -3.3011 H   0  0  0  0  0  0  0  0  0  0  0  0
    2.4175    7.3584    0.3187 H   0  0  0  0  0  0  0  0  0  0  0  0
    3.4455    7.9206   -1.0075 H   0  0  0  0  0  0  0  0  0  0  0  0
    1.9059    9.7217   -0.2651 H   0  0  0  0  0  0  0  0  0  0  0  0
    0.5139    8.6852   -0.5973 H   0  0  0  0  0  0  0  0  0  0  0  0
    1.5341    9.2395   -1.9241 H   0  0  0  0  0  0  0  0  0  0  0  0
    0.6157    5.7420   -0.1016 H   0  0  0  0  0  0  0  0  0  0  0  0
   -0.2607    3.9633   -1.5307 H   0  0  0  0  0  0  0  0  0  0  0  0
    2.7379    2.5912   -3.1009 H   0  0  0  0  0  0  0  0  0  0  0  0
    4.5923    1.4206   -4.1977 H   0  0  0  0  0  0  0  0  0  0  0  0
    5.7443    0.9204   -6.3261 H   0  0  0  0  0  0  0  0  0  0  0  0
    4.8452    0.9199   -7.8501 H   0  0  0  0  0  0  0  0  0  0  0  0
    3.6337   -1.1396   -7.1322 H   0  0  0  0  0  0  0  0  0  0  0  0
    5.3812   -1.4010   -7.1348 H   0  0  0  0  0  0  0  0  0  0  0  0
    4.5254   -1.1379   -5.6111 H   0  0  0  0  0  0  0  0  0  0  0  0
    2.4863    1.5578   -7.9037 H   0  0  0  0  0  0  0  0  0  0  0  0
    0.6274    2.7138   -6.8118 H   0  0  0  0  0  0  0  0  0  0  0  0
    2.1958   -0.8710    1.1508 H   0  0  0  0  0  0  0  0  0  0  0  0
    4.2314   -3.4252    4.7151 H   0  0  0  0  0  0  0  0  0  0  0  0
    6.0308   -4.9155    3.9710 H   0  0  0  0  0  0  0  0  0  0  0  0
    5.9254   -6.8920    0.8731 H   0  0  0  0  0  0  0  0  0  0  0  0
    6.7660   -6.6465    2.4106 H   0  0  0  0  0  0  0  0  0  0  0  0
    6.9395   -4.7917   -0.0142 H   0  0  0  0  0  0  0  0  0  0  0  0
    8.1872   -5.9312    0.5021 H   0  0  0  0  0  0  0  0  0  0  0  0
    7.7766   -4.5458    1.5187 H   0  0  0  0  0  0  0  0  0  0  0  0
    4.0754   -5.3973    0.2127 H   0  0  0  0  0  0  0  0  0  0  0  0
    2.2712   -3.9206    0.9548 H   0  0  0  0  0  0  0  0  0  0  0  0
    4.1721   -1.1827    2.7702 H   0  0  0  0  0  0  0  0  0  0  0  0
    4.9721    0.8681    3.8467 H   0  0  0  0  0  0  0  0  0  0  0  0
    3.1472    2.6620    6.5027 H   0  0  0  0  0  0  0  0  0  0  0  0
    4.4548    2.7739    5.3152 H   0  0  0  0  0  0  0  0  0  0  0  0
    5.8166    1.1802    6.6701 H   0  0  0  0  0  0  0  0  0  0  0  0
    4.5136    1.0692    7.8530 H   0  0  0  0  0  0  0  0  0  0  0  0
    5.3663    2.5992    7.6217 H   0  0  0  0  0  0  0  0  0  0  0  0
    1.7904    0.6284    6.6751 H   0  0  0  0  0  0  0  0  0  0  0  0
    0.9745   -1.4081    5.5916 H   0  0  0  0  0  0  0  0  0  0  0  0
   -2.2634   -3.0735    1.8013 H   0  0  0  0  0  0  0  0  0  0  0  0
   -2.5594    1.3004    0.3027 H   0  0  0  0  0  0  0  0  0  0  0  0
   -4.5394    2.1828    1.4367 H   0  0  0  0  0  0  0  0  0  0  0  0
   -7.6472    0.3041    1.9363 H   0  0  0  0  0  0  0  0  0  0  0  0
   -6.8769    1.8932    2.0456 H   0  0  0  0  0  0  0  0  0  0  0  0
   -7.4358    1.0182    4.3057 H   0  0  0  0  0  0  0  0  0  0  0  0
   -5.6855    1.1698    4.1155 H   0  0  0  0  0  0  0  0  0  0  0  0
   -6.4482   -0.4157    4.0047 H   0  0  0  0  0  0  0  0  0  0  0  0
   -6.2758   -1.7114    1.4507 H   0  0  0  0  0  0  0  0  0  0  0  0
   -4.3050   -2.5971    0.2960 H   0  0  0  0  0  0  0  0  0  0  0  0
   -0.8849   -3.7382   -0.8712 H   0  0  0  0  0  0  0  0  0  0  0  0
   -1.4548   -5.4092   -2.5650 H   0  0  0  0  0  0  0  0  0  0  0  0
   -2.5456   -5.8901   -4.7119 H   0  0  0  0  0  0  0  0  0  0  0  0
   -3.8377   -4.8432   -5.3172 H   0  0  0  0  0  0  0  0  0  0  0  0
   -4.7501   -7.0286   -4.5634 H   0  0  0  0  0  0  0  0  0  0  0  0
   -4.0822   -6.7624   -2.9495 H   0  0  0  0  0  0  0  0  0  0  0  0
   -5.3696   -5.7187   -3.5524 H   0  0  0  0  0  0  0  0  0  0  0  0
   -4.5646   -2.8831   -4.0261 H   0  0  0  0  0  0  0  0  0  0  0  0
   -4.0088   -1.2129   -2.3210 H   0  0  0  0  0  0  0  0  0  0  0  0
    2.1114   -4.3505    6.0240 H   0  0  0  0  0  0  0  0  0  0  0  0
    0.8380   -5.6966    7.5172 H   0  0  0  0  0  0  0  0  0  0  0  0
   -5.2145   -7.3018    6.8932 H   0  0  0  0  0  0  0  0  0  0  0  0
   -2.4965   -8.6622   10.8388 H   0  0  0  0  0  0  0  0  0  0  0  0
  1  2  2  0  0  0  0
  2  3  1  0  0  0  0
  3  4  2  0  0  0  0
  3  5  1  0  0  0  0
  5  6  2  0  0  0  0
  6  7  1  0  0  0  0
  7  8  1  0  0  0  0
  7  9  2  0  0  0  0
  9 10  1  0  0  0  0
  9 11  1  0  0  0  0
 11 12  2  0  0  0  0
 12 13  1  0  0  0  0
 13 14  2  0  0  0  0
 14 15  1  0  0  0  0
 15 16  3  0  0  0  0
 14 17  1  0  0  0  0
 17 18  3  0  0  0  0
  1 19  1  0  0  0  0
 19 20  1  0  0  0  0
 20 21  1  0  0  0  0
 21 22  1  0  0  0  0
 22 23  2  0  0  0  0
 23 24  1  0  0  0  0
 24 25  1  0  0  0  0
 25 26  1  0  0  0  0
 24 27  1  0  0  0  0
 27 28  2  0  0  0  0
 28 29  1  0  0  0  0
 29 30  2  0  0  0  0
 30 31  1  0  0  0  0
 31 32  1  0  0  0  0
 30 33  1  0  0  0  0
 33 34  2  0  0  0  0
 24 35  1  0  0  0  0
 35 36  2  0  0  0  0
 36 37  1  0  0  0  0
 37 38  2  0  0  0  0
 38 39  1  0  0  0  0
 39 40  1  0  0  0  0
 38 41  1  0  0  0  0
 41 42  2  0  0  0  0
 23 43  1  0  0  0  0
 43 44  1  0  0  0  0
 44 45  1  0  0  0  0
 45 46  1  0  0  0  0
 46 47  2  0  0  0  0
 47 48  1  0  0  0  0
 48 49  1  0  0  0  0
 49 50  1  0  0  0  0
 50 51  2  0  0  0  0
 51 52  1  0  0  0  0
 52 53  2  0  0  0  0
 53 54  1  0  0  0  0
 54 55  1  0  0  0  0
 53 56  1  0  0  0  0
 56 57  2  0  0  0  0
 49 58  1  0  0  0  0
 58 59  2  0  0  0  0
 59 60  1  0  0  0  0
 60 61  2  0  0  0  0
 61 62  1  0  0  0  0
 62 63  1  0  0  0  0
 61 64  1  0  0  0  0
 64 65  2  0  0  0  0
 49 66  1  0  0  0  0
 66 67  2  0  0  0  0
 67 68  1  0  0  0  0
 68 69  1  0  0  0  0
 69 70  2  0  0  0  0
 70 71  1  0  0  0  0
 71 72  1  0  0  0  0
 72 73  2  0  0  0  0
 73 74  1  0  0  0  0
 74 75  2  0  0  0  0
 75 76  1  0  0  0  0
 76 77  1  0  0  0  0
 75 78  1  0  0  0  0
 78 79  2  0  0  0  0
 71 80  1  0  0  0  0
 80 81  2  0  0  0  0
 81 82  1  0  0  0  0
 82 83  2  0  0  0  0
 83 84  1  0  0  0  0
 84 85  1  0  0  0  0
 83 86  1  0  0  0  0
 86 87  2  0  0  0  0
 71 88  1  0  0  0  0
 88 89  1  0  0  0  0
 89 90  1  0  0  0  0
 67 91  1  0  0  0  0
 91 92  1  0  0  0  0
 92 93  2  0  0  0  0
 92 94  1  0  0  0  0
 94 95  2  0  0  0  0
 95 96  1  0  0  0  0
 96 97  2  0  0  0  0
 96 98  1  0  0  0  0
 98 99  2  0  0  0  0
 99100  1  0  0  0  0
100101  1  0  0  0  0
100102  2  0  0  0  0
102103  1  0  0  0  0
102104  1  0  0  0  0
104105  2  0  0  0  0
105106  1  0  0  0  0
106107  2  0  0  0  0
107108  1  0  0  0  0
108109  3  0  0  0  0
107110  1  0  0  0  0
110111  3  0  0  0  0
 13  2  1  0  0  0  0
 26 19  2  0  0  0  0
 34 27  1  0  0  0  0
 42 35  1  0  0  0  0
 89 43  2  0  0  0  0
106 95  1  0  0  0  0
 12  5  1  0  0  0  0
 25 21  2  0  0  0  0
 88 45  2  0  0  0  0
105 98  1  0  0  0  0
 90 22  1  0  0  0  0
 70 46  1  0  0  0  0
 79 72  1  0  0  0  0
 87 80  1  0  0  0  0
 68 48  2  0  0  0  0
 57 50  1  0  0  0  0
 65 58  1  0  0  0  0
 93 66  1  0  0  0  0
  1112  1  0  0  0  0
  6113  1  0  0  0  0
 11114  1  0  0  0  0
 26115  1  0  0  0  0
 28116  1  0  0  0  0
 29117  1  0  0  0  0
 31118  1  0  0  0  0
 31119  1  0  0  0  0
 32120  1  0  0  0  0
 32121  1  0  0  0  0
 32122  1  0  0  0  0
 33123  1  0  0  0  0
 34124  1  0  0  0  0
 36125  1  0  0  0  0
 37126  1  0  0  0  0
 39127  1  0  0  0  0
 39128  1  0  0  0  0
 40129  1  0  0  0  0
 40130  1  0  0  0  0
 40131  1  0  0  0  0
 41132  1  0  0  0  0
 42133  1  0  0  0  0
 47134  1  0  0  0  0
 51135  1  0  0  0  0
 52136  1  0  0  0  0
 54137  1  0  0  0  0
 54138  1  0  0  0  0
 55139  1  0  0  0  0
 55140  1  0  0  0  0
 55141  1  0  0  0  0
 56142  1  0  0  0  0
 57143  1  0  0  0  0
 59144  1  0  0  0  0
 60145  1  0  0  0  0
 62146  1  0  0  0  0
 62147  1  0  0  0  0
 63148  1  0  0  0  0
 63149  1  0  0  0  0
 63150  1  0  0  0  0
 64151  1  0  0  0  0
 65152  1  0  0  0  0
 69153  1  0  0  0  0
 73154  1  0  0  0  0
 74155  1  0  0  0  0
 76156  1  0  0  0  0
 76157  1  0  0  0  0
 77158  1  0  0  0  0
 77159  1  0  0  0  0
 77160  1  0  0  0  0
 78161  1  0  0  0  0
 79162  1  0  0  0  0
 81163  1  0  0  0  0
 82164  1  0  0  0  0
 84165  1  0  0  0  0
 84166  1  0  0  0  0
 85167  1  0  0  0  0
 85168  1  0  0  0  0
 85169  1  0  0  0  0
 86170  1  0  0  0  0
 87171  1  0  0  0  0
 93172  1  0  0  0  0
 94173  1  0  0  0  0
 99174  1  0  0  0  0
104175  1  0  0  0  0
M  END
