97

C         -4.22970       -0.30810       -6.34900
C         -4.53580       -1.09880       -7.42690
C         -4.05250       -2.48290       -7.61330
O         -3.44110       -3.17500       -6.82770
C         -4.35950       -2.81580       -9.02420
C         -4.08870       -3.98710       -9.70110
C         -4.45660       -4.07570      -11.03870
Cl        -4.15650       -5.50980      -11.93860
C         -5.07530       -2.98400      -11.65270
F         -5.41860       -3.07350      -12.94300
C         -5.34790       -1.80320      -10.97950
C         -4.98520       -1.72100       -9.64430
C         -5.13170       -0.64730       -8.66610
C         -5.79560        0.53560       -8.86350
C         -6.37550        0.91950      -10.09030
N         -6.85820        1.28830      -11.06390
C         -6.01450        1.50350       -7.86050
N         -6.24910        2.31890       -7.08690
C         -3.80320       -0.74140       -5.07960
C         -4.14610       -1.86370       -4.32790
C         -5.20890       -2.83830       -4.70500
C         -6.19900       -3.09920       -3.57160
C         -3.44840       -1.88350       -3.11320
S         -3.37150       -3.04900       -1.80860
C         -2.19090       -2.06730       -1.02290
C         -1.36090       -2.11030        0.10560
C         -1.14010       -3.14950        1.04150
C         -0.05580       -3.00670        1.97660
N          0.14040       -4.04660        2.76330
Se        -1.05370       -5.28290        2.37440
N         -1.78750       -4.29610        1.11140
C          0.64910       -1.77950        2.00820
C          1.66940       -1.33570        2.86310
S          2.65630       -1.93790        4.14340
C          3.40790       -0.36210        4.28600
C          4.38080        0.15620        5.15180
C          5.17420       -0.65920        6.11480
C          5.66900       -1.97350        5.51540
C          4.59690        1.51020        4.90230
S          3.64920        2.10380        3.53590
C          2.89550        0.56680        3.36650
C          1.91150        0.00560        2.54930
N          1.10100        0.40320        1.51500
C          0.32880       -0.68850        1.15220
C         -0.59520       -0.90940        0.09780
N         -0.92320       -0.18930       -1.03300
C         -1.88770       -0.88600       -1.71170
C         -2.59690       -0.78490       -2.91140
S         -2.68840        0.32630       -4.22270
C         -0.24130        0.91330       -1.67230
C         -1.07360        2.19540       -1.64030
C          0.80240        1.81520        1.39820
C         -0.10940        2.27420        2.53570
C          5.48310        2.42890        5.49730
C          5.86150        2.47130        6.81400
C          5.08150        1.89460        7.92950
O          4.08040        1.21260        7.86780
C          5.70730        2.42950        9.16040
C          5.34020        2.20350       10.47110
C          6.09560        2.83320       11.44930
F          5.78100        2.63650       12.74030
C          7.16610        3.66090       11.14510
C          7.52070        3.88380        9.82310
C          6.78800        3.26250        8.82210
C          6.92000        3.28940        7.36770
C          7.92420        3.89800        6.66110
C          8.08400        3.80810        5.26210
N          8.28830        3.75560        4.13340
C          8.95140        4.66620        7.24700
N          9.80630        5.30690        7.66680
H         -4.24620        0.76710       -6.48710
H         -3.60580       -4.81170       -9.20160
H         -5.82220       -0.99530      -11.51240
H         -4.72880       -3.77580       -5.00050
H         -5.74760       -2.45790       -5.57500
H         -6.62710       -2.16390       -3.21750
H         -5.72140       -3.60250       -2.73630
H         -7.00540       -3.73140       -3.93420
H          6.03070       -0.07250        6.45350
H          4.55080       -0.86240        6.99080
H          4.84420       -2.64440        5.29440
H          6.32910       -2.46790        6.22340
H          6.22410       -1.78840        4.59820
H          0.73660        1.04300       -1.20700
H         -0.07230        0.63500       -2.71850
H         -0.48560        3.02630       -2.01980
H         -1.41050        2.43040       -0.63300
H         -1.95290        2.08400       -2.26890
H          1.75330        2.35410        1.44380
H          0.32410        2.02800        0.45030
H          0.36380        2.10710        3.49990
H         -0.31870        3.33520        2.43300
H         -1.04930        1.72620        2.51150
H          5.84950        3.20730        4.83750
H          4.50860        1.56530       10.72360
H          7.71470        4.12700       11.94820
H          8.34980        4.53370        9.59600
