138

C         -0.05580        6.81920        0.80600
C         -1.27280        7.40820        0.62910
C         -1.36770        8.86580        0.36600
O         -0.49060        9.68860        0.48540
C         -2.75070        9.07580       -0.12560
C         -3.32620       10.23230       -0.61120
C         -4.64730       10.18230       -1.04130
Cl        -5.42340       11.58820       -1.65620
C         -5.34740        8.97500       -0.97170
F         -6.61340        8.93260       -1.40260
C         -4.78160        7.81200       -0.47340
C         -3.46590        7.86690       -0.04400
C         -2.60870        6.85460        0.56700
C         -3.05420        5.73670        1.22320
C         -4.38860        5.28480        1.19240
N         -5.45530        4.86140        1.17900
C         -2.24150        4.96640        2.08050
N         -1.63170        4.35030        2.83320
C          0.28660        5.45580        0.67360
C          1.36090        4.81610        1.27930
C          1.39500        3.46050        0.99110
C          2.24560        2.27610        1.37090
C          2.26530        1.97440        2.85730
C          1.24170        2.40220        3.69110
C          1.25440        2.07130        5.03430
C          2.27390        1.29840        5.57280
C          2.30880        0.97630        7.03890
C          3.13210        2.02020        7.79600
C          3.28900        0.86460        4.72950
C          3.28560        1.19430        3.38790
C          3.64000        2.53370        0.82230
C          4.06060        2.00490       -0.38900
C          5.31950        2.30060       -0.88090
C          6.18370        3.13280       -0.18350
C          7.53140        3.48570       -0.74310
C          7.43780        4.74390       -1.60880
C          5.75100        3.67070        1.02240
C          4.49570        3.37880        1.51890
C          1.51700        1.15470        0.64970
C          0.45700        1.66360       -0.14070
C          0.40250        3.06770        0.10030
S         -0.62440        4.35730       -0.35530
C         -0.34610        0.83630       -0.92240
C         -0.11380       -0.51670       -0.84520
C         -0.83360       -1.63730       -1.57630
C         -0.52240       -1.47740       -3.05650
C         -1.30580       -0.64210       -3.84300
C         -1.01150       -0.45890       -5.18070
C          0.07170       -1.09980       -5.76810
C          0.41190       -0.87260       -7.21260
C          1.38600        0.29880       -7.35520
C          0.86050       -1.92050       -4.97360
C          0.57190       -2.10550       -3.63400
C         -2.32720       -1.70300       -1.32190
C         -2.92350       -1.02880       -0.26630
C         -4.28620       -1.13250       -0.05120
C         -5.08230       -1.92110       -0.87030
C         -6.56790       -1.98660       -0.66550
C         -7.26170       -0.85870       -1.43240
C         -4.47600       -2.61110       -1.91270
C         -3.11670       -2.50770       -2.13500
C         -0.17740       -2.84560       -0.95860
C          0.82220       -2.45550       -0.06150
C          0.89870       -1.03140        0.00090
C          1.73820       -0.19860        0.73880
S          1.56980       -3.76420        0.73910
C          0.53520       -4.88580       -0.13670
C         -0.33300       -4.21140       -1.01130
C          0.51150       -6.27860       -0.00410
C          1.18440       -7.10590        0.86300
C          2.09430       -6.67160        1.92700
O          2.51490       -5.54760        2.13730
C          2.40440       -7.87700        2.71800
C          3.16230       -7.98450        3.84720
C          3.30240       -9.24980        4.46000
C          4.06500       -9.41750        5.63180
C          4.17630      -10.65130        6.20920
F          4.90140      -10.80890        7.32560
C          3.53200      -11.76810        5.64110
F          3.65670      -12.96510        6.23050
C          2.78690      -11.63700        4.50290
C          2.65220      -10.37860        3.88290
C          1.87980      -10.23460        2.70690
C          1.75630       -8.99860        2.13010
C          1.02950       -8.54440        0.94520
C          0.36030       -9.36210        0.07070
C         -0.29350       -8.94670       -1.10790
N         -0.84230       -8.69100       -2.08430
C          0.25810      -10.76080        0.22110
N          0.13540      -11.90020        0.29010
H          0.76480        7.49740        1.02040
H         -2.76370       11.15130       -0.65290
H         -5.37120        6.90980       -0.44520
H          2.03330        5.32810        1.94310
H          0.42900        2.99530        3.29970
H          0.45220        2.41720        5.66990
H          1.29320        0.95960        7.43880
H          2.75260       -0.01000        7.19020
H          4.15250        2.04370        7.41950
H          3.15910        1.78720        8.85790
H          2.69740        3.00900        7.66820
H          4.09030        0.25760        5.12640
H          4.08790        0.85170        2.74990
H          3.40740        1.35540       -0.95340
H          5.63390        1.87420       -1.82290
H          7.90820        2.65960       -1.34940
H          8.23640        3.66170        0.07170
H          7.07630        5.58340       -1.01900
H          6.74780        4.58450       -2.43450
H          8.41340        4.99930       -2.01520
H          6.40640        4.32430        1.58010
H          4.17900        3.79820        2.46280
H         -1.13090        1.24870       -1.53750
H         -2.16170       -0.14500       -3.41020
H         -1.63690        0.18810       -5.77920
H          0.86810       -1.77200       -7.63080
H         -0.49670       -0.65570       -7.77760
H          1.63770        0.45880       -8.40100
H          2.30200        0.09840       -6.80390
H          0.94240        1.21030       -6.96070
H          1.71040       -2.42680       -5.40860
H          1.20230       -2.75000       -3.03890
H         -2.32640       -0.41580        0.39310
H         -4.73560       -0.59190        0.76940
H         -6.94810       -2.94790       -1.01650
H         -6.79980       -1.89340        0.39730
H         -6.91360        0.10920       -1.07920
H         -7.04380       -0.93450       -2.49560
H         -8.33890       -0.91190       -1.29400
H         -5.07510       -3.23780       -2.55780
H         -2.66340       -3.04600       -2.95500
H          2.51430       -0.61200        1.36350
H         -1.03960       -4.73640       -1.62900
H         -0.18900       -6.75390       -0.68050
H          3.64310       -7.11560        4.27020
H          4.56320       -8.57180        6.07930
H          2.30060      -12.50250        4.08070
H          1.39970      -11.10870        2.29810
