
  xtb     02012217223D
 energy: -160.173309091555 gnorm: 0.000508708213 xtb: 6.4.1 (unknown)
 85 95  0     0  0            999 V2000
   -1.5125    1.7268   -6.6001 C   0  0  0  0  0  0  0  0  0  0  0  0
   -2.6536    2.4687   -6.4713 C   0  0  0  0  0  0  0  0  0  0  0  0
   -2.9395    3.5615   -7.4292 C   0  0  0  0  0  0  0  0  0  0  0  0
   -2.3890    3.7741   -8.4851 O   0  0  0  0  0  0  0  0  0  0  0  0
   -4.0024    4.3686   -6.7805 C   0  0  0  0  0  0  0  0  0  0  0  0
   -4.5556    5.5614   -7.1985 C   0  0  0  0  0  0  0  0  0  0  0  0
   -5.5295    6.1523   -6.4012 C   0  0  0  0  0  0  0  0  0  0  0  0
   -6.2558    7.6417   -6.8639 Cl  0  0  0  0  0  0  0  0  0  0  0  0
   -5.9181    5.5279   -5.2140 C   0  0  0  0  0  0  0  0  0  0  0  0
   -6.8464    6.1113   -4.4457 F   0  0  0  0  0  0  0  0  0  0  0  0
   -5.3776    4.3225   -4.7933 C   0  0  0  0  0  0  0  0  0  0  0  0
   -4.4063    3.7389   -5.5891 C   0  0  0  0  0  0  0  0  0  0  0  0
   -3.6806    2.4781   -5.4573 C   0  0  0  0  0  0  0  0  0  0  0  0
   -4.0867    1.4004   -4.7112 C   0  0  0  0  0  0  0  0  0  0  0  0
   -5.1209    1.4456   -3.7578 C   0  0  0  0  0  0  0  0  0  0  0  0
   -5.9298    1.4388   -2.9430 N   0  0  0  0  0  0  0  0  0  0  0  0
   -3.5552    0.1070   -4.8955 C   0  0  0  0  0  0  0  0  0  0  0  0
   -3.1833   -0.9648   -5.0717 N   0  0  0  0  0  0  0  0  0  0  0  0
   -0.8208    0.9900   -5.6232 C   0  0  0  0  0  0  0  0  0  0  0  0
    0.1628    0.0304   -5.8537 C   0  0  0  0  0  0  0  0  0  0  0  0
    0.5227   -0.5027   -7.1981 C   0  0  0  0  0  0  0  0  0  0  0  0
   -0.5180   -1.5291   -7.6544 C   0  0  0  0  0  0  0  0  0  0  0  0
    0.6885   -0.4610   -4.6585 C   0  0  0  0  0  0  0  0  0  0  0  0
    1.9047   -1.6712   -4.3154 S   0  0  0  0  0  0  0  0  0  0  0  0
    1.6720   -1.3880   -2.6286 C   0  0  0  0  0  0  0  0  0  0  0  0
    2.1677   -1.8436   -1.3998 C   0  0  0  0  0  0  0  0  0  0  0  0
    3.2271   -2.7396   -1.1212 C   0  0  0  0  0  0  0  0  0  0  0  0
    3.5999   -2.9497    0.2513 C   0  0  0  0  0  0  0  0  0  0  0  0
    4.6269   -3.7572    0.4322 N   0  0  0  0  0  0  0  0  0  0  0  0
    5.1904   -4.3143   -1.1429 Se  0  0  0  0  0  2  0  0  0  0  0  0
    3.9612   -3.3885   -2.0039 N   0  0  0  0  0  0  0  0  0  0  0  0
    2.8213   -2.3353    1.2604 C   0  0  0  0  0  0  0  0  0  0  0  0
    2.8798   -2.4756    2.6549 C   0  0  0  0  0  0  0  0  0  0  0  0
    3.8330   -3.2834    3.8494 S   0  0  0  0  0  0  0  0  0  0  0  0
    2.7624   -2.6649    5.0859 C   0  0  0  0  0  0  0  0  0  0  0  0
    2.7512   -2.8148    6.4881 C   0  0  0  0  0  0  0  0  0  0  0  0
    3.7076   -3.7230    7.1928 C   0  0  0  0  0  0  0  0  0  0  0  0
    3.4041   -5.1839    6.8522 C   0  0  0  0  0  0  0  0  0  0  0  0
    1.7021   -2.1220    7.0491 C   0  0  0  0  0  0  0  0  0  0  0  0
    0.7125   -1.2996    5.8465 S   0  0  0  0  0  0  0  0  0  0  0  0
    1.7316   -1.8750    4.5781 C   0  0  0  0  0  0  0  0  0  0  0  0
    1.8004   -1.7630    3.1820 C   0  0  0  0  0  0  0  0  0  0  0  0
    1.0986   -1.1614    2.1743 N   0  0  0  0  0  0  0  0  0  0  0  0
    1.7098   -1.4926    0.9752 C   0  0  0  0  0  0  0  0  0  0  0  0
    1.4468   -1.1565   -0.3803 C   0  0  0  0  0  0  0  0  0  0  0  0
    0.5689   -0.2761   -0.9876 N   0  0  0  0  0  0  0  0  0  0  0  0
    0.7059   -0.4145   -2.3431 C   0  0  0  0  0  0  0  0  0  0  0  0
    0.1482    0.1239   -3.5028 C   0  0  0  0  0  0  0  0  0  0  0  0
   -1.0423    1.3055   -3.8992 S   0  0  0  0  0  0  0  0  0  0  0  0
   -0.1201    0.8780   -0.4547 C   0  0  0  0  0  0  0  0  0  0  0  0
    0.8553    1.8703    0.1732 C   0  0  0  0  0  0  0  0  0  0  0  0
   -0.2292   -0.6528    2.4379 C   0  0  0  0  0  0  0  0  0  0  0  0
   -1.3044   -1.5584    1.8426 C   0  0  0  0  0  0  0  0  0  0  0  0
    1.3152   -1.9828    8.4219 C   0  0  0  0  0  0  0  0  0  0  0  0
    2.1007   -1.9000    9.5488 C   0  0  0  0  0  0  0  0  0  0  0  0
    1.3647   -1.7465   10.7280 C   0  0  0  0  0  0  0  0  0  0  0  0
    0.0084   -1.7032   10.5105 C   0  0  0  0  0  0  0  0  0  0  0  0
   -0.9981   -1.5561   11.4648 C   0  0  0  0  0  0  0  0  0  0  0  0
   -1.8212   -1.4310   12.2556 N   0  0  0  0  0  0  0  0  0  0  0  0
   -0.3726   -1.8562    8.8229 S   0  0  0  0  0  0  0  0  0  0  0  0
   -1.0306    1.7939   -7.5710 H   0  0  0  0  0  0  0  0  0  0  0  0
   -4.2396    6.0216   -8.1210 H   0  0  0  0  0  0  0  0  0  0  0  0
   -5.7172    3.8868   -3.8674 H   0  0  0  0  0  0  0  0  0  0  0  0
    1.5020   -0.9806   -7.1340 H   0  0  0  0  0  0  0  0  0  0  0  0
    0.5765    0.3096   -7.9255 H   0  0  0  0  0  0  0  0  0  0  0  0
   -0.5712   -2.3515   -6.9458 H   0  0  0  0  0  0  0  0  0  0  0  0
   -0.2485   -1.9245   -8.6300 H   0  0  0  0  0  0  0  0  0  0  0  0
   -1.5021   -1.0712   -7.7183 H   0  0  0  0  0  0  0  0  0  0  0  0
    3.6404   -3.5879    8.2701 H   0  0  0  0  0  0  0  0  0  0  0  0
    4.7232   -3.4822    6.8703 H   0  0  0  0  0  0  0  0  0  0  0  0
    4.0985   -5.8380    7.3727 H   0  0  0  0  0  0  0  0  0  0  0  0
    2.3916   -5.4397    7.1570 H   0  0  0  0  0  0  0  0  0  0  0  0
    3.5005   -5.3576    5.7838 H   0  0  0  0  0  0  0  0  0  0  0  0
   -0.6252    1.3545   -1.2985 H   0  0  0  0  0  0  0  0  0  0  0  0
   -0.8950    0.5733    0.2487 H   0  0  0  0  0  0  0  0  0  0  0  0
    0.3108    2.7198    0.5764 H   0  0  0  0  0  0  0  0  0  0  0  0
    1.4295    1.4074    0.9725 H   0  0  0  0  0  0  0  0  0  0  0  0
    1.5530    2.2321   -0.5786 H   0  0  0  0  0  0  0  0  0  0  0  0
   -0.3250    0.3741    2.0850 H   0  0  0  0  0  0  0  0  0  0  0  0
   -0.3417   -0.6289    3.5247 H   0  0  0  0  0  0  0  0  0  0  0  0
   -2.2893   -1.1456    2.0429 H   0  0  0  0  0  0  0  0  0  0  0  0
   -1.2464   -2.5473    2.2914 H   0  0  0  0  0  0  0  0  0  0  0  0
   -1.1799   -1.6675    0.7677 H   0  0  0  0  0  0  0  0  0  0  0  0
    3.1749   -1.9062    9.5235 H   0  0  0  0  0  0  0  0  0  0  0  0
    1.8015   -1.6602   11.7070 H   0  0  0  0  0  0  0  0  0  0  0  0
  1  2  2  0  0  0  0
  2  3  1  0  0  0  0
  3  4  2  0  0  0  0
  3  5  1  0  0  0  0
  5  6  2  0  0  0  0
  6  7  1  0  0  0  0
  7  8  1  0  0  0  0
  7  9  2  0  0  0  0
  9 10  1  0  0  0  0
  9 11  1  0  0  0  0
 11 12  2  0  0  0  0
 12 13  1  0  0  0  0
 13 14  2  0  0  0  0
 14 15  1  0  0  0  0
 15 16  3  0  0  0  0
 14 17  1  0  0  0  0
 17 18  3  0  0  0  0
  1 19  1  0  0  0  0
 19 20  2  0  0  0  0
 20 21  1  0  0  0  0
 21 22  1  0  0  0  0
 20 23  1  0  0  0  0
 23 24  1  0  0  0  0
 24 25  1  0  0  0  0
 25 26  1  0  0  0  0
 26 27  1  0  0  0  0
 27 28  1  0  0  0  0
 28 29  2  0  0  0  0
 29 30  1  0  0  0  0
 30 31  1  0  0  0  0
 28 32  1  0  0  0  0
 32 33  1  0  0  0  0
 33 34  1  0  0  0  0
 34 35  1  0  0  0  0
 35 36  1  0  0  0  0
 36 37  1  0  0  0  0
 37 38  1  0  0  0  0
 36 39  2  0  0  0  0
 39 40  1  0  0  0  0
 40 41  1  0  0  0  0
 41 42  1  0  0  0  0
 42 43  1  0  0  0  0
 43 44  1  0  0  0  0
 44 45  1  0  0  0  0
 45 46  1  0  0  0  0
 46 47  1  0  0  0  0
 47 48  1  0  0  0  0
 48 49  1  0  0  0  0
 46 50  1  0  0  0  0
 50 51  1  0  0  0  0
 43 52  1  0  0  0  0
 52 53  1  0  0  0  0
 39 54  1  0  0  0  0
 54 55  2  0  0  0  0
 55 56  1  0  0  0  0
 56 57  2  0  0  0  0
 57 58  1  0  0  0  0
 58 59  3  0  0  0  0
 57 60  1  0  0  0  0
 13  2  1  0  0  0  0
 49 19  1  0  0  0  0
 60 54  1  0  0  0  0
 12  5  1  0  0  0  0
 48 23  2  0  0  0  0
 47 25  2  0  0  0  0
 45 26  2  0  0  0  0
 31 27  2  0  0  0  0
 44 32  2  0  0  0  0
 42 33  2  0  0  0  0
 41 35  2  0  0  0  0
  1 61  1  0  0  0  0
  6 62  1  0  0  0  0
 11 63  1  0  0  0  0
 21 64  1  0  0  0  0
 21 65  1  0  0  0  0
 22 66  1  0  0  0  0
 22 67  1  0  0  0  0
 22 68  1  0  0  0  0
 37 69  1  0  0  0  0
 37 70  1  0  0  0  0
 38 71  1  0  0  0  0
 38 72  1  0  0  0  0
 38 73  1  0  0  0  0
 50 74  1  0  0  0  0
 50 75  1  0  0  0  0
 51 76  1  0  0  0  0
 51 77  1  0  0  0  0
 51 78  1  0  0  0  0
 52 79  1  0  0  0  0
 52 80  1  0  0  0  0
 53 81  1  0  0  0  0
 53 82  1  0  0  0  0
 53 83  1  0  0  0  0
 55 84  1  0  0  0  0
 56 85  1  0  0  0  0
M  END
