97

C         -4.08880        2.66250       -6.11150
C         -5.24210        3.18130       -5.56860
C         -5.55930        3.27640       -4.14440
O         -4.87780        2.92000       -3.19910
C         -6.89200        3.90940       -4.06410
C         -7.62660        4.22080       -2.93880
C         -8.86830        4.82170       -3.10900
Cl        -9.83590        5.23840       -1.74930
C         -9.32800        5.08670       -4.40060
F        -10.52450        5.66450       -4.55840
C         -8.59360        4.77620       -5.53530
C         -7.35510        4.17900       -5.36340
C         -6.34550        3.73740       -6.32560
C         -6.45690        3.84970       -7.68820
C         -5.49600        3.43470       -8.63350
N         -4.76600        3.12600       -9.46560
C         -7.57300        4.41020       -8.34540
N         -8.44690        4.85240       -8.94390
C         -2.96170        2.10170       -5.50840
C         -1.86280        1.61760       -6.24420
C         -1.75490        1.58210       -7.73310
C         -2.46120        0.34700       -8.29980
C         -0.88100        1.10670       -5.40860
S          0.68450        0.38300       -5.73400
C          0.91130        0.19370       -4.03170
C          1.85480       -0.32930       -3.14170
C          3.07790       -0.98460       -3.41850
C          3.83480       -1.50390       -2.31630
N          4.94790       -2.12880       -2.64770
Se         5.10860       -2.09630       -4.40330
N          3.60300       -1.20320       -4.60850
C          3.35040       -1.27790       -1.00620
C          3.93170       -1.61760        0.22070
S          5.31220       -2.45890        0.82620
C          4.77460       -2.11110        2.45490
C          5.29380       -2.44120        3.70760
C          6.50020       -3.29380        3.90480
C          6.08990       -4.74840        4.14970
C          4.47790       -1.97410        4.73640
S          3.10240       -1.05420        4.12250
C          3.58570       -1.36690        2.49870
C          3.09990       -1.09690        1.21920
N          2.03270       -0.45920        0.65120
C          2.14020       -0.57310       -0.72260
C          1.33990       -0.14330       -1.82040
N          0.09660        0.44750       -1.93370
C         -0.15770        0.66360       -3.25990
C         -1.19300        1.18710       -4.03860
S         -2.73310        1.90910       -3.76790
C         -0.94240        0.76320       -0.98020
C         -0.94340        2.24710       -0.61360
C          1.07250        0.17120        1.52740
C          0.07850       -0.84380        2.09230
C          4.71240       -2.11960        6.11530
C          3.84490       -1.96180        7.15940
C          4.36850       -1.68120        8.51700
O          5.51190       -1.78330        8.89690
C          3.19660       -1.19440        9.28490
C          3.15400       -0.69650       10.57190
C          1.92690       -0.27370       11.05850
F          1.84120        0.21940       12.29990
C          0.77980       -0.35320       10.26830
F         -0.38770        0.07660       10.76040
C          0.81810       -0.86570        8.98000
C          2.04150       -1.28880        8.48800
C          2.40320       -1.90840        7.21380
C          1.53640       -2.56690        6.37950
C          0.13400       -2.49900        6.48270
N         -1.01270       -2.44280        6.49220
C          1.97080       -3.44920        5.36800
N          2.29030       -4.21920        4.57860
H         -4.02740        2.68420       -7.19080
H         -7.24490        4.00290       -1.95420
H         -9.00900        5.00920       -6.50200
H         -0.69630        1.53770       -7.99620
H         -2.18170        2.48040       -8.18110
H         -2.36030        0.33100       -9.38100
H         -2.02070       -0.56040       -7.89340
H         -3.52020        0.36070       -8.05350
H          7.08400       -2.93210        4.75350
H          7.11750       -3.23680        3.00630
H          5.51810       -5.12570        3.30590
H          5.47290       -4.82570        5.04180
H          6.97380       -5.36730        4.27790
H         -0.84800        0.12510       -0.10650
H         -1.89800        0.52710       -1.45920
H         -1.22390        2.84220       -1.47850
H          0.03790        2.57840       -0.27900
H         -1.66820        2.43010        0.17440
H          0.57500        0.98590        1.01000
H          1.63800        0.60640        2.35830
H         -0.43150       -1.38710        1.29950
H         -0.66120       -0.33750        2.70580
H          0.59660       -1.57180        2.71170
H          5.74250       -2.30710        6.40330
H          4.04030       -0.63660       11.18320
H         -0.09210       -0.90920        8.40410
