
  xtb     02012217523D
 energy: -196.345175161215 gnorm: 0.000716744138 xtb: 6.4.1 (unknown)
103115  0     0  0            999 V2000
    1.2205    0.6230    8.4380 C   0  0  0  0  0  0  0  0  0  0  0  0
    2.2590   -0.2597    8.5252 C   0  0  0  0  0  0  0  0  0  0  0  0
    2.4078   -1.1202    9.7232 C   0  0  0  0  0  0  0  0  0  0  0  0
    1.8362   -1.0058   10.7824 O   0  0  0  0  0  0  0  0  0  0  0  0
    3.3620   -2.1800    9.3141 C   0  0  0  0  0  0  0  0  0  0  0  0
    3.7607   -3.2991   10.0163 C   0  0  0  0  0  0  0  0  0  0  0  0
    4.6545   -4.1749    9.4104 C   0  0  0  0  0  0  0  0  0  0  0  0
    5.1877   -5.5901   10.2302 Cl  0  0  0  0  0  0  0  0  0  0  0  0
    5.1207   -3.8997    8.1226 C   0  0  0  0  0  0  0  0  0  0  0  0
    5.9702   -4.7554    7.5417 F   0  0  0  0  0  0  0  0  0  0  0  0
    4.7359   -2.7713    7.4151 C   0  0  0  0  0  0  0  0  0  0  0  0
    3.8439   -1.9029    8.0216 C   0  0  0  0  0  0  0  0  0  0  0  0
    3.2813   -0.6316    7.5746 C   0  0  0  0  0  0  0  0  0  0  0  0
    3.8205    0.1827    6.6116 C   0  0  0  0  0  0  0  0  0  0  0  0
    3.4458    1.5341    6.4600 C   0  0  0  0  0  0  0  0  0  0  0  0
    3.2045    2.6518    6.3574 N   0  0  0  0  0  0  0  0  0  0  0  0
    4.8534   -0.2062    5.7376 C   0  0  0  0  0  0  0  0  0  0  0  0
    5.6696   -0.4875    4.9808 N   0  0  0  0  0  0  0  0  0  0  0  0
    0.6398    1.1874    7.2865 C   0  0  0  0  0  0  0  0  0  0  0  0
   -0.1763    2.3136    7.2350 C   0  0  0  0  0  0  0  0  0  0  0  0
   -0.4542    3.2086    8.3939 C   0  0  0  0  0  0  0  0  0  0  0  0
    0.7312    4.1456    8.6402 C   0  0  0  0  0  0  0  0  0  0  0  0
   -0.6160    2.5667    5.9339 C   0  0  0  0  0  0  0  0  0  0  0  0
   -1.6132    3.8320    5.2524 S   0  0  0  0  0  0  0  0  0  0  0  0
   -1.4475    3.0905    3.7025 C   0  0  0  0  0  0  0  0  0  0  0  0
   -1.8835    3.2810    2.3847 C   0  0  0  0  0  0  0  0  0  0  0  0
   -2.7770    4.2424    1.8553 C   0  0  0  0  0  0  0  0  0  0  0  0
   -3.1465    4.1400    0.4706 C   0  0  0  0  0  0  0  0  0  0  0  0
   -4.0194    5.0387    0.0591 N   0  0  0  0  0  0  0  0  0  0  0  0
   -4.4287    6.0888    1.4141 Se  0  0  0  0  0  2  0  0  0  0  0  0
   -3.3597    5.2234    2.5165 N   0  0  0  0  0  0  0  0  0  0  0  0
   -2.5258    3.1421   -0.3181 C   0  0  0  0  0  0  0  0  0  0  0  0
   -2.6325    2.8875   -1.6917 C   0  0  0  0  0  0  0  0  0  0  0  0
   -3.5143    3.4602   -3.0611 S   0  0  0  0  0  0  0  0  0  0  0  0
   -2.6589    2.3069   -4.0593 C   0  0  0  0  0  0  0  0  0  0  0  0
   -2.7296    2.0102   -5.4233 C   0  0  0  0  0  0  0  0  0  0  0  0
   -3.6307    2.7295   -6.3716 C   0  0  0  0  0  0  0  0  0  0  0  0
   -2.9501    3.9949   -6.9009 C   0  0  0  0  0  0  0  0  0  0  0  0
   -1.8662    0.9763   -5.7644 C   0  0  0  0  0  0  0  0  0  0  0  0
   -0.9360    0.4062   -4.3760 S   0  0  0  0  0  0  0  0  0  0  0  0
   -1.7352    1.5320   -3.3446 C   0  0  0  0  0  0  0  0  0  0  0  0
   -1.7251    1.8626   -1.9874 C   0  0  0  0  0  0  0  0  0  0  0  0
   -1.0857    1.4604   -0.8467 N   0  0  0  0  0  0  0  0  0  0  0  0
   -1.5674    2.2243    0.2028 C   0  0  0  0  0  0  0  0  0  0  0  0
   -1.3159    2.2334    1.6019 C   0  0  0  0  0  0  0  0  0  0  0  0
   -0.5798    1.4157    2.4419 N   0  0  0  0  0  0  0  0  0  0  0  0
   -0.6628    1.9302    3.7075 C   0  0  0  0  0  0  0  0  0  0  0  0
   -0.1872    1.6274    4.9844 C   0  0  0  0  0  0  0  0  0  0  0  0
    0.8016    0.4151    5.7069 S   0  0  0  0  0  0  0  0  0  0  0  0
   -0.1030    0.0627    2.2581 C   0  0  0  0  0  0  0  0  0  0  0  0
   -1.2501   -0.8957    1.9475 C   0  0  0  0  0  0  0  0  0  0  0  0
    0.1058    0.6478   -0.9505 C   0  0  0  0  0  0  0  0  0  0  0  0
    1.3639    1.4612   -0.6564 C   0  0  0  0  0  0  0  0  0  0  0  0
   -1.6359    0.4653   -7.0592 C   0  0  0  0  0  0  0  0  0  0  0  0
   -1.0556   -0.7120   -7.4288 C   0  0  0  0  0  0  0  0  0  0  0  0
   -0.4623   -0.8460   -8.7848 C   0  0  0  0  0  0  0  0  0  0  0  0
   -0.6098   -0.0902   -9.7189 O   0  0  0  0  0  0  0  0  0  0  0  0
    0.3841   -2.0541   -8.7176 C   0  0  0  0  0  0  0  0  0  0  0  0
    1.2267   -2.5670   -9.6608 C   0  0  0  0  0  0  0  0  0  0  0  0
    1.9572   -3.7408   -9.3681 C   0  0  0  0  0  0  0  0  0  0  0  0
    2.8350   -4.3155  -10.3099 C   0  0  0  0  0  0  0  0  0  0  0  0
    3.5373   -5.4514  -10.0173 C   0  0  0  0  0  0  0  0  0  0  0  0
    3.3739   -6.0437   -8.7577 C   0  0  0  0  0  0  0  0  0  0  0  0
    4.0731   -7.1612   -8.4876 F   0  0  0  0  0  0  0  0  0  0  0  0
    2.5373   -5.5275   -7.8078 C   0  0  0  0  0  0  0  0  0  0  0  0
    1.8038   -4.3595   -8.0931 C   0  0  0  0  0  0  0  0  0  0  0  0
    0.9192   -3.8091   -7.1364 C   0  0  0  0  0  0  0  0  0  0  0  0
    0.2158   -2.6777   -7.4472 C   0  0  0  0  0  0  0  0  0  0  0  0
   -0.7909   -1.9305   -6.6992 C   0  0  0  0  0  0  0  0  0  0  0  0
   -1.5442   -2.4297   -5.6667 C   0  0  0  0  0  0  0  0  0  0  0  0
   -2.7212   -1.8054   -5.2054 C   0  0  0  0  0  0  0  0  0  0  0  0
   -3.7118   -1.3469   -4.8490 N   0  0  0  0  0  0  0  0  0  0  0  0
   -1.2794   -3.6501   -5.0175 C   0  0  0  0  0  0  0  0  0  0  0  0
   -1.0855   -4.6190   -4.4322 N   0  0  0  0  0  0  0  0  0  0  0  0
    0.7276    0.8493    9.3788 H   0  0  0  0  0  0  0  0  0  0  0  0
    3.3874   -3.4869   11.0103 H   0  0  0  0  0  0  0  0  0  0  0  0
    5.1290   -2.6113    6.4240 H   0  0  0  0  0  0  0  0  0  0  0  0
   -1.3452    3.7992    8.1726 H   0  0  0  0  0  0  0  0  0  0  0  0
   -0.6417    2.6153    9.2912 H   0  0  0  0  0  0  0  0  0  0  0  0
    0.9236    4.7494    7.7573 H   0  0  0  0  0  0  0  0  0  0  0  0
    0.5160    4.8056    9.4761 H   0  0  0  0  0  0  0  0  0  0  0  0
    1.6287    3.5739    8.8634 H   0  0  0  0  0  0  0  0  0  0  0  0
   -4.5406    3.0092   -5.8373 H   0  0  0  0  0  0  0  0  0  0  0  0
   -3.9049    2.0779   -7.2009 H   0  0  0  0  0  0  0  0  0  0  0  0
   -2.7012    4.6621   -6.0791 H   0  0  0  0  0  0  0  0  0  0  0  0
   -3.6169    4.5171   -7.5816 H   0  0  0  0  0  0  0  0  0  0  0  0
   -2.0354    3.7458   -7.4342 H   0  0  0  0  0  0  0  0  0  0  0  0
    0.6724    0.0284    1.4934 H   0  0  0  0  0  0  0  0  0  0  0  0
    0.3658   -0.2311    3.2005 H   0  0  0  0  0  0  0  0  0  0  0  0
   -1.7918   -0.5889    1.0557 H   0  0  0  0  0  0  0  0  0  0  0  0
   -0.8636   -1.8999    1.7967 H   0  0  0  0  0  0  0  0  0  0  0  0
   -1.9517   -0.9168    2.7781 H   0  0  0  0  0  0  0  0  0  0  0  0
    0.1447    0.2855   -1.9809 H   0  0  0  0  0  0  0  0  0  0  0  0
    0.0308   -0.2294   -0.3083 H   0  0  0  0  0  0  0  0  0  0  0  0
    2.2412    0.8236   -0.7215 H   0  0  0  0  0  0  0  0  0  0  0  0
    1.3247    1.9068    0.3350 H   0  0  0  0  0  0  0  0  0  0  0  0
    1.4656    2.2637   -1.3833 H   0  0  0  0  0  0  0  0  0  0  0  0
   -1.8693    1.1360   -7.8803 H   0  0  0  0  0  0  0  0  0  0  0  0
    1.3330   -2.0854  -10.6213 H   0  0  0  0  0  0  0  0  0  0  0  0
    2.9440   -3.8411  -11.2736 H   0  0  0  0  0  0  0  0  0  0  0  0
    4.2117   -5.9041  -10.7268 H   0  0  0  0  0  0  0  0  0  0  0  0
    2.4333   -6.0125   -6.8497 H   0  0  0  0  0  0  0  0  0  0  0  0
    0.8246   -4.2929   -6.1769 H   0  0  0  0  0  0  0  0  0  0  0  0
  1  2  2  0  0  0  0
  2  3  1  0  0  0  0
  3  4  2  0  0  0  0
  3  5  1  0  0  0  0
  5  6  2  0  0  0  0
  6  7  1  0  0  0  0
  7  8  1  0  0  0  0
  7  9  2  0  0  0  0
  9 10  1  0  0  0  0
  9 11  1  0  0  0  0
 11 12  2  0  0  0  0
 12 13  1  0  0  0  0
 13 14  2  0  0  0  0
 14 15  1  0  0  0  0
 15 16  3  0  0  0  0
 14 17  1  0  0  0  0
 17 18  3  0  0  0  0
  1 19  1  0  0  0  0
 19 20  2  0  0  0  0
 20 21  1  0  0  0  0
 21 22  1  0  0  0  0
 20 23  1  0  0  0  0
 23 24  1  0  0  0  0
 24 25  1  0  0  0  0
 25 26  1  0  0  0  0
 26 27  1  0  0  0  0
 27 28  1  0  0  0  0
 28 29  2  0  0  0  0
 29 30  1  0  0  0  0
 30 31  1  0  0  0  0
 28 32  1  0  0  0  0
 32 33  1  0  0  0  0
 33 34  1  0  0  0  0
 34 35  1  0  0  0  0
 35 36  1  0  0  0  0
 36 37  1  0  0  0  0
 37 38  1  0  0  0  0
 36 39  2  0  0  0  0
 39 40  1  0  0  0  0
 40 41  1  0  0  0  0
 41 42  1  0  0  0  0
 42 43  1  0  0  0  0
 43 44  1  0  0  0  0
 44 45  1  0  0  0  0
 45 46  1  0  0  0  0
 46 47  1  0  0  0  0
 47 48  1  0  0  0  0
 48 49  1  0  0  0  0
 46 50  1  0  0  0  0
 50 51  1  0  0  0  0
 43 52  1  0  0  0  0
 52 53  1  0  0  0  0
 39 54  1  0  0  0  0
 54 55  2  0  0  0  0
 55 56  1  0  0  0  0
 56 57  2  0  0  0  0
 56 58  1  0  0  0  0
 58 59  2  0  0  0  0
 59 60  1  0  0  0  0
 60 61  2  0  0  0  0
 61 62  1  0  0  0  0
 62 63  2  0  0  0  0
 63 64  1  0  0  0  0
 63 65  1  0  0  0  0
 65 66  2  0  0  0  0
 66 67  1  0  0  0  0
 67 68  2  0  0  0  0
 68 69  1  0  0  0  0
 69 70  2  0  0  0  0
 70 71  1  0  0  0  0
 71 72  3  0  0  0  0
 70 73  1  0  0  0  0
 73 74  3  0  0  0  0
 13  2  1  0  0  0  0
 49 19  1  0  0  0  0
 69 55  1  0  0  0  0
 12  5  1  0  0  0  0
 48 23  2  0  0  0  0
 68 58  1  0  0  0  0
 47 25  2  0  0  0  0
 66 60  1  0  0  0  0
 45 26  2  0  0  0  0
 31 27  2  0  0  0  0
 44 32  2  0  0  0  0
 42 33  2  0  0  0  0
 41 35  2  0  0  0  0
  1 75  1  0  0  0  0
  6 76  1  0  0  0  0
 11 77  1  0  0  0  0
 21 78  1  0  0  0  0
 21 79  1  0  0  0  0
 22 80  1  0  0  0  0
 22 81  1  0  0  0  0
 22 82  1  0  0  0  0
 37 83  1  0  0  0  0
 37 84  1  0  0  0  0
 38 85  1  0  0  0  0
 38 86  1  0  0  0  0
 38 87  1  0  0  0  0
 50 88  1  0  0  0  0
 50 89  1  0  0  0  0
 51 90  1  0  0  0  0
 51 91  1  0  0  0  0
 51 92  1  0  0  0  0
 52 93  1  0  0  0  0
 52 94  1  0  0  0  0
 53 95  1  0  0  0  0
 53 96  1  0  0  0  0
 53 97  1  0  0  0  0
 54 98  1  0  0  0  0
 59 99  1  0  0  0  0
 61100  1  0  0  0  0
 62101  1  0  0  0  0
 65102  1  0  0  0  0
 67103  1  0  0  0  0
M  END
