91

C         -4.19830        5.28350        1.51240
C         -5.09150        4.73610        2.40560
C         -5.11740        3.34650        2.85980
O         -4.37340        2.43700        2.53610
C         -6.23970        3.25070        3.81660
C         -6.67330        2.14680        4.52110
C         -7.75980        2.29660        5.37490
Cl        -8.35310        0.96200        6.28390
C         -8.37070        3.54680        5.49110
F         -9.41580        3.68480        6.31550
C         -7.93900        4.65980        4.78520
C         -6.85590        4.50820        3.93430
C         -6.16230        5.45700        3.06290
C         -6.49570        6.78020        2.91980
C         -7.55810        7.40500        3.60690
N         -8.40460        7.97480        4.13220
C         -5.84730        7.71040        2.08110
N         -5.37760        8.52800        1.42420
C         -3.13270        4.71430        0.81410
C         -2.32170        5.44760       -0.07410
C         -2.49970        6.88560       -0.43510
C         -3.55560        7.04390       -1.53300
C         -1.34220        4.64700       -0.64120
C         -1.36790        3.30850       -0.20540
S         -2.63590        3.02340        0.92470
C         -0.35150        2.56560       -0.80970
C          0.41480        3.32940       -1.70120
S         -0.07290        4.98460       -1.80370
C          1.34140        2.46220       -2.29100
C          2.25280        2.66170       -3.35220
N          2.51360        3.77490       -4.01880
S          3.57010        3.43200       -5.19640
N          3.73650        1.85020       -4.89940
C          2.97220        1.53390       -3.86630
C          2.84410        0.28700       -3.21350
C          3.51510       -0.92590       -3.41280
S          4.68380       -1.61440       -4.48750
C          4.64150       -3.08580       -3.53670
C          5.30240       -4.29410       -3.62930
C          4.94460       -5.18680       -2.61470
S          3.75320       -4.48570       -1.52440
C          3.75370       -3.02670       -2.44180
C          3.10860       -1.78950       -2.38730
N          2.18510       -1.16960       -1.58500
C          2.01070       -1.67750       -0.24000
C          3.03090       -1.05530        0.71070
C          1.99700        0.11090       -2.07860
C          1.14320        1.17860       -1.69740
N          0.08540        1.26810       -0.81580
C         -0.73620        0.23630       -0.22340
C         -0.55750        0.15350        1.29170
C          5.49450       -6.47140       -2.52990
C          5.27270       -7.47850       -1.62240
C          4.37080       -7.40720       -0.47130
O          3.67020       -6.47100       -0.12680
C          4.47460       -8.71210        0.21110
C          3.82260       -9.13840        1.34990
C          4.10320      -10.42530        1.78430
F          3.49360      -10.88570        2.88900
C          4.99200      -11.25620        1.11900
C          5.64000      -10.81320       -0.02460
C          5.38160       -9.53020       -0.48510
C          5.89580       -8.78830       -1.63710
C          6.79690       -9.27430       -2.54820
C          7.30040       -8.57810       -3.66750
N          7.75860       -8.08680       -4.59930
C          7.35820      -10.56810       -2.49450
N          7.85340      -11.60340       -2.51270
H         -4.33040        6.33610        1.30330
H         -6.18050        1.19420        4.41020
H         -8.45650        5.59480        4.92310
H         -1.54450        7.26470       -0.80350
H         -2.79020        7.47700        0.43420
H         -4.52120        6.67440       -1.19600
H         -3.26210        6.49140       -2.42250
H         -3.66090        8.09340       -1.79170
H          6.01930       -4.54410       -4.39040
H          2.16570       -2.75810       -0.28970
H          1.00420       -1.49960        0.12230
H          2.91000        0.02560        0.75020
H          2.90100       -1.46280        1.70930
H          4.04190       -1.27600        0.37640
H         -1.78120        0.48980       -0.43300
H         -0.52410       -0.71060       -0.72180
H         -1.09830       -0.70570        1.67820
H         -0.96220        1.04600        1.76100
H          0.48990        0.06780        1.56780
H          6.20480       -6.67660       -3.32150
H          3.12890       -8.50280        1.87650
H          5.17130      -12.24820        1.50260
H          6.32810      -11.46920       -0.53120
