150

C          2.89300       -7.08340        5.40980
C          3.68510       -6.86730        6.51530
C          3.96180       -5.57590        7.14580
O          3.55150       -4.47660        6.82130
C          4.85970       -5.86470        8.28540
C          5.40500       -4.97880        9.19100
C          6.23240       -5.48290       10.18770
Cl         6.94650       -4.43490       11.35000
C          6.48200       -6.85550       10.23920
F          7.28010       -7.33510       11.20100
C          5.93600       -7.75060        9.33140
C          5.11150       -7.24590        8.33860
C          4.39270       -7.89860        7.24400
C          4.42230       -9.24540        6.97900
C          5.15160      -10.18320        7.73980
N          5.72150      -10.99760        8.31420
C          3.74980       -9.89660        5.92470
N          3.23650      -10.50540        5.09580
C          2.19650       -6.19450        4.59010
C          1.45910       -6.62010        3.46570
C          1.23800       -8.03730        3.04800
C          0.11000       -8.67720        3.86240
C          0.91000       -5.54030        2.79680
S         -0.05150       -5.41210        1.34220
C         -0.03730       -3.69290        1.51890
C         -0.50330       -2.57940        0.78560
C         -0.10020       -1.41220        1.43480
C          0.64690       -1.72980        2.70570
C          0.64860       -3.23710        2.64580
C          1.19990       -4.28470        3.37280
S          2.16680       -4.43800        4.78660
C          2.08380       -1.24040        2.73130
C          2.78160       -1.27850        3.93220
C          4.10020       -0.87320        3.98570
C          4.75420       -0.41870        2.84690
C          6.16920        0.07690        2.92280
C          6.19330        1.56230        3.28960
C          4.05260       -0.38990        1.65000
C          2.73400       -0.80420        1.58730
C         -0.13820       -1.15790        3.87440
C         -0.98030       -1.94180        4.64800
C         -1.69950       -1.37710        5.68580
C         -1.60250       -0.02180        5.96920
C         -2.42260        0.59330        7.06590
C         -3.79000        1.02360        6.53090
C         -0.76580        0.75930        5.18170
C         -0.04050        0.20040        4.14790
C         -0.48290       -0.27960        0.72660
S         -0.23000        1.42840        0.92110
C         -0.99730        1.69490       -0.60760
C         -1.25660        2.79700       -1.45370
C         -1.88810        2.33910       -2.60970
C         -2.08830        0.84440       -2.56180
C         -3.54440        0.41490       -2.50790
C         -4.56930        1.31860       -2.27300
C         -5.88130        0.88450       -2.21150
C         -6.19920       -0.45680       -2.37350
C         -7.62040       -0.92830       -2.26630
C         -7.95960       -1.28100       -0.81650
C         -5.16500       -1.35870       -2.59250
C         -3.85380       -0.93080       -2.66100
C         -1.37980        0.22680       -3.75420
C         -0.09240       -0.27940       -3.66050
C          0.53370       -0.80450       -4.77650
C         -0.10350       -0.82690       -6.00900
C          0.59510       -1.35670       -7.22750
C          1.33790       -0.22990       -7.94850
C         -1.38630       -0.30060       -6.09900
C         -2.01920        0.21990       -4.98750
C         -1.44740        0.53200       -1.23180
C         -1.16350       -0.59550       -0.47020
S         -1.36010       -2.30700       -0.69480
C         -2.10160        3.37300       -3.51270
C         -1.63600        4.61540       -3.04150
S         -0.94360        4.49480       -1.44560
C         -1.80310        5.68310       -3.92700
C         -1.54290        7.10540       -3.54450
C         -0.09000        7.35240       -3.14000
C         -2.40650        5.25020       -5.10630
S         -2.81760        3.53110       -5.06640
C         -2.80750        5.96800       -6.25270
C         -2.12430        6.99780       -6.84490
C         -0.66630        7.20400       -6.70300
O          0.11210        6.58150       -6.01440
C         -0.31990        8.23890       -7.70410
C          0.91990        8.78000       -7.97550
C          1.01520        9.73950       -8.97650
Cl         2.52890       10.46140       -9.35920
C         -0.13390       10.11590       -9.67550
F         -0.03320       11.03600      -10.64230
C         -1.38160        9.57200       -9.41200
C         -1.47420        8.61950       -8.40960
C         -2.61410        7.86990       -7.88790
C         -3.92310        8.03080       -8.26440
C         -4.34860        8.91010       -9.28100
N         -4.74940        9.60360      -10.10310
C         -5.01190        7.36200       -7.66720
N         -5.94430        6.87140       -7.21070
H          2.79390       -8.11530        5.10240
H          5.19280       -3.92380        9.12440
H          6.17110       -8.79760        9.42980
H          0.96280       -8.04410        1.99120
H          2.14790       -8.62770        3.16600
H          0.35710       -8.68750        4.92110
H         -0.04370       -9.70140        3.53520
H         -0.81650       -8.12370        3.72740
H          2.28910       -1.62460        4.82870
H          4.62900       -0.91480        4.92640
H          6.71840       -0.48880        3.67790
H          6.66520       -0.06460        1.96050
H          7.21750        1.92280        3.35070
H          5.71030        1.72200        4.25090
H          5.66350        2.14580        2.53990
H          4.54300       -0.04380        0.75130
H          2.21580       -0.78420        0.63980
H         -1.07500       -2.99890        4.44820
H         -2.34430       -2.00280        6.28620
H         -2.56300       -0.12860        7.87280
H         -1.90460        1.46420        7.47200
H         -3.67120        1.75240        5.73220
H         -4.38560        1.47000        7.32350
H         -4.32780        0.16580        6.13300
H         -0.67670        1.81710        5.38300
H          0.61520        0.81970        3.55280
H         -4.35020        2.36810       -2.14240
H         -6.66960        1.60300       -2.03880
H         -8.29720       -0.14530       -2.61360
H         -7.76570       -1.80960       -2.89400
H         -7.29930       -2.06540       -0.45330
H         -7.83930       -0.40960       -0.17660
H         -8.98720       -1.62850       -0.74070
H         -5.38900       -2.40820       -2.71730
H         -3.06290       -1.64350       -2.84580
H          0.42910       -0.26790       -2.71470
H          1.53380       -1.20350       -4.68510
H         -0.13440       -1.79950       -7.90840
H          1.30820       -2.13120       -6.93880
H          2.08260        0.21370       -7.29140
H          1.83910       -0.61140       -8.83480
H          0.64200        0.54950       -8.25050
H         -1.89830       -0.30120       -7.05030
H         -3.01970        0.61850       -5.07330
H         -2.19160        7.34130       -2.69380
H         -1.81620        7.76450       -4.36860
H          0.17030        6.76890       -2.26080
H          0.57450        7.07490       -3.95280
H          0.05240        8.40550       -2.91120
H         -3.71540        5.61270       -6.72670
H          1.79020        8.46680       -7.42120
H         -2.22800        9.90070       -9.99280
