
  xtb     02012219253D
 energy: -195.176266605201 gnorm: 0.000300729394 xtb: 6.4.1 (unknown)
 97108  0     0  0            999 V2000
    4.5614   -4.9734   -3.1318 C   0  0  0  0  0  0  0  0  0  0  0  0
    5.5508   -5.8226   -2.7306 C   0  0  0  0  0  0  0  0  0  0  0  0
    6.6853   -6.1076   -3.6465 C   0  0  0  0  0  0  0  0  0  0  0  0
    6.9353   -5.5504   -4.6893 O   0  0  0  0  0  0  0  0  0  0  0  0
    7.4034   -7.2463   -3.0287 C   0  0  0  0  0  0  0  0  0  0  0  0
    8.4790   -7.9554   -3.5233 C   0  0  0  0  0  0  0  0  0  0  0  0
    8.9784   -9.0100   -2.7674 C   0  0  0  0  0  0  0  0  0  0  0  0
   10.3167   -9.9337   -3.3254 Cl  0  0  0  0  0  0  0  0  0  0  0  0
    8.3815   -9.3183   -1.5423 C   0  0  0  0  0  0  0  0  0  0  0  0
    8.8582  -10.3432   -0.8273 F   0  0  0  0  0  0  0  0  0  0  0  0
    7.3080   -8.6040   -1.0332 C   0  0  0  0  0  0  0  0  0  0  0  0
    6.8151   -7.5520   -1.7880 C   0  0  0  0  0  0  0  0  0  0  0  0
    5.7433   -6.5938   -1.5226 C   0  0  0  0  0  0  0  0  0  0  0  0
    5.2138   -6.3281   -0.2857 C   0  0  0  0  0  0  0  0  0  0  0  0
    4.4063   -5.2115    0.0087 C   0  0  0  0  0  0  0  0  0  0  0  0
    3.7919   -4.2955    0.3272 N   0  0  0  0  0  0  0  0  0  0  0  0
    5.4954   -7.0869    0.8692 C   0  0  0  0  0  0  0  0  0  0  0  0
    5.6675   -7.6863    1.8325 N   0  0  0  0  0  0  0  0  0  0  0  0
    3.2628   -4.7968   -2.6042 C   0  0  0  0  0  0  0  0  0  0  0  0
    2.3843   -5.6994   -2.0144 C   0  0  0  0  0  0  0  0  0  0  0  0
    2.6027   -7.1745   -1.9233 C   0  0  0  0  0  0  0  0  0  0  0  0
    1.4541   -7.9614   -2.5546 C   0  0  0  0  0  0  0  0  0  0  0  0
    1.2144   -5.0567   -1.5879 C   0  0  0  0  0  0  0  0  0  0  0  0
   -0.1807   -5.6154   -0.6924 S   0  0  0  0  0  0  0  0  0  0  0  0
   -0.7548   -3.9894   -0.6097 C   0  0  0  0  0  0  0  0  0  0  0  0
   -1.7685   -3.2583    0.0249 C   0  0  0  0  0  0  0  0  0  0  0  0
   -2.7493   -3.6604    0.9651 C   0  0  0  0  0  0  0  0  0  0  0  0
   -3.4782   -2.6414    1.6763 C   0  0  0  0  0  0  0  0  0  0  0  0
   -4.3076   -3.0923    2.5963 N   0  0  0  0  0  0  0  0  0  0  0  0
   -4.2273   -4.8526    2.6181 Se  0  0  0  0  0  2  0  0  0  0  0  0
   -3.0242   -4.8965    1.3316 N   0  0  0  0  0  0  0  0  0  0  0  0
   -3.2808   -1.2878    1.3083 C   0  0  0  0  0  0  0  0  0  0  0  0
   -3.8530   -0.1011    1.7910 C   0  0  0  0  0  0  0  0  0  0  0  0
   -4.8933    0.4226    3.0648 S   0  0  0  0  0  0  0  0  0  0  0  0
   -4.6738    2.0749    2.5329 C   0  0  0  0  0  0  0  0  0  0  0  0
   -5.1383    3.2937    3.0266 C   0  0  0  0  0  0  0  0  0  0  0  0
   -5.9600    3.4300    4.2621 C   0  0  0  0  0  0  0  0  0  0  0  0
   -5.0677    3.7759    5.4575 C   0  0  0  0  0  0  0  0  0  0  0  0
   -4.6288    4.3665    2.2951 C   0  0  0  0  0  0  0  0  0  0  0  0
   -3.6283    3.8305    0.9416 S   0  0  0  0  0  0  0  0  0  0  0  0
   -3.8446    2.1858    1.4052 C   0  0  0  0  0  0  0  0  0  0  0  0
   -3.3732    0.9438    0.9864 C   0  0  0  0  0  0  0  0  0  0  0  0
   -2.5223    0.4478    0.0318 N   0  0  0  0  0  0  0  0  0  0  0  0
   -2.4158   -0.9138    0.2423 C   0  0  0  0  0  0  0  0  0  0  0  0
   -1.5503   -1.8915   -0.3066 C   0  0  0  0  0  0  0  0  0  0  0  0
   -0.4187   -1.7993   -1.0912 N   0  0  0  0  0  0  0  0  0  0  0  0
    0.0663   -3.0667   -1.2713 C   0  0  0  0  0  0  0  0  0  0  0  0
    1.1917   -3.6762   -1.8335 C   0  0  0  0  0  0  0  0  0  0  0  0
    2.5927   -3.1714   -2.6941 S   0  0  0  0  0  0  0  0  0  0  0  0
    0.4194   -0.6556   -1.3830 C   0  0  0  0  0  0  0  0  0  0  0  0
    0.4744   -0.3491   -2.8790 C   0  0  0  0  0  0  0  0  0  0  0  0
   -2.3210    1.1789   -1.2009 C   0  0  0  0  0  0  0  0  0  0  0  0
   -3.6477    1.4294   -1.9177 C   0  0  0  0  0  0  0  0  0  0  0  0
   -4.8945    5.7272    2.5206 C   0  0  0  0  0  0  0  0  0  0  0  0
   -4.2024    6.8225    2.0801 C   0  0  0  0  0  0  0  0  0  0  0  0
   -4.8805    8.1371    2.0009 C   0  0  0  0  0  0  0  0  0  0  0  0
   -5.9492    8.4352    2.4750 O   0  0  0  0  0  0  0  0  0  0  0  0
   -3.9769    8.9763    1.1682 C   0  0  0  0  0  0  0  0  0  0  0  0
   -2.8022    8.2583    0.8759 C   0  0  0  0  0  0  0  0  0  0  0  0
   -1.8085    8.8100    0.0875 C   0  0  0  0  0  0  0  0  0  0  0  0
   -2.0062   10.0924   -0.4043 C   0  0  0  0  0  0  0  0  0  0  0  0
   -1.0689   10.6430   -1.1798 F   0  0  0  0  0  0  0  0  0  0  0  0
   -3.1558   10.8244   -0.1158 C   0  0  0  0  0  0  0  0  0  0  0  0
   -3.3042   12.0598   -0.6014 F   0  0  0  0  0  0  0  0  0  0  0  0
   -4.1545   10.2591    0.6817 C   0  0  0  0  0  0  0  0  0  0  0  0
   -5.2485   10.9637    0.9515 F   0  0  0  0  0  0  0  0  0  0  0  0
   -2.8654    6.9679    1.5637 C   0  0  0  0  0  0  0  0  0  0  0  0
   -1.7793    6.1975    1.8963 C   0  0  0  0  0  0  0  0  0  0  0  0
   -0.4817    6.3945    1.3876 C   0  0  0  0  0  0  0  0  0  0  0  0
    0.5835    6.4862    0.9692 N   0  0  0  0  0  0  0  0  0  0  0  0
   -1.8423    5.1696    2.8608 C   0  0  0  0  0  0  0  0  0  0  0  0
   -1.8504    4.3733    3.6876 N   0  0  0  0  0  0  0  0  0  0  0  0
    4.8131   -4.3565   -3.9903 H   0  0  0  0  0  0  0  0  0  0  0  0
    8.9201   -7.6945   -4.4720 H   0  0  0  0  0  0  0  0  0  0  0  0
    6.8913   -8.8920   -0.0817 H   0  0  0  0  0  0  0  0  0  0  0  0
    3.5334   -7.4395   -2.4274 H   0  0  0  0  0  0  0  0  0  0  0  0
    2.6925   -7.4558   -0.8687 H   0  0  0  0  0  0  0  0  0  0  0  0
    1.3270   -7.6736   -3.5958 H   0  0  0  0  0  0  0  0  0  0  0  0
    0.5215   -7.7842   -2.0270 H   0  0  0  0  0  0  0  0  0  0  0  0
    1.6751   -9.0247   -2.5141 H   0  0  0  0  0  0  0  0  0  0  0  0
   -6.4676    2.4821    4.4497 H   0  0  0  0  0  0  0  0  0  0  0  0
   -6.7126    4.2102    4.1314 H   0  0  0  0  0  0  0  0  0  0  0  0
   -5.6678    3.8490    6.3602 H   0  0  0  0  0  0  0  0  0  0  0  0
   -4.3134    3.0065    5.5997 H   0  0  0  0  0  0  0  0  0  0  0  0
   -4.5604    4.7234    5.2933 H   0  0  0  0  0  0  0  0  0  0  0  0
    0.0689    0.1997   -0.8053 H   0  0  0  0  0  0  0  0  0  0  0  0
    1.4323   -0.8935   -1.0400 H   0  0  0  0  0  0  0  0  0  0  0  0
    1.0363    0.5657   -3.0428 H   0  0  0  0  0  0  0  0  0  0  0  0
   -0.5192   -0.2314   -3.3065 H   0  0  0  0  0  0  0  0  0  0  0  0
    0.9720   -1.1565   -3.4092 H   0  0  0  0  0  0  0  0  0  0  0  0
   -1.6824    0.5980   -1.8570 H   0  0  0  0  0  0  0  0  0  0  0  0
   -1.8377    2.1332   -0.9677 H   0  0  0  0  0  0  0  0  0  0  0  0
   -3.4587    1.9273   -2.8646 H   0  0  0  0  0  0  0  0  0  0  0  0
   -4.1538    0.4863   -2.1133 H   0  0  0  0  0  0  0  0  0  0  0  0
   -4.3034    2.0598   -1.3241 H   0  0  0  0  0  0  0  0  0  0  0  0
   -5.8149    5.9515    3.0517 H   0  0  0  0  0  0  0  0  0  0  0  0
   -0.9013    8.2855   -0.1637 H   0  0  0  0  0  0  0  0  0  0  0  0
  1  2  2  0  0  0  0
  2  3  1  0  0  0  0
  3  4  2  0  0  0  0
  3  5  1  0  0  0  0
  5  6  2  0  0  0  0
  6  7  1  0  0  0  0
  7  8  1  0  0  0  0
  7  9  2  0  0  0  0
  9 10  1  0  0  0  0
  9 11  1  0  0  0  0
 11 12  2  0  0  0  0
 12 13  1  0  0  0  0
 13 14  2  0  0  0  0
 14 15  1  0  0  0  0
 15 16  3  0  0  0  0
 14 17  1  0  0  0  0
 17 18  3  0  0  0  0
  1 19  1  0  0  0  0
 19 20  2  0  0  0  0
 20 21  1  0  0  0  0
 21 22  1  0  0  0  0
 20 23  1  0  0  0  0
 23 24  1  0  0  0  0
 24 25  1  0  0  0  0
 25 26  1  0  0  0  0
 26 27  1  0  0  0  0
 27 28  1  0  0  0  0
 28 29  2  0  0  0  0
 29 30  1  0  0  0  0
 30 31  1  0  0  0  0
 28 32  1  0  0  0  0
 32 33  1  0  0  0  0
 33 34  1  0  0  0  0
 34 35  1  0  0  0  0
 35 36  1  0  0  0  0
 36 37  1  0  0  0  0
 37 38  1  0  0  0  0
 36 39  2  0  0  0  0
 39 40  1  0  0  0  0
 40 41  1  0  0  0  0
 41 42  1  0  0  0  0
 42 43  1  0  0  0  0
 43 44  1  0  0  0  0
 44 45  1  0  0  0  0
 45 46  1  0  0  0  0
 46 47  1  0  0  0  0
 47 48  1  0  0  0  0
 48 49  1  0  0  0  0
 46 50  1  0  0  0  0
 50 51  1  0  0  0  0
 43 52  1  0  0  0  0
 52 53  1  0  0  0  0
 39 54  1  0  0  0  0
 54 55  2  0  0  0  0
 55 56  1  0  0  0  0
 56 57  2  0  0  0  0
 56 58  1  0  0  0  0
 58 59  2  0  0  0  0
 59 60  1  0  0  0  0
 60 61  2  0  0  0  0
 61 62  1  0  0  0  0
 61 63  1  0  0  0  0
 63 64  1  0  0  0  0
 63 65  2  0  0  0  0
 65 66  1  0  0  0  0
 59 67  1  0  0  0  0
 67 68  2  0  0  0  0
 68 69  1  0  0  0  0
 69 70  3  0  0  0  0
 68 71  1  0  0  0  0
 71 72  3  0  0  0  0
 13  2  1  0  0  0  0
 49 19  1  0  0  0  0
 67 55  1  0  0  0  0
 12  5  1  0  0  0  0
 48 23  2  0  0  0  0
 65 58  1  0  0  0  0
 47 25  2  0  0  0  0
 45 26  2  0  0  0  0
 31 27  2  0  0  0  0
 44 32  2  0  0  0  0
 42 33  2  0  0  0  0
 41 35  2  0  0  0  0
  1 73  1  0  0  0  0
  6 74  1  0  0  0  0
 11 75  1  0  0  0  0
 21 76  1  0  0  0  0
 21 77  1  0  0  0  0
 22 78  1  0  0  0  0
 22 79  1  0  0  0  0
 22 80  1  0  0  0  0
 37 81  1  0  0  0  0
 37 82  1  0  0  0  0
 38 83  1  0  0  0  0
 38 84  1  0  0  0  0
 38 85  1  0  0  0  0
 50 86  1  0  0  0  0
 50 87  1  0  0  0  0
 51 88  1  0  0  0  0
 51 89  1  0  0  0  0
 51 90  1  0  0  0  0
 52 91  1  0  0  0  0
 52 92  1  0  0  0  0
 53 93  1  0  0  0  0
 53 94  1  0  0  0  0
 53 95  1  0  0  0  0
 54 96  1  0  0  0  0
 60 97  1  0  0  0  0
M  END
