
  xtb     02012223343D
 energy: -236.441725663298 gnorm: 0.000849994893 xtb: 6.4.1 (unknown)
138151  0     0  0            999 V2000
   -0.0558    6.8192    0.8060 C   0  0  0  0  0  0  0  0  0  0  0  0
   -1.2728    7.4082    0.6291 C   0  0  0  0  0  0  0  0  0  0  0  0
   -1.3677    8.8658    0.3660 C   0  0  0  0  0  0  0  0  0  0  0  0
   -0.4906    9.6886    0.4854 O   0  0  0  0  0  0  0  0  0  0  0  0
   -2.7507    9.0758   -0.1256 C   0  0  0  0  0  0  0  0  0  0  0  0
   -3.3262   10.2323   -0.6112 C   0  0  0  0  0  0  0  0  0  0  0  0
   -4.6473   10.1823   -1.0413 C   0  0  0  0  0  0  0  0  0  0  0  0
   -5.4234   11.5882   -1.6562 Cl  0  0  0  0  0  0  0  0  0  0  0  0
   -5.3474    8.9750   -0.9717 C   0  0  0  0  0  0  0  0  0  0  0  0
   -6.6134    8.9326   -1.4026 F   0  0  0  0  0  0  0  0  0  0  0  0
   -4.7816    7.8120   -0.4734 C   0  0  0  0  0  0  0  0  0  0  0  0
   -3.4659    7.8669   -0.0440 C   0  0  0  0  0  0  0  0  0  0  0  0
   -2.6087    6.8546    0.5670 C   0  0  0  0  0  0  0  0  0  0  0  0
   -3.0542    5.7367    1.2232 C   0  0  0  0  0  0  0  0  0  0  0  0
   -4.3886    5.2848    1.1924 C   0  0  0  0  0  0  0  0  0  0  0  0
   -5.4553    4.8614    1.1790 N   0  0  0  0  0  0  0  0  0  0  0  0
   -2.2415    4.9664    2.0805 C   0  0  0  0  0  0  0  0  0  0  0  0
   -1.6317    4.3503    2.8332 N   0  0  0  0  0  0  0  0  0  0  0  0
    0.2866    5.4558    0.6736 C   0  0  0  0  0  0  0  0  0  0  0  0
    1.3609    4.8161    1.2793 C   0  0  0  0  0  0  0  0  0  0  0  0
    1.3950    3.4605    0.9911 C   0  0  0  0  0  0  0  0  0  0  0  0
    2.2456    2.2761    1.3709 C   0  0  0  0  0  0  0  0  0  0  0  0
    2.2653    1.9744    2.8573 C   0  0  0  0  0  0  0  0  0  0  0  0
    1.2417    2.4022    3.6911 C   0  0  0  0  0  0  0  0  0  0  0  0
    1.2544    2.0713    5.0343 C   0  0  0  0  0  0  0  0  0  0  0  0
    2.2739    1.2984    5.5728 C   0  0  0  0  0  0  0  0  0  0  0  0
    2.3088    0.9763    7.0389 C   0  0  0  0  0  0  0  0  0  0  0  0
    3.1321    2.0202    7.7960 C   0  0  0  0  0  0  0  0  0  0  0  0
    3.2890    0.8646    4.7295 C   0  0  0  0  0  0  0  0  0  0  0  0
    3.2856    1.1943    3.3879 C   0  0  0  0  0  0  0  0  0  0  0  0
    3.6400    2.5337    0.8223 C   0  0  0  0  0  0  0  0  0  0  0  0
    4.0606    2.0049   -0.3890 C   0  0  0  0  0  0  0  0  0  0  0  0
    5.3195    2.3006   -0.8809 C   0  0  0  0  0  0  0  0  0  0  0  0
    6.1837    3.1328   -0.1835 C   0  0  0  0  0  0  0  0  0  0  0  0
    7.5314    3.4857   -0.7431 C   0  0  0  0  0  0  0  0  0  0  0  0
    7.4378    4.7439   -1.6088 C   0  0  0  0  0  0  0  0  0  0  0  0
    5.7510    3.6707    1.0224 C   0  0  0  0  0  0  0  0  0  0  0  0
    4.4957    3.3788    1.5189 C   0  0  0  0  0  0  0  0  0  0  0  0
    1.5170    1.1547    0.6497 C   0  0  0  0  0  0  0  0  0  0  0  0
    0.4570    1.6636   -0.1407 C   0  0  0  0  0  0  0  0  0  0  0  0
    0.4025    3.0677    0.1003 C   0  0  0  0  0  0  0  0  0  0  0  0
   -0.6244    4.3573   -0.3553 S   0  0  0  0  0  0  0  0  0  0  0  0
   -0.3461    0.8363   -0.9224 C   0  0  0  0  0  0  0  0  0  0  0  0
   -0.1138   -0.5167   -0.8452 C   0  0  0  0  0  0  0  0  0  0  0  0
   -0.8336   -1.6373   -1.5763 C   0  0  0  0  0  0  0  0  0  0  0  0
   -0.5224   -1.4774   -3.0565 C   0  0  0  0  0  0  0  0  0  0  0  0
   -1.3058   -0.6421   -3.8430 C   0  0  0  0  0  0  0  0  0  0  0  0
   -1.0115   -0.4589   -5.1807 C   0  0  0  0  0  0  0  0  0  0  0  0
    0.0717   -1.0998   -5.7681 C   0  0  0  0  0  0  0  0  0  0  0  0
    0.4119   -0.8726   -7.2126 C   0  0  0  0  0  0  0  0  0  0  0  0
    1.3860    0.2988   -7.3552 C   0  0  0  0  0  0  0  0  0  0  0  0
    0.8605   -1.9205   -4.9736 C   0  0  0  0  0  0  0  0  0  0  0  0
    0.5719   -2.1055   -3.6340 C   0  0  0  0  0  0  0  0  0  0  0  0
   -2.3272   -1.7030   -1.3219 C   0  0  0  0  0  0  0  0  0  0  0  0
   -2.9235   -1.0288   -0.2663 C   0  0  0  0  0  0  0  0  0  0  0  0
   -4.2862   -1.1325   -0.0512 C   0  0  0  0  0  0  0  0  0  0  0  0
   -5.0823   -1.9211   -0.8703 C   0  0  0  0  0  0  0  0  0  0  0  0
   -6.5679   -1.9866   -0.6655 C   0  0  0  0  0  0  0  0  0  0  0  0
   -7.2617   -0.8587   -1.4324 C   0  0  0  0  0  0  0  0  0  0  0  0
   -4.4760   -2.6111   -1.9127 C   0  0  0  0  0  0  0  0  0  0  0  0
   -3.1167   -2.5077   -2.1350 C   0  0  0  0  0  0  0  0  0  0  0  0
   -0.1774   -2.8456   -0.9586 C   0  0  0  0  0  0  0  0  0  0  0  0
    0.8222   -2.4555   -0.0615 C   0  0  0  0  0  0  0  0  0  0  0  0
    0.8987   -1.0314    0.0009 C   0  0  0  0  0  0  0  0  0  0  0  0
    1.7382   -0.1986    0.7388 C   0  0  0  0  0  0  0  0  0  0  0  0
    1.5698   -3.7642    0.7391 S   0  0  0  0  0  0  0  0  0  0  0  0
    0.5352   -4.8858   -0.1367 C   0  0  0  0  0  0  0  0  0  0  0  0
   -0.3330   -4.2114   -1.0113 C   0  0  0  0  0  0  0  0  0  0  0  0
    0.5115   -6.2786   -0.0041 C   0  0  0  0  0  0  0  0  0  0  0  0
    1.1844   -7.1059    0.8630 C   0  0  0  0  0  0  0  0  0  0  0  0
    2.0943   -6.6716    1.9270 C   0  0  0  0  0  0  0  0  0  0  0  0
    2.5149   -5.5476    2.1373 O   0  0  0  0  0  0  0  0  0  0  0  0
    2.4044   -7.8770    2.7180 C   0  0  0  0  0  0  0  0  0  0  0  0
    3.1623   -7.9845    3.8472 C   0  0  0  0  0  0  0  0  0  0  0  0
    3.3024   -9.2498    4.4600 C   0  0  0  0  0  0  0  0  0  0  0  0
    4.0650   -9.4175    5.6318 C   0  0  0  0  0  0  0  0  0  0  0  0
    4.1763  -10.6513    6.2092 C   0  0  0  0  0  0  0  0  0  0  0  0
    4.9014  -10.8089    7.3256 F   0  0  0  0  0  0  0  0  0  0  0  0
    3.5320  -11.7681    5.6411 C   0  0  0  0  0  0  0  0  0  0  0  0
    3.6567  -12.9651    6.2305 F   0  0  0  0  0  0  0  0  0  0  0  0
    2.7869  -11.6370    4.5029 C   0  0  0  0  0  0  0  0  0  0  0  0
    2.6522  -10.3786    3.8829 C   0  0  0  0  0  0  0  0  0  0  0  0
    1.8798  -10.2346    2.7069 C   0  0  0  0  0  0  0  0  0  0  0  0
    1.7563   -8.9986    2.1301 C   0  0  0  0  0  0  0  0  0  0  0  0
    1.0295   -8.5444    0.9452 C   0  0  0  0  0  0  0  0  0  0  0  0
    0.3603   -9.3621    0.0707 C   0  0  0  0  0  0  0  0  0  0  0  0
   -0.2935   -8.9467   -1.1079 C   0  0  0  0  0  0  0  0  0  0  0  0
   -0.8423   -8.6910   -2.0843 N   0  0  0  0  0  0  0  0  0  0  0  0
    0.2581  -10.7608    0.2211 C   0  0  0  0  0  0  0  0  0  0  0  0
    0.1354  -11.9002    0.2901 N   0  0  0  0  0  0  0  0  0  0  0  0
    0.7648    7.4974    1.0204 H   0  0  0  0  0  0  0  0  0  0  0  0
   -2.7637   11.1513   -0.6529 H   0  0  0  0  0  0  0  0  0  0  0  0
   -5.3712    6.9098   -0.4452 H   0  0  0  0  0  0  0  0  0  0  0  0
    2.0333    5.3281    1.9431 H   0  0  0  0  0  0  0  0  0  0  0  0
    0.4290    2.9953    3.2997 H   0  0  0  0  0  0  0  0  0  0  0  0
    0.4522    2.4172    5.6699 H   0  0  0  0  0  0  0  0  0  0  0  0
    1.2932    0.9596    7.4388 H   0  0  0  0  0  0  0  0  0  0  0  0
    2.7526   -0.0100    7.1902 H   0  0  0  0  0  0  0  0  0  0  0  0
    4.1525    2.0437    7.4195 H   0  0  0  0  0  0  0  0  0  0  0  0
    3.1591    1.7872    8.8579 H   0  0  0  0  0  0  0  0  0  0  0  0
    2.6974    3.0090    7.6682 H   0  0  0  0  0  0  0  0  0  0  0  0
    4.0903    0.2576    5.1264 H   0  0  0  0  0  0  0  0  0  0  0  0
    4.0879    0.8517    2.7499 H   0  0  0  0  0  0  0  0  0  0  0  0
    3.4074    1.3554   -0.9534 H   0  0  0  0  0  0  0  0  0  0  0  0
    5.6339    1.8742   -1.8229 H   0  0  0  0  0  0  0  0  0  0  0  0
    7.9082    2.6596   -1.3494 H   0  0  0  0  0  0  0  0  0  0  0  0
    8.2364    3.6617    0.0717 H   0  0  0  0  0  0  0  0  0  0  0  0
    7.0763    5.5834   -1.0190 H   0  0  0  0  0  0  0  0  0  0  0  0
    6.7478    4.5845   -2.4345 H   0  0  0  0  0  0  0  0  0  0  0  0
    8.4134    4.9993   -2.0152 H   0  0  0  0  0  0  0  0  0  0  0  0
    6.4064    4.3243    1.5801 H   0  0  0  0  0  0  0  0  0  0  0  0
    4.1790    3.7982    2.4628 H   0  0  0  0  0  0  0  0  0  0  0  0
   -1.1309    1.2487   -1.5375 H   0  0  0  0  0  0  0  0  0  0  0  0
   -2.1617   -0.1450   -3.4102 H   0  0  0  0  0  0  0  0  0  0  0  0
   -1.6369    0.1881   -5.7792 H   0  0  0  0  0  0  0  0  0  0  0  0
    0.8681   -1.7720   -7.6308 H   0  0  0  0  0  0  0  0  0  0  0  0
   -0.4967   -0.6557   -7.7776 H   0  0  0  0  0  0  0  0  0  0  0  0
    1.6377    0.4588   -8.4010 H   0  0  0  0  0  0  0  0  0  0  0  0
    2.3020    0.0984   -6.8039 H   0  0  0  0  0  0  0  0  0  0  0  0
    0.9424    1.2103   -6.9607 H   0  0  0  0  0  0  0  0  0  0  0  0
    1.7104   -2.4268   -5.4086 H   0  0  0  0  0  0  0  0  0  0  0  0
    1.2023   -2.7500   -3.0389 H   0  0  0  0  0  0  0  0  0  0  0  0
   -2.3264   -0.4158    0.3931 H   0  0  0  0  0  0  0  0  0  0  0  0
   -4.7356   -0.5919    0.7694 H   0  0  0  0  0  0  0  0  0  0  0  0
   -6.9481   -2.9479   -1.0165 H   0  0  0  0  0  0  0  0  0  0  0  0
   -6.7998   -1.8934    0.3973 H   0  0  0  0  0  0  0  0  0  0  0  0
   -6.9136    0.1092   -1.0792 H   0  0  0  0  0  0  0  0  0  0  0  0
   -7.0438   -0.9345   -2.4956 H   0  0  0  0  0  0  0  0  0  0  0  0
   -8.3389   -0.9119   -1.2940 H   0  0  0  0  0  0  0  0  0  0  0  0
   -5.0751   -3.2378   -2.5578 H   0  0  0  0  0  0  0  0  0  0  0  0
   -2.6634   -3.0460   -2.9550 H   0  0  0  0  0  0  0  0  0  0  0  0
    2.5143   -0.6120    1.3635 H   0  0  0  0  0  0  0  0  0  0  0  0
   -1.0396   -4.7364   -1.6290 H   0  0  0  0  0  0  0  0  0  0  0  0
   -0.1890   -6.7539   -0.6805 H   0  0  0  0  0  0  0  0  0  0  0  0
    3.6431   -7.1156    4.2702 H   0  0  0  0  0  0  0  0  0  0  0  0
    4.5632   -8.5718    6.0793 H   0  0  0  0  0  0  0  0  0  0  0  0
    2.3006  -12.5025    4.0807 H   0  0  0  0  0  0  0  0  0  0  0  0
    1.3997  -11.1087    2.2981 H   0  0  0  0  0  0  0  0  0  0  0  0
  1  2  2  0  0  0  0
  2  3  1  0  0  0  0
  3  4  2  0  0  0  0
  3  5  1  0  0  0  0
  5  6  2  0  0  0  0
  6  7  1  0  0  0  0
  7  8  1  0  0  0  0
  7  9  2  0  0  0  0
  9 10  1  0  0  0  0
  9 11  1  0  0  0  0
 11 12  2  0  0  0  0
 12 13  1  0  0  0  0
 13 14  2  0  0  0  0
 14 15  1  0  0  0  0
 15 16  3  0  0  0  0
 14 17  1  0  0  0  0
 17 18  3  0  0  0  0
  1 19  1  0  0  0  0
 19 20  2  0  0  0  0
 20 21  1  0  0  0  0
 21 22  1  0  0  0  0
 22 23  1  0  0  0  0
 23 24  2  0  0  0  0
 24 25  1  0  0  0  0
 25 26  2  0  0  0  0
 26 27  1  0  0  0  0
 27 28  1  0  0  0  0
 26 29  1  0  0  0  0
 29 30  2  0  0  0  0
 22 31  1  0  0  0  0
 31 32  2  0  0  0  0
 32 33  1  0  0  0  0
 33 34  2  0  0  0  0
 34 35  1  0  0  0  0
 35 36  1  0  0  0  0
 34 37  1  0  0  0  0
 37 38  2  0  0  0  0
 22 39  1  0  0  0  0
 39 40  2  0  0  0  0
 40 41  1  0  0  0  0
 41 42  1  0  0  0  0
 40 43  1  0  0  0  0
 43 44  2  0  0  0  0
 44 45  1  0  0  0  0
 45 46  1  0  0  0  0
 46 47  2  0  0  0  0
 47 48  1  0  0  0  0
 48 49  2  0  0  0  0
 49 50  1  0  0  0  0
 50 51  1  0  0  0  0
 49 52  1  0  0  0  0
 52 53  2  0  0  0  0
 45 54  1  0  0  0  0
 54 55  2  0  0  0  0
 55 56  1  0  0  0  0
 56 57  2  0  0  0  0
 57 58  1  0  0  0  0
 58 59  1  0  0  0  0
 57 60  1  0  0  0  0
 60 61  2  0  0  0  0
 45 62  1  0  0  0  0
 62 63  2  0  0  0  0
 63 64  1  0  0  0  0
 64 65  2  0  0  0  0
 63 66  1  0  0  0  0
 66 67  1  0  0  0  0
 67 68  2  0  0  0  0
 67 69  1  0  0  0  0
 69 70  2  0  0  0  0
 70 71  1  0  0  0  0
 71 72  2  0  0  0  0
 71 73  1  0  0  0  0
 73 74  2  0  0  0  0
 74 75  1  0  0  0  0
 75 76  2  0  0  0  0
 76 77  1  0  0  0  0
 77 78  1  0  0  0  0
 77 79  2  0  0  0  0
 79 80  1  0  0  0  0
 79 81  1  0  0  0  0
 81 82  2  0  0  0  0
 82 83  1  0  0  0  0
 83 84  2  0  0  0  0
 84 85  1  0  0  0  0
 85 86  2  0  0  0  0
 86 87  1  0  0  0  0
 87 88  3  0  0  0  0
 86 89  1  0  0  0  0
 89 90  3  0  0  0  0
 13  2  1  0  0  0  0
 42 19  1  0  0  0  0
 64 44  1  0  0  0  0
 85 70  1  0  0  0  0
 12  5  1  0  0  0  0
 41 21  2  0  0  0  0
 53 46  1  0  0  0  0
 61 54  1  0  0  0  0
 68 62  1  0  0  0  0
 84 73  1  0  0  0  0
 30 23  1  0  0  0  0
 38 31  1  0  0  0  0
 65 39  1  0  0  0  0
 82 75  1  0  0  0  0
  1 91  1  0  0  0  0
  6 92  1  0  0  0  0
 11 93  1  0  0  0  0
 20 94  1  0  0  0  0
 24 95  1  0  0  0  0
 25 96  1  0  0  0  0
 27 97  1  0  0  0  0
 27 98  1  0  0  0  0
 28 99  1  0  0  0  0
 28100  1  0  0  0  0
 28101  1  0  0  0  0
 29102  1  0  0  0  0
 30103  1  0  0  0  0
 32104  1  0  0  0  0
 33105  1  0  0  0  0
 35106  1  0  0  0  0
 35107  1  0  0  0  0
 36108  1  0  0  0  0
 36109  1  0  0  0  0
 36110  1  0  0  0  0
 37111  1  0  0  0  0
 38112  1  0  0  0  0
 43113  1  0  0  0  0
 47114  1  0  0  0  0
 48115  1  0  0  0  0
 50116  1  0  0  0  0
 50117  1  0  0  0  0
 51118  1  0  0  0  0
 51119  1  0  0  0  0
 51120  1  0  0  0  0
 52121  1  0  0  0  0
 53122  1  0  0  0  0
 55123  1  0  0  0  0
 56124  1  0  0  0  0
 58125  1  0  0  0  0
 58126  1  0  0  0  0
 59127  1  0  0  0  0
 59128  1  0  0  0  0
 59129  1  0  0  0  0
 60130  1  0  0  0  0
 61131  1  0  0  0  0
 65132  1  0  0  0  0
 68133  1  0  0  0  0
 69134  1  0  0  0  0
 74135  1  0  0  0  0
 76136  1  0  0  0  0
 81137  1  0  0  0  0
 83138  1  0  0  0  0
M  END
