
  xtb     01262218343D
 energy: -197.298690926392 gnorm: 0.000235639156 xtb: 6.4.1 (unknown)
114125  0     0  0            999 V2000
    2.6058   -8.3107   -3.9407 C   0  0  0  0  0  0  0  0  0  0  0  0
    2.7170   -9.6719   -3.7817 C   0  0  0  0  0  0  0  0  0  0  0  0
    2.1481  -10.5231   -2.7190 C   0  0  0  0  0  0  0  0  0  0  0  0
    1.3461  -10.2430   -1.8516 O   0  0  0  0  0  0  0  0  0  0  0  0
    2.7733  -11.8535   -2.8977 C   0  0  0  0  0  0  0  0  0  0  0  0
    2.6077  -12.9787   -2.1165 C   0  0  0  0  0  0  0  0  0  0  0  0
    3.3106  -14.1270   -2.4598 C   0  0  0  0  0  0  0  0  0  0  0  0
    3.1557  -15.5643   -1.5276 Cl  0  0  0  0  0  0  0  0  0  0  0  0
    4.1524  -14.1048   -3.5739 C   0  0  0  0  0  0  0  0  0  0  0  0
    4.8324  -15.2122   -3.8958 F   0  0  0  0  0  0  0  0  0  0  0  0
    4.3183  -12.9786   -4.3651 C   0  0  0  0  0  0  0  0  0  0  0  0
    3.6156  -11.8344   -4.0199 C   0  0  0  0  0  0  0  0  0  0  0  0
    3.5609  -10.5039   -4.6220 C   0  0  0  0  0  0  0  0  0  0  0  0
    4.1679  -10.1575   -5.8018 C   0  0  0  0  0  0  0  0  0  0  0  0
    4.0714   -8.9118   -6.4579 C   0  0  0  0  0  0  0  0  0  0  0  0
    4.0393   -7.9419   -7.0729 N   0  0  0  0  0  0  0  0  0  0  0  0
    4.9689  -11.0365   -6.5620 C   0  0  0  0  0  0  0  0  0  0  0  0
    5.6345  -11.6951   -7.2259 N   0  0  0  0  0  0  0  0  0  0  0  0
    1.8646   -7.3482   -3.2421 C   0  0  0  0  0  0  0  0  0  0  0  0
    2.1943   -5.6604   -3.6650 S   0  0  0  0  0  0  0  0  0  0  0  0
    1.0746   -5.1330   -2.4923 C   0  0  0  0  0  0  0  0  0  0  0  0
    0.6329   -3.8845   -1.9631 C   0  0  0  0  0  0  0  0  0  0  0  0
   -0.2988   -4.1765   -0.9385 C   0  0  0  0  0  0  0  0  0  0  0  0
   -0.4923   -5.6690   -0.7924 C   0  0  0  0  0  0  0  0  0  0  0  0
    0.4551   -6.1951   -1.8289 C   0  0  0  0  0  0  0  0  0  0  0  0
    0.8937   -7.4362   -2.2448 C   0  0  0  0  0  0  0  0  0  0  0  0
   -0.1635   -6.1775    0.6127 C   0  0  0  0  0  0  0  0  0  0  0  0
   -0.8737   -3.1625   -0.2109 C   0  0  0  0  0  0  0  0  0  0  0  0
   -0.4737   -1.8570   -0.4925 C   0  0  0  0  0  0  0  0  0  0  0  0
   -0.8305   -0.6168    0.1204 C   0  0  0  0  0  0  0  0  0  0  0  0
   -0.1537    0.4145   -0.4651 C   0  0  0  0  0  0  0  0  0  0  0  0
    0.7188   -0.0668   -1.5954 C   0  0  0  0  0  0  0  0  0  0  0  0
    2.1774    0.3281   -1.2846 C   0  0  0  0  0  0  0  0  0  0  0  0
    3.2306   -0.1051   -2.2962 C   0  0  0  0  0  0  0  0  0  0  0  0
    0.2133    0.4065   -2.9743 C   0  0  0  0  0  0  0  0  0  0  0  0
    0.2375    1.9122   -3.1959 C   0  0  0  0  0  0  0  0  0  0  0  0
    0.4724   -1.5661   -1.5096 C   0  0  0  0  0  0  0  0  0  0  0  0
    1.0016   -2.5761   -2.2768 C   0  0  0  0  0  0  0  0  0  0  0  0
   -0.3973    1.6263    0.2658 C   0  0  0  0  0  0  0  0  0  0  0  0
   -1.3024    1.3068    1.3125 C   0  0  0  0  0  0  0  0  0  0  0  0
   -1.6726   -0.1613    1.2723 C   0  0  0  0  0  0  0  0  0  0  0  0
   -1.2919   -0.8670    2.5870 C   0  0  0  0  0  0  0  0  0  0  0  0
    0.1981   -0.7829    2.8945 C   0  0  0  0  0  0  0  0  0  0  0  0
   -3.1761   -0.3559    0.9955 C   0  0  0  0  0  0  0  0  0  0  0  0
   -3.6318    0.3023   -0.3008 C   0  0  0  0  0  0  0  0  0  0  0  0
   -1.6963    2.2470    2.2315 C   0  0  0  0  0  0  0  0  0  0  0  0
   -1.1458    3.5229    2.1185 C   0  0  0  0  0  0  0  0  0  0  0  0
   -1.2677    4.6753    2.9484 C   0  0  0  0  0  0  0  0  0  0  0  0
   -0.4631    5.7128    2.4704 C   0  0  0  0  0  0  0  0  0  0  0  0
    0.2427    5.2780    1.2203 C   0  0  0  0  0  0  0  0  0  0  0  0
   -0.2394    3.8505    1.0826 C   0  0  0  0  0  0  0  0  0  0  0  0
    0.1314    2.9121    0.1478 C   0  0  0  0  0  0  0  0  0  0  0  0
    1.7640    5.3867    1.3395 C   0  0  0  0  0  0  0  0  0  0  0  0
   -0.4740    6.8337    3.2762 C   0  0  0  0  0  0  0  0  0  0  0  0
   -1.2936    6.6751    4.3938 C   0  0  0  0  0  0  0  0  0  0  0  0
   -2.0774    5.0868    4.3906 S   0  0  0  0  0  0  0  0  0  0  0  0
   -1.5974    7.5001    5.4844 C   0  0  0  0  0  0  0  0  0  0  0  0
   -1.0688    8.6984    5.9034 C   0  0  0  0  0  0  0  0  0  0  0  0
    0.0967    9.4225    5.3617 C   0  0  0  0  0  0  0  0  0  0  0  0
    0.7238    9.2079    4.3457 O   0  0  0  0  0  0  0  0  0  0  0  0
    0.3825   10.5001    6.3385 C   0  0  0  0  0  0  0  0  0  0  0  0
   -0.5777   10.4759    7.3647 C   0  0  0  0  0  0  0  0  0  0  0  0
   -0.5015   11.3854    8.4075 C   0  0  0  0  0  0  0  0  0  0  0  0
    0.5330   12.3093    8.4086 C   0  0  0  0  0  0  0  0  0  0  0  0
    1.4743   12.3338    7.3914 C   0  0  0  0  0  0  0  0  0  0  0  0
    2.8592   13.6189    7.4501 Br  0  0  0  0  0  0  0  0  0  0  0  0
    1.4157   11.4233    6.3305 C   0  0  0  0  0  0  0  0  0  0  0  0
    2.5813   11.4514    5.0774 Cl  0  0  0  0  0  0  0  0  0  0  0  0
   -1.5266    9.3991    7.0870 C   0  0  0  0  0  0  0  0  0  0  0  0
   -2.6693    9.1619    7.8080 C   0  0  0  0  0  0  0  0  0  0  0  0
   -3.6500    8.1893    7.5175 C   0  0  0  0  0  0  0  0  0  0  0  0
   -4.5082    7.4436    7.3527 N   0  0  0  0  0  0  0  0  0  0  0  0
   -3.0542    9.8988    8.9479 C   0  0  0  0  0  0  0  0  0  0  0  0
   -3.4272   10.4507    9.8830 N   0  0  0  0  0  0  0  0  0  0  0  0
    3.2237   -7.8810   -4.7206 H   0  0  0  0  0  0  0  0  0  0  0  0
    1.9508  -12.9621   -1.2616 H   0  0  0  0  0  0  0  0  0  0  0  0
    4.9859  -13.0312   -5.2092 H   0  0  0  0  0  0  0  0  0  0  0  0
   -1.5239   -5.9451   -1.0379 H   0  0  0  0  0  0  0  0  0  0  0  0
    0.5573   -8.3796   -1.8580 H   0  0  0  0  0  0  0  0  0  0  0  0
   -0.8528   -5.7568    1.3400 H   0  0  0  0  0  0  0  0  0  0  0  0
    0.8495   -5.8910    0.8862 H   0  0  0  0  0  0  0  0  0  0  0  0
   -0.2390   -7.2611    0.6435 H   0  0  0  0  0  0  0  0  0  0  0  0
   -1.6003   -3.3659    0.5605 H   0  0  0  0  0  0  0  0  0  0  0  0
    2.2139    1.4132   -1.1828 H   0  0  0  0  0  0  0  0  0  0  0  0
    2.4299   -0.0949   -0.3083 H   0  0  0  0  0  0  0  0  0  0  0  0
    3.3341   -1.1857   -2.3195 H   0  0  0  0  0  0  0  0  0  0  0  0
    2.9941    0.2501   -3.2955 H   0  0  0  0  0  0  0  0  0  0  0  0
    4.1928    0.3147   -2.0098 H   0  0  0  0  0  0  0  0  0  0  0  0
   -0.8149    0.0516   -3.0854 H   0  0  0  0  0  0  0  0  0  0  0  0
    0.8095   -0.0843   -3.7447 H   0  0  0  0  0  0  0  0  0  0  0  0
   -0.1182    2.1346   -4.1998 H   0  0  0  0  0  0  0  0  0  0  0  0
    1.2446    2.3100   -3.1017 H   0  0  0  0  0  0  0  0  0  0  0  0
   -0.4139    2.4170   -2.4875 H   0  0  0  0  0  0  0  0  0  0  0  0
    1.6867   -2.3950   -3.0896 H   0  0  0  0  0  0  0  0  0  0  0  0
   -1.8578   -0.4120    3.4021 H   0  0  0  0  0  0  0  0  0  0  0  0
   -1.5873   -1.9156    2.5217 H   0  0  0  0  0  0  0  0  0  0  0  0
    0.4103   -1.2639    3.8463 H   0  0  0  0  0  0  0  0  0  0  0  0
    0.7792   -1.2807    2.1213 H   0  0  0  0  0  0  0  0  0  0  0  0
    0.5207    0.2543    2.9533 H   0  0  0  0  0  0  0  0  0  0  0  0
   -3.7391    0.0616    1.8327 H   0  0  0  0  0  0  0  0  0  0  0  0
   -3.3867   -1.4262    0.9495 H   0  0  0  0  0  0  0  0  0  0  0  0
   -3.4362    1.3721   -0.2792 H   0  0  0  0  0  0  0  0  0  0  0  0
   -4.6994    0.1506   -0.4403 H   0  0  0  0  0  0  0  0  0  0  0  0
   -3.1098   -0.1255   -1.1538 H   0  0  0  0  0  0  0  0  0  0  0  0
   -2.3814    2.0175    3.0336 H   0  0  0  0  0  0  0  0  0  0  0  0
   -0.0898    5.8756    0.3638 H   0  0  0  0  0  0  0  0  0  0  0  0
    0.8289    3.1632   -0.6355 H   0  0  0  0  0  0  0  0  0  0  0  0
    2.2428    5.0470    0.4249 H   0  0  0  0  0  0  0  0  0  0  0  0
    2.0501    6.4191    1.5216 H   0  0  0  0  0  0  0  0  0  0  0  0
    2.1189    4.7760    2.1667 H   0  0  0  0  0  0  0  0  0  0  0  0
    0.0824    7.7348    3.0997 H   0  0  0  0  0  0  0  0  0  0  0  0
   -2.3633    7.0815    6.1272 H   0  0  0  0  0  0  0  0  0  0  0  0
   -1.2152   11.3889    9.2138 H   0  0  0  0  0  0  0  0  0  0  0  0
    0.6126   13.0239    9.2132 H   0  0  0  0  0  0  0  0  0  0  0  0
  1  2  2  0  0  0  0
  2  3  1  0  0  0  0
  3  4  2  0  0  0  0
  3  5  1  0  0  0  0
  5  6  2  0  0  0  0
  6  7  1  0  0  0  0
  7  8  1  0  0  0  0
  7  9  2  0  0  0  0
  9 10  1  0  0  0  0
  9 11  1  0  0  0  0
 11 12  2  0  0  0  0
 12 13  1  0  0  0  0
 13 14  2  0  0  0  0
 14 15  1  0  0  0  0
 15 16  3  0  0  0  0
 14 17  1  0  0  0  0
 17 18  3  0  0  0  0
  1 19  1  0  0  0  0
 19 20  1  0  0  0  0
 20 21  1  0  0  0  0
 21 22  1  0  0  0  0
 22 23  2  0  0  0  0
 23 24  1  0  0  0  0
 24 25  1  0  0  0  0
 25 26  1  0  0  0  0
 24 27  1  0  0  0  0
 23 28  1  0  0  0  0
 28 29  2  0  0  0  0
 29 30  1  0  0  0  0
 30 31  2  0  0  0  0
 31 32  1  0  0  0  0
 32 33  1  0  0  0  0
 33 34  1  0  0  0  0
 32 35  1  0  0  0  0
 35 36  1  0  0  0  0
 32 37  1  0  0  0  0
 37 38  2  0  0  0  0
 31 39  1  0  0  0  0
 39 40  2  0  0  0  0
 40 41  1  0  0  0  0
 41 42  1  0  0  0  0
 42 43  1  0  0  0  0
 41 44  1  0  0  0  0
 44 45  1  0  0  0  0
 40 46  1  0  0  0  0
 46 47  2  0  0  0  0
 47 48  1  0  0  0  0
 48 49  2  0  0  0  0
 49 50  1  0  0  0  0
 50 51  1  0  0  0  0
 51 52  2  0  0  0  0
 50 53  1  0  0  0  0
 49 54  1  0  0  0  0
 54 55  2  0  0  0  0
 55 56  1  0  0  0  0
 55 57  1  0  0  0  0
 57 58  2  0  0  0  0
 58 59  1  0  0  0  0
 59 60  2  0  0  0  0
 59 61  1  0  0  0  0
 61 62  2  0  0  0  0
 62 63  1  0  0  0  0
 63 64  2  0  0  0  0
 64 65  1  0  0  0  0
 65 66  1  0  0  0  0
 65 67  2  0  0  0  0
 67 68  1  0  0  0  0
 62 69  1  0  0  0  0
 69 70  2  0  0  0  0
 70 71  1  0  0  0  0
 71 72  3  0  0  0  0
 70 73  1  0  0  0  0
 73 74  3  0  0  0  0
 13  2  1  0  0  0  0
 26 19  2  0  0  0  0
 37 29  1  0  0  0  0
 52 39  1  0  0  0  0
 69 58  1  0  0  0  0
 12  5  1  0  0  0  0
 25 21  2  0  0  0  0
 41 30  1  0  0  0  0
 51 47  1  0  0  0  0
 67 61  1  0  0  0  0
 38 22  1  0  0  0  0
 56 48  1  0  0  0  0
  1 75  1  0  0  0  0
  6 76  1  0  0  0  0
 11 77  1  0  0  0  0
 24 78  1  0  0  0  0
 26 79  1  0  0  0  0
 27 80  1  0  0  0  0
 27 81  1  0  0  0  0
 27 82  1  0  0  0  0
 28 83  1  0  0  0  0
 33 84  1  0  0  0  0
 33 85  1  0  0  0  0
 34 86  1  0  0  0  0
 34 87  1  0  0  0  0
 34 88  1  0  0  0  0
 35 89  1  0  0  0  0
 35 90  1  0  0  0  0
 36 91  1  0  0  0  0
 36 92  1  0  0  0  0
 36 93  1  0  0  0  0
 38 94  1  0  0  0  0
 42 95  1  0  0  0  0
 42 96  1  0  0  0  0
 43 97  1  0  0  0  0
 43 98  1  0  0  0  0
 43 99  1  0  0  0  0
 44100  1  0  0  0  0
 44101  1  0  0  0  0
 45102  1  0  0  0  0
 45103  1  0  0  0  0
 45104  1  0  0  0  0
 46105  1  0  0  0  0
 50106  1  0  0  0  0
 52107  1  0  0  0  0
 53108  1  0  0  0  0
 53109  1  0  0  0  0
 53110  1  0  0  0  0
 54111  1  0  0  0  0
 57112  1  0  0  0  0
 63113  1  0  0  0  0
 64114  1  0  0  0  0
M  END
