85

C          5.37000        6.21480        1.36770
C          5.81630        7.50950        1.43750
C          5.16540        8.73570        0.92940
O          4.15410        8.84920        0.26970
C          6.01070        9.85700        1.39550
C          5.80410       11.20810        1.20540
C          6.72690       12.09710        1.74260
Cl         6.53100       13.79380        1.54790
C          7.82360       11.59750        2.44990
F          8.70730       12.45780        2.96870
C          8.03760       10.24150        2.64070
C          7.11470        9.35660        2.10360
C          7.04140        7.89760        2.11980
C          7.99370        7.07680        2.66620
C          7.99220        5.66530        2.66430
N          8.08620        4.52100        2.70570
C          9.15850        7.54340        3.31420
N         10.12280        7.84800        3.85680
C          4.22570        5.64530        0.78480
C          3.17880        6.15850        0.03350
C          2.24770        5.18960       -0.30910
S          0.74640        5.25130       -1.20490
C          0.53910        3.55890       -0.91910
C         -0.37740        2.54060       -1.20910
C         -1.55140        2.55770       -1.99430
C         -2.27550        1.33710       -2.18010
N         -3.32790        1.48780       -2.96910
S         -3.40150        3.03520       -3.43490
N         -2.09460        3.57290       -2.64800
C         -1.84630        0.18020       -1.49230
C         -2.44080       -1.08230       -1.38000
C         -1.66680       -1.81480       -0.46960
N         -0.60450       -1.06330       -0.04520
C          0.14820       -1.49070        1.11310
C         -0.20340       -0.66130        2.34560
C         -0.68820        0.17570       -0.65780
C          0.11070        1.34870       -0.59430
N          1.31980        1.64180        0.01650
C          1.57420        2.97330       -0.17800
C          2.55810        3.90000        0.17060
S          4.03550        3.90370        1.04880
C          2.40150        0.76820        0.41860
C          2.86210       -0.11820       -0.73560
C         -2.20380       -3.07960       -0.22470
S         -1.82590       -4.44570        0.74760
C         -3.27600       -5.29050        0.18180
C         -3.98170       -4.52360       -0.73380
C         -3.38740       -3.29170       -0.96230
S         -3.82820       -1.93000       -1.96830
C         -3.47390       -6.57030        0.72470
C         -4.52230       -7.44920        0.62850
C         -5.84460       -7.23560        0.00430
O         -6.22230       -6.32220       -0.69820
C         -6.67060       -8.38990        0.42500
C         -8.00570       -8.62080        0.15830
C         -8.57510       -9.77060        0.68050
F         -9.86680      -10.03430        0.45210
C         -7.81470      -10.65500        1.44680
F         -8.39260      -11.75250        1.94670
C         -6.47230      -10.42550        1.70840
C         -5.89550       -9.27730        1.18760
C         -4.53440       -8.75050        1.27580
C         -3.46860       -9.42020        1.81660
C         -3.56010      -10.69650        2.41350
N         -3.56630      -11.72870        2.91470
C         -2.12880       -8.97480        1.83030
N         -1.01430       -8.70010        1.87030
H          5.98960        5.47920        1.86700
H          4.94640       11.55990        0.65460
H          8.90480        9.92730        3.19780
H          3.11360        7.19650       -0.23560
H         -0.12360       -2.53370        1.29280
H          1.21710       -1.47190        0.90330
H         -0.02280        0.39740        2.17430
H          0.39150       -0.98810        3.19390
H         -1.25490       -0.78970        2.59170
H          2.11980        0.18130        1.29260
H          3.22620        1.41690        0.72330
H          3.66480       -0.77040       -0.40300
H          3.23360        0.49750       -1.55150
H          2.04670       -0.72840       -1.11710
H         -4.89120       -4.86120       -1.19500
H         -2.65200       -6.88820        1.35610
H         -8.58880       -7.93240       -0.43240
H         -5.93120      -11.13850        2.30800
