88

C          6.28520        6.25420        1.55210
C          5.63450        7.44150        1.36540
C          6.39570        8.62950        0.90700
O          7.59620        8.76790        0.89140
C          5.36550        9.57710        0.41620
C          5.54210       10.78880       -0.21990
C          4.41300       11.49600       -0.61770
Cl         4.56370       13.01140       -1.41640
C          3.14550       10.96570       -0.36470
F          2.06490       11.64580       -0.76450
C          2.95880        9.75510        0.28490
C          4.08630        9.05460        0.67920
C          4.23530        7.79720        1.40880
C          3.28090        7.24370        2.22730
C          1.94160        7.67690        2.28090
N          0.83310        7.96880        2.33980
C          3.57260        6.24110        3.17560
N          3.78230        5.45580        3.98710
C          5.78050        4.93990        1.54030
C          6.49820        3.81990        1.93360
C          5.83240        2.61190        1.76910
S          6.31470        0.97410        2.15620
C          4.79970        0.40880        1.55190
C          4.11220       -0.79530        1.35950
C          4.52880       -2.12500        1.58630
C          3.65000       -3.19350        1.22370
N          4.17760       -4.38540        1.45720
S          5.65490       -4.17660        2.08320
N          5.67900       -2.55860        2.07860
C          2.37070       -2.87870        0.71670
C          1.30740       -3.72030        0.36780
C          0.23880       -2.89400        0.00830
N          0.60560       -1.58170        0.11780
C         -0.40900       -0.57480       -0.08050
C         -0.64000       -0.28260       -1.56240
C          1.92480       -1.53270        0.53460
C          2.83790       -0.47350        0.79670
N          2.79270        0.89840        0.62050
C          3.96450        1.43010        1.08370
C          4.54900        2.69300        1.19410
Se         4.09990        4.45410        0.79980
C          1.83160        1.79370        0.02340
C          0.99800        2.51750        1.08050
C         -0.91600       -3.61470       -0.31560
C         -0.69610       -5.00050       -0.20010
S          0.93100       -5.40600        0.30360
C         -1.78630       -5.81380       -0.49180
C         -2.93650       -5.13040       -0.85260
Se        -2.66610       -3.25080       -0.84590
C         -4.16900       -5.72800       -1.17720
C         -5.31770       -5.09820       -1.53320
S         -5.53310       -3.36930       -1.68420
C         -7.20650       -3.58850       -2.15960
C         -7.98960       -2.52220       -2.51500
C         -9.31370       -2.61570       -2.98040
N        -10.38750       -2.61660       -3.38640
C         -7.45050       -1.22120       -2.45950
N         -6.99950       -0.16760       -2.40760
N         -7.55900       -4.89890       -2.15310
C         -8.89390       -5.34300       -2.39750
C         -9.18240       -6.02570       -3.56750
C        -10.47570       -6.46310       -3.78950
C        -11.46320       -6.22180       -2.85000
C        -11.16130       -5.55220       -1.67640
C         -9.87200       -5.11290       -1.44120
C         -6.55590       -5.81170       -1.83520
O         -6.71950       -7.00800       -1.81310
H          7.36600        6.33640        1.62930
H          6.53190       11.17600       -0.40140
H          1.95580        9.39630        0.45130
H          7.48020        3.89660        2.36740
H         -1.34240       -0.97260        0.34170
H         -0.15730        0.32150        0.47830
H         -1.34200        0.53880       -1.67190
H         -1.06010       -1.15940       -2.05370
H          0.28790       -0.02900       -2.07100
H          1.21210        1.25520       -0.68780
H          2.40220        2.54390       -0.54170
H          1.63270        3.17600        1.67270
H          0.23280        3.12050        0.60040
H          0.52210        1.81770        1.76370
H         -1.75150       -6.88810       -0.44140
H         -4.21810       -6.81010       -1.13900
H         -8.40220       -6.20770       -4.29080
H        -10.71100       -6.99010       -4.70120
H        -12.47220       -6.55840       -3.03170
H        -11.92950       -5.36930       -0.94120
H         -9.62380       -4.59090       -0.52840
