
  xtb     02022201553D
 energy: -192.784137867344 gnorm: 0.000463703413 xtb: 6.4.1 (unknown)
115125  0     0  0            999 V2000
    4.5970    6.0240    4.1562 C   0  0  0  0  0  0  0  0  0  0  0  0
    3.8235    6.9616    4.7783 C   0  0  0  0  0  0  0  0  0  0  0  0
    4.3400    7.6896    5.9618 C   0  0  0  0  0  0  0  0  0  0  0  0
    5.4812    7.7245    6.3601 O   0  0  0  0  0  0  0  0  0  0  0  0
    3.1433    8.3126    6.5784 C   0  0  0  0  0  0  0  0  0  0  0  0
    3.0484    9.0054    7.7680 C   0  0  0  0  0  0  0  0  0  0  0  0
    1.8008    9.4788    8.1582 C   0  0  0  0  0  0  0  0  0  0  0  0
    1.6139   10.3465    9.6316 Cl  0  0  0  0  0  0  0  0  0  0  0  0
    0.6907    9.2442    7.3433 C   0  0  0  0  0  0  0  0  0  0  0  0
   -0.5086    9.6918    7.7342 F   0  0  0  0  0  0  0  0  0  0  0  0
    0.7792    8.5604    6.1407 C   0  0  0  0  0  0  0  0  0  0  0  0
    2.0235    8.0892    5.7567 C   0  0  0  0  0  0  0  0  0  0  0  0
    2.4573    7.3786    4.5564 C   0  0  0  0  0  0  0  0  0  0  0  0
    1.7983    7.3811    3.3539 C   0  0  0  0  0  0  0  0  0  0  0  0
    2.4003    6.9671    2.1474 C   0  0  0  0  0  0  0  0  0  0  0  0
    2.8803    6.6887    1.1423 N   0  0  0  0  0  0  0  0  0  0  0  0
    0.4946    7.8830    3.1729 C   0  0  0  0  0  0  0  0  0  0  0  0
   -0.5731    8.2580    2.9810 N   0  0  0  0  0  0  0  0  0  0  0  0
    4.1936    4.9528    3.3345 C   0  0  0  0  0  0  0  0  0  0  0  0
    2.5786    4.2598    3.4133 S   0  0  0  0  0  0  0  0  0  0  0  0
    3.0055    3.1112    2.2226 C   0  0  0  0  0  0  0  0  0  0  0  0
    2.3603    2.0147    1.5768 C   0  0  0  0  0  0  0  0  0  0  0  0
    3.2949    1.4726    0.6652 C   0  0  0  0  0  0  0  0  0  0  0  0
    4.6001    2.2497    0.6916 C   0  0  0  0  0  0  0  0  0  0  0  0
    4.3132    3.2573    1.7708 C   0  0  0  0  0  0  0  0  0  0  0  0
    4.9974    4.2657    2.4307 C   0  0  0  0  0  0  0  0  0  0  0  0
    4.7694    2.9353   -0.6838 C   0  0  0  0  0  0  0  0  0  0  0  0
    5.8864    3.9673   -0.7575 C   0  0  0  0  0  0  0  0  0  0  0  0
    5.7995    1.3528    1.0337 C   0  0  0  0  0  0  0  0  0  0  0  0
    5.6050    0.5906    2.3396 C   0  0  0  0  0  0  0  0  0  0  0  0
    2.9401    0.4162   -0.1403 C   0  0  0  0  0  0  0  0  0  0  0  0
    1.6553   -0.1034   -0.0003 C   0  0  0  0  0  0  0  0  0  0  0  0
    1.0087   -1.1631   -0.7403 C   0  0  0  0  0  0  0  0  0  0  0  0
   -0.3026   -1.3190   -0.2507 C   0  0  0  0  0  0  0  0  0  0  0  0
   -0.5732   -0.3405    0.8736 C   0  0  0  0  0  0  0  0  0  0  0  0
   -0.8526   -1.1615    2.1511 C   0  0  0  0  0  0  0  0  0  0  0  0
   -1.0749   -0.3596    3.4266 C   0  0  0  0  0  0  0  0  0  0  0  0
   -1.6800    0.6790    0.5300 C   0  0  0  0  0  0  0  0  0  0  0  0
   -3.0869    0.1205    0.3608 C   0  0  0  0  0  0  0  0  0  0  0  0
    0.7423    0.4076    0.9434 C   0  0  0  0  0  0  0  0  0  0  0  0
    1.0789    1.4919    1.7238 C   0  0  0  0  0  0  0  0  0  0  0  0
   -1.1266   -2.2901   -0.7738 C   0  0  0  0  0  0  0  0  0  0  0  0
   -0.6278   -3.0616   -1.8202 C   0  0  0  0  0  0  0  0  0  0  0  0
   -1.2640   -4.0746   -2.5989 C   0  0  0  0  0  0  0  0  0  0  0  0
   -0.3870   -4.5522   -3.5776 C   0  0  0  0  0  0  0  0  0  0  0  0
    0.9519   -3.8638   -3.4709 C   0  0  0  0  0  0  0  0  0  0  0  0
    0.6863   -2.9052   -2.3193 C   0  0  0  0  0  0  0  0  0  0  0  0
    1.5093   -1.9425   -1.7807 C   0  0  0  0  0  0  0  0  0  0  0  0
    2.0035   -4.9379   -3.1193 C   0  0  0  0  0  0  0  0  0  0  0  0
    3.4267   -4.4364   -2.9140 C   0  0  0  0  0  0  0  0  0  0  0  0
    1.2925   -3.0418   -4.7291 C   0  0  0  0  0  0  0  0  0  0  0  0
    1.5120   -3.8565   -5.9968 C   0  0  0  0  0  0  0  0  0  0  0  0
   -0.9581   -5.5463   -4.3392 C   0  0  0  0  0  0  0  0  0  0  0  0
   -2.2869   -5.8194   -3.9718 C   0  0  0  0  0  0  0  0  0  0  0  0
   -2.7997   -4.8165   -2.6224 S   0  0  0  0  0  0  0  0  0  0  0  0
   -3.0539   -6.7730   -4.6476 C   0  0  0  0  0  0  0  0  0  0  0  0
   -4.3522   -7.1843   -4.4583 C   0  0  0  0  0  0  0  0  0  0  0  0
   -5.2582   -6.6990   -3.4112 C   0  0  0  0  0  0  0  0  0  0  0  0
   -5.0289   -5.8550   -2.5666 O   0  0  0  0  0  0  0  0  0  0  0  0
   -6.5165   -7.4538   -3.5883 C   0  0  0  0  0  0  0  0  0  0  0  0
   -7.7006   -7.4067   -2.8762 C   0  0  0  0  0  0  0  0  0  0  0  0
   -7.8482   -6.5782   -1.8373 F   0  0  0  0  0  0  0  0  0  0  0  0
   -8.7610   -8.2293   -3.2367 C   0  0  0  0  0  0  0  0  0  0  0  0
   -8.6210   -9.0923   -4.3091 C   0  0  0  0  0  0  0  0  0  0  0  0
   -7.4406   -9.1568   -5.0402 C   0  0  0  0  0  0  0  0  0  0  0  0
   -6.3870   -8.3343   -4.6783 C   0  0  0  0  0  0  0  0  0  0  0  0
   -5.0457   -8.1775   -5.2476 C   0  0  0  0  0  0  0  0  0  0  0  0
   -4.5747   -8.8543   -6.3442 C   0  0  0  0  0  0  0  0  0  0  0  0
   -3.2974   -8.7039   -6.9233 C   0  0  0  0  0  0  0  0  0  0  0  0
   -2.2845   -8.6445   -7.4631 N   0  0  0  0  0  0  0  0  0  0  0  0
   -5.3156   -9.8100   -7.0706 C   0  0  0  0  0  0  0  0  0  0  0  0
   -5.8527  -10.5973   -7.7110 N   0  0  0  0  0  0  0  0  0  0  0  0
    5.6574    6.0704    4.3864 H   0  0  0  0  0  0  0  0  0  0  0  0
    3.9214    9.1748    8.3777 H   0  0  0  0  0  0  0  0  0  0  0  0
   -0.1127    8.4084    5.5543 H   0  0  0  0  0  0  0  0  0  0  0  0
    6.0247    4.5375    2.2682 H   0  0  0  0  0  0  0  0  0  0  0  0
    3.8255    3.4260   -0.9328 H   0  0  0  0  0  0  0  0  0  0  0  0
    4.9451    2.1544   -1.4267 H   0  0  0  0  0  0  0  0  0  0  0  0
    6.8474    3.5368   -0.4883 H   0  0  0  0  0  0  0  0  0  0  0  0
    5.6757    4.8081   -0.1027 H   0  0  0  0  0  0  0  0  0  0  0  0
    5.9592    4.3449   -1.7747 H   0  0  0  0  0  0  0  0  0  0  0  0
    6.6941    1.9716    1.1119 H   0  0  0  0  0  0  0  0  0  0  0  0
    5.9494    0.6431    0.2178 H   0  0  0  0  0  0  0  0  0  0  0  0
    4.7289   -0.0519    2.2844 H   0  0  0  0  0  0  0  0  0  0  0  0
    5.4729    1.2791    3.1713 H   0  0  0  0  0  0  0  0  0  0  0  0
    6.4746   -0.0294    2.5437 H   0  0  0  0  0  0  0  0  0  0  0  0
    3.6265    0.0025   -0.8634 H   0  0  0  0  0  0  0  0  0  0  0  0
   -1.7279   -1.7853    1.9645 H   0  0  0  0  0  0  0  0  0  0  0  0
   -0.0029   -1.8336    2.3012 H   0  0  0  0  0  0  0  0  0  0  0  0
   -1.3282   -1.0397    4.2372 H   0  0  0  0  0  0  0  0  0  0  0  0
   -1.8917    0.3480    3.3143 H   0  0  0  0  0  0  0  0  0  0  0  0
   -0.1757    0.1794    3.7116 H   0  0  0  0  0  0  0  0  0  0  0  0
   -1.3862    1.1811   -0.3959 H   0  0  0  0  0  0  0  0  0  0  0  0
   -1.6928    1.4356    1.3160 H   0  0  0  0  0  0  0  0  0  0  0  0
   -3.7826    0.9455    0.2228 H   0  0  0  0  0  0  0  0  0  0  0  0
   -3.1536   -0.5200   -0.5136 H   0  0  0  0  0  0  0  0  0  0  0  0
   -3.4018   -0.4407    1.2362 H   0  0  0  0  0  0  0  0  0  0  0  0
    0.3898    1.9468    2.4178 H   0  0  0  0  0  0  0  0  0  0  0  0
   -2.1260   -2.4680   -0.4107 H   0  0  0  0  0  0  0  0  0  0  0  0
    2.5088   -1.7743   -2.1495 H   0  0  0  0  0  0  0  0  0  0  0  0
    1.9970   -5.6833   -3.9163 H   0  0  0  0  0  0  0  0  0  0  0  0
    1.6707   -5.4367   -2.2051 H   0  0  0  0  0  0  0  0  0  0  0  0
    3.7893   -3.9001   -3.7867 H   0  0  0  0  0  0  0  0  0  0  0  0
    4.0845   -5.2862   -2.7441 H   0  0  0  0  0  0  0  0  0  0  0  0
    3.4893   -3.7865   -2.0459 H   0  0  0  0  0  0  0  0  0  0  0  0
    2.1852   -2.4500   -4.5214 H   0  0  0  0  0  0  0  0  0  0  0  0
    0.4705   -2.3404   -4.8955 H   0  0  0  0  0  0  0  0  0  0  0  0
    1.7545   -3.1864   -6.8188 H   0  0  0  0  0  0  0  0  0  0  0  0
    0.6147   -4.4059   -6.2661 H   0  0  0  0  0  0  0  0  0  0  0  0
    2.3328   -4.5588   -5.8814 H   0  0  0  0  0  0  0  0  0  0  0  0
   -0.4794   -6.0875   -5.1360 H   0  0  0  0  0  0  0  0  0  0  0  0
   -2.5117   -7.2532   -5.4534 H   0  0  0  0  0  0  0  0  0  0  0  0
   -9.6789   -8.1817   -2.6725 H   0  0  0  0  0  0  0  0  0  0  0  0
   -9.4465   -9.7301   -4.5849 H   0  0  0  0  0  0  0  0  0  0  0  0
   -7.3636   -9.8401   -5.8691 H   0  0  0  0  0  0  0  0  0  0  0  0
  1  2  2  0  0  0  0
  2  3  1  0  0  0  0
  3  4  2  0  0  0  0
  3  5  1  0  0  0  0
  5  6  2  0  0  0  0
  6  7  1  0  0  0  0
  7  8  1  0  0  0  0
  7  9  2  0  0  0  0
  9 10  1  0  0  0  0
  9 11  1  0  0  0  0
 11 12  2  0  0  0  0
 12 13  1  0  0  0  0
 13 14  2  0  0  0  0
 14 15  1  0  0  0  0
 15 16  3  0  0  0  0
 14 17  1  0  0  0  0
 17 18  3  0  0  0  0
  1 19  1  0  0  0  0
 19 20  1  0  0  0  0
 20 21  1  0  0  0  0
 21 22  1  0  0  0  0
 22 23  2  0  0  0  0
 23 24  1  0  0  0  0
 24 25  1  0  0  0  0
 25 26  1  0  0  0  0
 24 27  1  0  0  0  0
 27 28  1  0  0  0  0
 24 29  1  0  0  0  0
 29 30  1  0  0  0  0
 23 31  1  0  0  0  0
 31 32  2  0  0  0  0
 32 33  1  0  0  0  0
 33 34  2  0  0  0  0
 34 35  1  0  0  0  0
 35 36  1  0  0  0  0
 36 37  1  0  0  0  0
 35 38  1  0  0  0  0
 38 39  1  0  0  0  0
 35 40  1  0  0  0  0
 40 41  2  0  0  0  0
 34 42  1  0  0  0  0
 42 43  2  0  0  0  0
 43 44  1  0  0  0  0
 44 45  2  0  0  0  0
 45 46  1  0  0  0  0
 46 47  1  0  0  0  0
 47 48  2  0  0  0  0
 46 49  1  0  0  0  0
 49 50  1  0  0  0  0
 46 51  1  0  0  0  0
 51 52  1  0  0  0  0
 45 53  1  0  0  0  0
 53 54  2  0  0  0  0
 54 55  1  0  0  0  0
 54 56  1  0  0  0  0
 56 57  2  0  0  0  0
 57 58  1  0  0  0  0
 58 59  2  0  0  0  0
 58 60  1  0  0  0  0
 60 61  2  0  0  0  0
 61 62  1  0  0  0  0
 61 63  1  0  0  0  0
 63 64  2  0  0  0  0
 64 65  1  0  0  0  0
 65 66  2  0  0  0  0
 66 67  1  0  0  0  0
 67 68  2  0  0  0  0
 68 69  1  0  0  0  0
 69 70  3  0  0  0  0
 68 71  1  0  0  0  0
 71 72  3  0  0  0  0
 13  2  1  0  0  0  0
 26 19  2  0  0  0  0
 40 32  1  0  0  0  0
 47 43  1  0  0  0  0
 67 57  1  0  0  0  0
 12  5  1  0  0  0  0
 25 21  2  0  0  0  0
 48 33  1  0  0  0  0
 66 60  1  0  0  0  0
 41 22  1  0  0  0  0
 55 44  1  0  0  0  0
  1 73  1  0  0  0  0
  6 74  1  0  0  0  0
 11 75  1  0  0  0  0
 26 76  1  0  0  0  0
 27 77  1  0  0  0  0
 27 78  1  0  0  0  0
 28 79  1  0  0  0  0
 28 80  1  0  0  0  0
 28 81  1  0  0  0  0
 29 82  1  0  0  0  0
 29 83  1  0  0  0  0
 30 84  1  0  0  0  0
 30 85  1  0  0  0  0
 30 86  1  0  0  0  0
 31 87  1  0  0  0  0
 36 88  1  0  0  0  0
 36 89  1  0  0  0  0
 37 90  1  0  0  0  0
 37 91  1  0  0  0  0
 37 92  1  0  0  0  0
 38 93  1  0  0  0  0
 38 94  1  0  0  0  0
 39 95  1  0  0  0  0
 39 96  1  0  0  0  0
 39 97  1  0  0  0  0
 41 98  1  0  0  0  0
 42 99  1  0  0  0  0
 48100  1  0  0  0  0
 49101  1  0  0  0  0
 49102  1  0  0  0  0
 50103  1  0  0  0  0
 50104  1  0  0  0  0
 50105  1  0  0  0  0
 51106  1  0  0  0  0
 51107  1  0  0  0  0
 52108  1  0  0  0  0
 52109  1  0  0  0  0
 52110  1  0  0  0  0
 53111  1  0  0  0  0
 56112  1  0  0  0  0
 63113  1  0  0  0  0
 64114  1  0  0  0  0
 65115  1  0  0  0  0
M  END
