92

C          5.46040        2.55030       -4.19530
C          6.52650        2.95410       -3.41570
C          6.61980        2.82890       -1.97230
O          5.79500        2.33920       -1.20980
C          7.92210        3.40450       -1.58510
C          8.47260        3.52490       -0.32600
C          9.72860        4.10990       -0.21080
Cl        10.47300        4.29310        1.32900
C         10.38570        4.55070       -1.36070
F         11.59480        5.11280       -1.24330
C          9.83720        4.43130       -2.62950
C          8.58560        3.84930       -2.74250
C          7.73810        3.57690       -3.90500
C          8.06770        3.87180       -5.20400
C          7.26880        3.61390       -6.33700
N          6.68180        3.43900       -7.30950
C          9.27780        4.48540       -5.59120
N         10.23870        4.98290       -5.97420
C          4.24210        1.96310       -3.86030
C          3.27200        1.64920       -4.83680
C          3.40200        1.92810       -6.30040
C          3.00010        3.37220       -6.61420
C          2.11470        1.09670       -4.31050
S          0.65270        0.56360       -5.12900
C         -0.01160        0.11960       -3.59860
C         -1.18340       -0.44110       -3.06760
C         -2.32780       -1.02780       -3.65640
C         -3.30660       -1.65980       -2.81060
N         -4.27710       -2.23040       -3.50570
S         -3.99610       -1.99020       -5.08110
N         -2.62050       -1.14910       -4.94080
C         -3.18350       -1.54250       -1.40640
C         -4.02830       -1.88920       -0.33790
S         -5.52000       -2.71350       -0.05760
C         -5.39670       -2.32040        1.64580
C         -6.26110       -2.62350        2.70280
C         -7.54510       -3.36010        2.49020
C         -8.70670       -2.37940        2.31060
C         -5.83100       -2.11760        3.92660
Se        -4.18160       -1.17860        3.78400
C         -4.24680       -1.58100        1.96370
C         -3.46610       -1.34980        0.82560
N         -2.28840       -0.71050        0.52910
C         -2.08740       -0.84430       -0.83270
C         -1.01080       -0.45220       -1.65540
N          0.24970        0.01250       -1.34190
C          0.85250        0.37340       -2.52280
C          2.07350        0.92310       -2.91250
Se         3.64650        1.50320       -2.10260
C          1.06020       -0.35770       -0.19990
C          1.99710       -1.51680       -0.53780
C         -1.83200        0.36910        1.38050
C         -2.85610        1.50250        1.43050
C         -6.50430       -2.26310        5.15430
C         -6.14450       -1.77010        6.36640
S         -4.73440       -0.80460        6.73350
C         -5.18270       -0.72320        8.47520
O         -4.53350       -0.14940        9.29860
N         -6.33900       -1.41360        8.66640
C         -6.94450       -1.48990        9.98640
C         -7.73880       -0.23010       10.30340
C         -6.93820       -2.01160        7.56620
O         -7.96730       -2.64530        7.62840
H          5.57800        2.72310       -5.25680
H          7.94070        3.17440        0.54380
H         10.40010        4.79290       -3.47430
H          2.73460        1.25080       -6.83770
H          4.41930        1.75020       -6.65130
H          3.64300        4.07520       -6.08960
H          3.09030        3.55440       -7.68110
H          1.97030        3.55180       -6.31380
H         -7.74990       -4.02190        3.33290
H         -7.44900       -3.97000        1.58960
H         -9.63100       -2.92420        2.13870
H         -8.82640       -1.76050        3.19690
H         -8.52290       -1.73060        1.45740
H          0.41240       -0.66950        0.61710
H          1.65020        0.51580        0.10450
H          2.54070       -1.81340        0.35460
H          1.42670       -2.36900       -0.90140
H          2.71950       -1.22720       -1.29810
H         -1.67740       -0.03510        2.38900
H         -0.89460        0.76830        0.99880
H         -2.47200        2.31170        2.04460
H         -3.04740        1.88130        0.42820
H         -3.79540        1.15940        1.86050
H         -7.42480       -2.83490        5.15170
H         -6.14320       -1.62980       10.71570
H         -7.59820       -2.36510        9.97320
H         -7.08400        0.63820       10.30120
H         -8.19180       -0.32340       11.28620
H         -8.52640       -0.08500        9.56750
