97

C         -6.46890       -1.79880       -5.04800
C         -7.64980       -2.48050       -4.91010
C         -8.21210       -2.91500       -3.61200
O         -7.84460       -2.61540       -2.49690
C         -9.26570       -3.89810       -3.95740
C        -10.06610       -4.62390       -3.09950
C        -10.99150       -5.50450       -3.64770
Cl       -12.02470       -6.43460       -2.63560
C        -11.07740       -5.63140       -5.03630
F        -11.96480       -6.48740       -5.55620
C        -10.27570       -4.90630       -5.90430
C         -9.35760       -4.02600       -5.35400
C         -8.38640       -3.12930       -5.97310
C         -8.26020       -2.87910       -7.31480
C         -7.38120       -1.92150       -7.86360
N         -6.70670       -1.14030       -8.36650
C         -9.02120       -3.52260       -8.31250
N         -9.60710       -4.01860       -9.16550
C         -5.80920       -1.06550       -4.04180
C         -6.32040       -0.27270       -3.02310
C         -7.74450        0.16580       -2.93150
C         -7.87210        1.68330       -3.07960
C         -5.32660        0.21330       -2.15990
S         -5.46980        1.17430       -0.70310
C         -3.76020        1.08620       -0.49520
C         -2.76730        1.56070        0.37380
C         -2.84560        2.44530        1.47220
C         -1.63430        2.85020        2.12200
N         -1.84870        3.72260        3.09380
S         -3.43950        4.00660        3.18650
N         -3.91590        3.02790        1.98930
C         -0.41700        2.25310        1.72470
C          0.86240        2.32190        2.28630
S          1.68370        3.12930        3.57120
C          3.11810        2.17940        3.20900
C          4.35010        2.17330        3.84200
C          4.65010        3.11390        4.96470
C          5.34770        4.37340        4.44190
C          5.26660        1.25240        3.28580
Se         4.50170        0.30450        1.81490
C          2.95210        1.29050        2.12520
C          1.66140        1.39380        1.60450
N          0.92290        0.77630        0.62920
C         -0.35380        1.29820        0.66370
C         -1.52350        1.05080       -0.10030
N         -1.76150        0.32160       -1.25610
C         -3.11250        0.35020       -1.49240
C         -3.99980       -0.14020       -2.45600
Se        -3.90220       -1.14330       -4.01980
C         -0.89300        0.04500       -2.37870
C         -0.83090        1.23920       -3.32970
C          1.45220       -0.40250       -0.01600
C          2.42970       -0.05210       -1.13810
C          6.55030        1.09280        3.79760
C          7.59290        0.26560        3.42030
C          7.56520       -0.67330        2.31450
O          6.63920       -0.88950        1.54530
C          8.88950       -1.33050        2.29760
C          9.67390       -0.81250        3.34480
C         10.96240       -1.27290        3.54920
C         11.45050       -2.25200        2.69370
F         12.69100       -2.71030        2.87460
C         10.68710       -2.77250        1.65180
F         11.19340       -3.71310        0.84990
C          9.38630       -2.30460        1.45100
F          8.65780       -2.80310        0.45620
C          8.88400        0.19330        4.06320
C          9.32800        0.91010        5.14630
C         10.61450        0.78070        5.71100
N         11.64240        0.72610        6.21860
C          8.58270        1.87560        5.85500
N          8.04440        2.67160        6.48520
H         -5.93410       -1.89170       -5.98830
H         -9.97480       -4.50720       -2.03140
H        -10.38700       -5.05400       -6.96620
H         -8.14450       -0.14930       -1.96500
H         -8.33080       -0.31510       -3.71390
H         -8.92160        1.96400       -3.05210
H         -7.45390        2.00490       -4.03130
H         -7.35700        2.20440       -2.27790
H          5.27470        2.64280        5.72490
H          3.70570        3.40080        5.43200
H          6.29040        4.12200        3.96130
H          5.55180        5.04880        5.26750
H          4.71450        4.88390        3.71990
H          0.10620       -0.20400       -2.04450
H         -1.31070       -0.82370       -2.90350
H         -1.81910        1.46550       -3.72480
H         -0.45560        2.11840       -2.80970
H         -0.17010        1.01330       -4.16170
H          0.62440       -1.02450       -0.36010
H          1.99790       -0.97530        0.74620
H          3.34140        0.37040       -0.71620
H          2.69770       -0.94940       -1.68870
H          2.00920        0.67800       -1.82610
H          6.75990        1.73310        4.64400
H         11.60090       -0.90970        4.33720
