100

C         -6.81930        1.09260       -3.72390
C         -6.99430        0.04060       -4.60150
C         -5.96760       -0.89680       -5.01930
O         -4.77860       -0.88430       -4.72240
C         -6.63120       -1.88550       -5.88990
C         -6.08660       -2.98840       -6.51440
C         -6.92370       -3.78740       -7.28500
Cl        -6.31210       -5.18040       -8.08740
C         -8.27330       -3.45020       -7.40210
F         -9.07440       -4.22490       -8.14330
C         -8.82550       -2.34070       -6.77840
C         -7.99070       -1.54650       -6.00990
C         -8.24470       -0.33540       -5.22710
C         -9.45710        0.29950       -5.13200
C         -9.71810        1.47010       -4.39020
N        -10.01270        2.41910       -3.81280
C        -10.63010       -0.13920       -5.78190
N        -11.61850       -0.44190       -6.28070
C         -5.69930        1.52430       -3.01620
C         -5.76480        2.58180       -2.08430
C         -7.00280        3.34600       -1.73800
C         -7.82620        2.59830       -0.68520
C         -4.56710        2.81810       -1.42620
S         -4.21100        3.95160       -0.12990
C         -2.60140        3.33000       -0.06950
C         -1.44410        3.45430        0.70840
C         -1.20470        4.17280        1.90150
C          0.00260        3.91670        2.63110
N          0.06000        4.59390        3.76690
S         -1.28490        5.48410        3.90270
N         -1.99630        5.03430        2.51970
C          0.96750        3.04930        2.07240
C          2.22730        2.64510        2.53840
S          3.20760        2.77920        3.95200
C          4.40840        1.75550        3.19680
C          5.58240        1.19680        3.73040
C          6.12400        1.59420        5.06350
C          6.47500        3.08260        5.09620
C          6.22610        0.34830        2.84800
Se         5.37850        0.28800        1.13970
C          4.06590        1.37660        1.89090
C          2.80690        1.86970        1.52910
N          1.94530        1.75520        0.47060
C          0.78610        2.44420        0.79570
C         -0.48220        2.54850        0.16840
N         -1.06220        1.88500       -0.89590
C         -2.34960        2.33490       -1.02280
C         -3.46790        2.01780       -1.79710
Se        -3.94310        0.78070       -3.10830
C         -0.65390        0.68310       -1.58430
C         -0.54730       -0.50390       -0.63120
C          2.45420        1.36210       -0.82490
C          2.40750        2.51630       -1.82180
C          7.33860       -0.50220        3.04880
C          7.53590       -1.28090        4.15370
C          6.45680       -1.64770        5.10370
O          5.35900       -1.14710        5.22030
C          6.96260       -2.84010        5.81460
C          6.30290       -3.62680        6.73830
C          6.94840       -4.73350        7.27840
C          6.29380       -5.63290        8.27470
C          8.25290       -4.99230        6.85150
F          8.88180       -6.06580        7.36450
C          8.93770       -4.21970        5.92740
C          8.27430       -3.12430        5.39840
C          8.67810       -2.13460        4.40650
C          9.92820       -1.98230        3.86900
C         10.27910       -0.93780        2.98770
N         10.62300       -0.09520        2.28780
C         11.02080       -2.82280        4.16550
N         11.93780       -3.48190        4.36960
H         -7.70860        1.67430       -3.52100
H         -5.04020       -3.22340       -6.40440
H         -9.87590       -2.13990       -6.91140
H         -6.70380        4.31380       -1.32990
H         -7.61820        3.52570       -2.62060
H         -8.13330        1.62270       -1.05530
H         -8.71710        3.17010       -0.44220
H         -7.24220        2.45790        0.22150
H          7.01610        1.01040        5.29000
H          5.36970        1.37410        5.82230
H          7.21840        3.31160        4.33540
H          6.88610        3.34030        6.06870
H          5.59560        3.69620        4.92100
H         -1.42710        0.47260       -2.33300
H          0.27630        0.85150       -2.12710
H         -0.22810       -1.38790       -1.17610
H         -1.51780       -0.70670       -0.18430
H          0.16190       -0.30610        0.16930
H          1.92850        0.48300       -1.20050
H          3.49840        1.06560       -0.67050
H          3.01500        3.34350       -1.46180
H          2.79950        2.19160       -2.78170
H          1.39160        2.87830       -1.96120
H          8.01350       -0.61580        2.20590
H          5.29370       -3.37910        7.03060
H          5.27990       -5.30490        8.48410
H          6.86430       -5.64550        9.20270
H          6.26840       -6.65470        7.89740
H          9.94070       -4.49400        5.64430
