
  xtb     02012216563D
 energy: -290.928159642623 gnorm: 0.000308345094 xtb: 6.4.1 (unknown)
170188  0     0  0            999 V2000
   -2.9956    2.1357   -8.8967 C   0  0  0  0  0  0  0  0  0  0  0  0
   -4.0254    1.4909   -9.5460 C   0  0  0  0  0  0  0  0  0  0  0  0
   -4.5117    0.1447   -9.2461 C   0  0  0  0  0  0  0  0  0  0  0  0
   -4.0826   -0.6410   -8.4201 O   0  0  0  0  0  0  0  0  0  0  0  0
   -5.6519   -0.0894  -10.1584 C   0  0  0  0  0  0  0  0  0  0  0  0
   -6.4577   -1.2047  -10.2543 C   0  0  0  0  0  0  0  0  0  0  0  0
   -7.4845   -1.1954  -11.1912 C   0  0  0  0  0  0  0  0  0  0  0  0
   -8.5292   -2.5514  -11.3622 Cl  0  0  0  0  0  0  0  0  0  0  0  0
   -7.6643   -0.0698  -11.9969 C   0  0  0  0  0  0  0  0  0  0  0  0
   -8.6560   -0.0661  -12.8966 F   0  0  0  0  0  0  0  0  0  0  0  0
   -6.8562    1.0536  -11.9054 C   0  0  0  0  0  0  0  0  0  0  0  0
   -5.8337    1.0429  -10.9704 C   0  0  0  0  0  0  0  0  0  0  0  0
   -4.8261    2.0439  -10.6171 C   0  0  0  0  0  0  0  0  0  0  0  0
   -4.6979    3.2729  -11.2140 C   0  0  0  0  0  0  0  0  0  0  0  0
   -3.7358    4.2524  -10.8926 C   0  0  0  0  0  0  0  0  0  0  0  0
   -2.9904    5.1048  -10.6968 N   0  0  0  0  0  0  0  0  0  0  0  0
   -5.5292    3.7342  -12.2561 C   0  0  0  0  0  0  0  0  0  0  0  0
   -6.1698    4.1711  -13.1026 N   0  0  0  0  0  0  0  0  0  0  0  0
   -2.1934    1.7257   -7.8312 C   0  0  0  0  0  0  0  0  0  0  0  0
   -1.2305    2.5787   -7.2604 C   0  0  0  0  0  0  0  0  0  0  0  0
   -0.5945    2.0174   -6.1826 C   0  0  0  0  0  0  0  0  0  0  0  0
    0.4694    2.4320   -5.1903 C   0  0  0  0  0  0  0  0  0  0  0  0
    1.7529    2.6974   -5.9534 C   0  0  0  0  0  0  0  0  0  0  0  0
    2.7582    1.7479   -6.0493 C   0  0  0  0  0  0  0  0  0  0  0  0
    3.8988    2.0117   -6.7867 C   0  0  0  0  0  0  0  0  0  0  0  0
    4.0592    3.2221   -7.4464 C   0  0  0  0  0  0  0  0  0  0  0  0
    5.2751    3.4876   -8.2858 C   0  0  0  0  0  0  0  0  0  0  0  0
    5.0258    3.0613   -9.7340 C   0  0  0  0  0  0  0  0  0  0  0  0
    3.0434    4.1659   -7.3524 C   0  0  0  0  0  0  0  0  0  0  0  0
    1.9036    3.9089   -6.6167 C   0  0  0  0  0  0  0  0  0  0  0  0
    0.1003    3.5961   -4.2888 C   0  0  0  0  0  0  0  0  0  0  0  0
   -1.2189    3.9704   -4.0833 C   0  0  0  0  0  0  0  0  0  0  0  0
   -1.5271    4.9649   -3.1721 C   0  0  0  0  0  0  0  0  0  0  0  0
   -0.5327    5.5922   -2.4343 C   0  0  0  0  0  0  0  0  0  0  0  0
   -0.8649    6.6841   -1.4591 C   0  0  0  0  0  0  0  0  0  0  0  0
   -0.7748    8.0532   -2.1358 C   0  0  0  0  0  0  0  0  0  0  0  0
    0.7866    5.2134   -2.6474 C   0  0  0  0  0  0  0  0  0  0  0  0
    1.1021    4.2284   -3.5621 C   0  0  0  0  0  0  0  0  0  0  0  0
    0.5035    1.2041   -4.3148 C   0  0  0  0  0  0  0  0  0  0  0  0
   -0.3727    0.2237   -4.7783 C   0  0  0  0  0  0  0  0  0  0  0  0
   -1.0399    0.7052   -5.9251 C   0  0  0  0  0  0  0  0  0  0  0  0
   -2.2570    0.1735   -6.9985 S   0  0  0  0  0  0  0  0  0  0  0  0
   -0.4640   -1.1687   -3.7515 S   0  0  0  0  0  0  0  0  0  0  0  0
    0.6326   -0.4040   -2.6423 C   0  0  0  0  0  0  0  0  0  0  0  0
    1.0574    0.8503   -3.0893 C   0  0  0  0  0  0  0  0  0  0  0  0
    2.0326    1.6814   -1.9223 S   0  0  0  0  0  0  0  0  0  0  0  0
    1.7588    0.3894   -0.7675 C   0  0  0  0  0  0  0  0  0  0  0  0
    2.1242    0.4531    0.5706 C   0  0  0  0  0  0  0  0  0  0  0  0
    2.8565    1.5750    1.1232 C   0  0  0  0  0  0  0  0  0  0  0  0
    3.9342    1.5354    1.9622 C   0  0  0  0  0  0  0  0  0  0  0  0
    4.4238    2.8128    2.2974 C   0  0  0  0  0  0  0  0  0  0  0  0
    3.7176    3.8278    1.7290 C   0  0  0  0  0  0  0  0  0  0  0  0
    3.9566    5.2950    1.8204 C   0  0  0  0  0  0  0  0  0  0  0  0
    4.5395    5.8384    0.5140 C   0  0  0  0  0  0  0  0  0  0  0  0
    2.4294    3.2182    0.7437 S   0  0  0  0  0  0  0  0  0  0  0  0
    1.7194   -0.6207    1.3846 C   0  0  0  0  0  0  0  0  0  0  0  0
    1.0916   -1.7558    0.8110 C   0  0  0  0  0  0  0  0  0  0  0  0
    0.7552   -1.8330   -0.5334 C   0  0  0  0  0  0  0  0  0  0  0  0
    0.0894   -2.9900   -1.0996 C   0  0  0  0  0  0  0  0  0  0  0  0
    0.3992   -3.6623   -2.2469 C   0  0  0  0  0  0  0  0  0  0  0  0
   -0.4597   -4.7499   -2.5016 C   0  0  0  0  0  0  0  0  0  0  0  0
   -1.4323   -4.9025   -1.5623 C   0  0  0  0  0  0  0  0  0  0  0  0
   -2.5022   -5.9362   -1.4864 C   0  0  0  0  0  0  0  0  0  0  0  0
   -2.2898   -6.8702   -0.2940 C   0  0  0  0  0  0  0  0  0  0  0  0
   -1.2919   -3.7031   -0.3192 S   0  0  0  0  0  0  0  0  0  0  0  0
    1.0451   -0.7042   -1.3209 C   0  0  0  0  0  0  0  0  0  0  0  0
    0.6960   -2.9904    1.9937 S   0  0  0  0  0  0  0  0  0  0  0  0
    1.1947   -1.9295    3.2704 C   0  0  0  0  0  0  0  0  0  0  0  0
    1.0407   -1.9447    4.6526 C   0  0  0  0  0  0  0  0  0  0  0  0
    1.4241   -0.7311    5.2200 C   0  0  0  0  0  0  0  0  0  0  0  0
    2.0642    0.4000    4.0748 S   0  0  0  0  0  0  0  0  0  0  0  0
    1.7359   -0.7313    2.7967 C   0  0  0  0  0  0  0  0  0  0  0  0
    1.0422   -0.7168    6.5797 C   0  0  0  0  0  0  0  0  0  0  0  0
    1.0731    0.3779    7.8906 S   0  0  0  0  0  0  0  0  0  0  0  0
    0.1905   -0.7857    8.8750 C   0  0  0  0  0  0  0  0  0  0  0  0
   -0.0716   -1.9710    8.1647 C   0  0  0  0  0  0  0  0  0  0  0  0
    0.3910   -1.9311    6.8732 C   0  0  0  0  0  0  0  0  0  0  0  0
    0.4038   -2.8539    5.6738 C   0  0  0  0  0  0  0  0  0  0  0  0
    1.2387   -4.0682    6.0367 C   0  0  0  0  0  0  0  0  0  0  0  0
    2.5541   -4.2090    5.6234 C   0  0  0  0  0  0  0  0  0  0  0  0
    3.2906   -5.3166    6.0052 C   0  0  0  0  0  0  0  0  0  0  0  0
    2.7369   -6.2991    6.8135 C   0  0  0  0  0  0  0  0  0  0  0  0
    3.5218   -7.5224    7.1896 C   0  0  0  0  0  0  0  0  0  0  0  0
    3.2833   -8.6418    6.1740 C   0  0  0  0  0  0  0  0  0  0  0  0
    1.4188   -6.1488    7.2281 C   0  0  0  0  0  0  0  0  0  0  0  0
    0.6782   -5.0477    6.8476 C   0  0  0  0  0  0  0  0  0  0  0  0
   -0.9504   -3.2533    5.1205 C   0  0  0  0  0  0  0  0  0  0  0  0
   -1.0338   -4.3514    4.2728 C   0  0  0  0  0  0  0  0  0  0  0  0
   -2.2292   -4.6731    3.6621 C   0  0  0  0  0  0  0  0  0  0  0  0
   -3.3677   -3.9061    3.8732 C   0  0  0  0  0  0  0  0  0  0  0  0
   -4.6420   -4.2262    3.1471 C   0  0  0  0  0  0  0  0  0  0  0  0
   -4.6288   -3.5976    1.7522 C   0  0  0  0  0  0  0  0  0  0  0  0
   -3.2779   -2.8121    4.7231 C   0  0  0  0  0  0  0  0  0  0  0  0
   -2.0830   -2.4840    5.3391 C   0  0  0  0  0  0  0  0  0  0  0  0
   -0.2645   -0.6006   10.1829 C   0  0  0  0  0  0  0  0  0  0  0  0
   -0.1653    0.4845   11.0229 C   0  0  0  0  0  0  0  0  0  0  0  0
    0.5188    1.7418   10.7098 C   0  0  0  0  0  0  0  0  0  0  0  0
    1.1150    2.0219    9.6852 O   0  0  0  0  0  0  0  0  0  0  0  0
    0.3442    2.6067   11.8922 C   0  0  0  0  0  0  0  0  0  0  0  0
    0.7851    3.8995   12.1192 C   0  0  0  0  0  0  0  0  0  0  0  0
    1.6891    4.7474   10.9318 Cl  0  0  0  0  0  0  0  0  0  0  0  0
    0.4803    4.5083   13.3352 C   0  0  0  0  0  0  0  0  0  0  0  0
   -0.2490    3.8235   14.2900 C   0  0  0  0  0  0  0  0  0  0  0  0
   -0.6968    2.5246   14.0742 C   0  0  0  0  0  0  0  0  0  0  0  0
   -0.3979    1.9149   12.8685 C   0  0  0  0  0  0  0  0  0  0  0  0
   -0.7269    0.5840   12.3507 C   0  0  0  0  0  0  0  0  0  0  0  0
   -1.4503   -0.3653   13.0279 C   0  0  0  0  0  0  0  0  0  0  0  0
   -1.9746   -0.1920   14.3258 C   0  0  0  0  0  0  0  0  0  0  0  0
   -2.4330   -0.1253   15.3766 N   0  0  0  0  0  0  0  0  0  0  0  0
   -1.7868   -1.6471   12.5456 C   0  0  0  0  0  0  0  0  0  0  0  0
   -2.1071   -2.7062   12.2349 N   0  0  0  0  0  0  0  0  0  0  0  0
   -2.7648    3.1380   -9.2366 H   0  0  0  0  0  0  0  0  0  0  0  0
   -6.2935   -2.0585   -9.6166 H   0  0  0  0  0  0  0  0  0  0  0  0
   -7.0521    1.8883  -12.5583 H   0  0  0  0  0  0  0  0  0  0  0  0
   -1.0555    3.5690   -7.6415 H   0  0  0  0  0  0  0  0  0  0  0  0
    2.6553    0.7981   -5.5450 H   0  0  0  0  0  0  0  0  0  0  0  0
    4.6765    1.2638   -6.8478 H   0  0  0  0  0  0  0  0  0  0  0  0
    5.5163    4.5522   -8.2613 H   0  0  0  0  0  0  0  0  0  0  0  0
    6.1284    2.9341   -7.8890 H   0  0  0  0  0  0  0  0  0  0  0  0
    5.9050    3.2541  -10.3442 H   0  0  0  0  0  0  0  0  0  0  0  0
    4.1855    3.6117  -10.1511 H   0  0  0  0  0  0  0  0  0  0  0  0
    4.7955    1.9993   -9.7814 H   0  0  0  0  0  0  0  0  0  0  0  0
    3.1481    5.1141   -7.8598 H   0  0  0  0  0  0  0  0  0  0  0  0
    1.1271    4.6564   -6.5443 H   0  0  0  0  0  0  0  0  0  0  0  0
   -2.0111    3.4827   -4.6327 H   0  0  0  0  0  0  0  0  0  0  0  0
   -2.5598    5.2470   -3.0242 H   0  0  0  0  0  0  0  0  0  0  0  0
   -1.8750    6.5399   -1.0709 H   0  0  0  0  0  0  0  0  0  0  0  0
   -0.1677    6.6504   -0.6194 H   0  0  0  0  0  0  0  0  0  0  0  0
   -1.4726    8.1103   -2.9681 H   0  0  0  0  0  0  0  0  0  0  0  0
   -1.0129    8.8439   -1.4282 H   0  0  0  0  0  0  0  0  0  0  0  0
    0.2292    8.2205   -2.5196 H   0  0  0  0  0  0  0  0  0  0  0  0
    1.5759    5.6871   -2.0820 H   0  0  0  0  0  0  0  0  0  0  0  0
    2.1335    3.9448   -3.7138 H   0  0  0  0  0  0  0  0  0  0  0  0
    4.3841    0.6177    2.2969 H   0  0  0  0  0  0  0  0  0  0  0  0
    5.2697    2.9712    2.9420 H   0  0  0  0  0  0  0  0  0  0  0  0
    4.6476    5.4900    2.6428 H   0  0  0  0  0  0  0  0  0  0  0  0
    3.0158    5.8080    2.0341 H   0  0  0  0  0  0  0  0  0  0  0  0
    3.8584    5.6421   -0.3112 H   0  0  0  0  0  0  0  0  0  0  0  0
    5.4906    5.3582    0.2955 H   0  0  0  0  0  0  0  0  0  0  0  0
    4.6997    6.9109    0.5884 H   0  0  0  0  0  0  0  0  0  0  0  0
    1.2386   -3.4065   -2.8687 H   0  0  0  0  0  0  0  0  0  0  0  0
   -0.3596   -5.3936   -3.3572 H   0  0  0  0  0  0  0  0  0  0  0  0
   -2.4999   -6.5120   -2.4140 H   0  0  0  0  0  0  0  0  0  0  0  0
   -3.4761   -5.4488   -1.3897 H   0  0  0  0  0  0  0  0  0  0  0  0
   -1.3347   -7.3834   -0.3795 H   0  0  0  0  0  0  0  0  0  0  0  0
   -3.0822   -7.6130   -0.2495 H   0  0  0  0  0  0  0  0  0  0  0  0
   -2.2919   -6.3001    0.6324 H   0  0  0  0  0  0  0  0  0  0  0  0
   -0.6043   -2.7911    8.6120 H   0  0  0  0  0  0  0  0  0  0  0  0
    3.0089   -3.4546    4.9979 H   0  0  0  0  0  0  0  0  0  0  0  0
    4.3138   -5.4146    5.6712 H   0  0  0  0  0  0  0  0  0  0  0  0
    4.5870   -7.2851    7.2209 H   0  0  0  0  0  0  0  0  0  0  0  0
    3.2184   -7.8658    8.1806 H   0  0  0  0  0  0  0  0  0  0  0  0
    2.2274   -8.9003    6.1372 H   0  0  0  0  0  0  0  0  0  0  0  0
    3.5919   -8.3234    5.1807 H   0  0  0  0  0  0  0  0  0  0  0  0
    3.8493   -9.5295    6.4462 H   0  0  0  0  0  0  0  0  0  0  0  0
    0.9692   -6.9020    7.8591 H   0  0  0  0  0  0  0  0  0  0  0  0
   -0.3477   -4.9487    7.1707 H   0  0  0  0  0  0  0  0  0  0  0  0
   -0.1573   -4.9559    4.0908 H   0  0  0  0  0  0  0  0  0  0  0  0
   -2.2765   -5.5314    3.0077 H   0  0  0  0  0  0  0  0  0  0  0  0
   -5.4976   -3.8455    3.7078 H   0  0  0  0  0  0  0  0  0  0  0  0
   -4.7498   -5.3088    3.0518 H   0  0  0  0  0  0  0  0  0  0  0  0
   -5.5403   -3.8467    1.2136 H   0  0  0  0  0  0  0  0  0  0  0  0
   -4.5533   -2.5151    1.8258 H   0  0  0  0  0  0  0  0  0  0  0  0
   -3.7748   -3.9568    1.1822 H   0  0  0  0  0  0  0  0  0  0  0  0
   -4.1521   -2.2026    4.9024 H   0  0  0  0  0  0  0  0  0  0  0  0
   -2.0320   -1.6221    5.9890 H   0  0  0  0  0  0  0  0  0  0  0  0
   -0.7958   -1.4622   10.5689 H   0  0  0  0  0  0  0  0  0  0  0  0
    0.8181    5.5153   13.5212 H   0  0  0  0  0  0  0  0  0  0  0  0
   -0.4775    4.3086   15.2266 H   0  0  0  0  0  0  0  0  0  0  0  0
   -1.2629    2.0197   14.8387 H   0  0  0  0  0  0  0  0  0  0  0  0
  1  2  2  0  0  0  0
  2  3  1  0  0  0  0
  3  4  2  0  0  0  0
  3  5  1  0  0  0  0
  5  6  2  0  0  0  0
  6  7  1  0  0  0  0
  7  8  1  0  0  0  0
  7  9  2  0  0  0  0
  9 10  1  0  0  0  0
  9 11  1  0  0  0  0
 11 12  2  0  0  0  0
 12 13  1  0  0  0  0
 13 14  2  0  0  0  0
 14 15  1  0  0  0  0
 15 16  3  0  0  0  0
 14 17  1  0  0  0  0
 17 18  3  0  0  0  0
  1 19  1  0  0  0  0
 19 20  2  0  0  0  0
 20 21  1  0  0  0  0
 21 22  1  0  0  0  0
 22 23  1  0  0  0  0
 23 24  2  0  0  0  0
 24 25  1  0  0  0  0
 25 26  2  0  0  0  0
 26 27  1  0  0  0  0
 27 28  1  0  0  0  0
 26 29  1  0  0  0  0
 29 30  2  0  0  0  0
 22 31  1  0  0  0  0
 31 32  2  0  0  0  0
 32 33  1  0  0  0  0
 33 34  2  0  0  0  0
 34 35  1  0  0  0  0
 35 36  1  0  0  0  0
 34 37  1  0  0  0  0
 37 38  2  0  0  0  0
 22 39  1  0  0  0  0
 39 40  2  0  0  0  0
 40 41  1  0  0  0  0
 41 42  1  0  0  0  0
 40 43  1  0  0  0  0
 43 44  1  0  0  0  0
 44 45  2  0  0  0  0
 45 46  1  0  0  0  0
 46 47  1  0  0  0  0
 47 48  2  0  0  0  0
 48 49  1  0  0  0  0
 49 50  2  0  0  0  0
 50 51  1  0  0  0  0
 51 52  2  0  0  0  0
 52 53  1  0  0  0  0
 53 54  1  0  0  0  0
 52 55  1  0  0  0  0
 48 56  1  0  0  0  0
 56 57  2  0  0  0  0
 57 58  1  0  0  0  0
 58 59  1  0  0  0  0
 59 60  2  0  0  0  0
 60 61  1  0  0  0  0
 61 62  2  0  0  0  0
 62 63  1  0  0  0  0
 63 64  1  0  0  0  0
 62 65  1  0  0  0  0
 58 66  2  0  0  0  0
 57 67  1  0  0  0  0
 67 68  1  0  0  0  0
 68 69  1  0  0  0  0
 69 70  2  0  0  0  0
 70 71  1  0  0  0  0
 71 72  1  0  0  0  0
 70 73  1  0  0  0  0
 73 74  1  0  0  0  0
 74 75  1  0  0  0  0
 75 76  2  0  0  0  0
 76 77  1  0  0  0  0
 77 78  1  0  0  0  0
 78 79  1  0  0  0  0
 79 80  2  0  0  0  0
 80 81  1  0  0  0  0
 81 82  2  0  0  0  0
 82 83  1  0  0  0  0
 83 84  1  0  0  0  0
 82 85  1  0  0  0  0
 85 86  2  0  0  0  0
 78 87  1  0  0  0  0
 87 88  2  0  0  0  0
 88 89  1  0  0  0  0
 89 90  2  0  0  0  0
 90 91  1  0  0  0  0
 91 92  1  0  0  0  0
 90 93  1  0  0  0  0
 93 94  2  0  0  0  0
 75 95  1  0  0  0  0
 95 96  2  0  0  0  0
 96 97  1  0  0  0  0
 97 98  2  0  0  0  0
 97 99  1  0  0  0  0
 99100  2  0  0  0  0
100101  1  0  0  0  0
100102  1  0  0  0  0
102103  2  0  0  0  0
103104  1  0  0  0  0
104105  2  0  0  0  0
105106  1  0  0  0  0
106107  2  0  0  0  0
107108  1  0  0  0  0
108109  3  0  0  0  0
107110  1  0  0  0  0
110111  3  0  0  0  0
 13  2  1  0  0  0  0
 42 19  1  0  0  0  0
 66 44  1  0  0  0  0
 72 68  2  0  0  0  0
 77 73  2  0  0  0  0
 86 79  1  0  0  0  0
 94 87  1  0  0  0  0
106 96  1  0  0  0  0
 12  5  1  0  0  0  0
 41 21  2  0  0  0  0
 66 47  1  0  0  0  0
 78 69  1  0  0  0  0
105 99  1  0  0  0  0
 30 23  1  0  0  0  0
 38 31  1  0  0  0  0
 45 39  1  0  0  0  0
 55 49  1  0  0  0  0
 72 56  1  0  0  0  0
 65 59  1  0  0  0  0
  1112  1  0  0  0  0
  6113  1  0  0  0  0
 11114  1  0  0  0  0
 20115  1  0  0  0  0
 24116  1  0  0  0  0
 25117  1  0  0  0  0
 27118  1  0  0  0  0
 27119  1  0  0  0  0
 28120  1  0  0  0  0
 28121  1  0  0  0  0
 28122  1  0  0  0  0
 29123  1  0  0  0  0
 30124  1  0  0  0  0
 32125  1  0  0  0  0
 33126  1  0  0  0  0
 35127  1  0  0  0  0
 35128  1  0  0  0  0
 36129  1  0  0  0  0
 36130  1  0  0  0  0
 36131  1  0  0  0  0
 37132  1  0  0  0  0
 38133  1  0  0  0  0
 50134  1  0  0  0  0
 51135  1  0  0  0  0
 53136  1  0  0  0  0
 53137  1  0  0  0  0
 54138  1  0  0  0  0
 54139  1  0  0  0  0
 54140  1  0  0  0  0
 60141  1  0  0  0  0
 61142  1  0  0  0  0
 63143  1  0  0  0  0
 63144  1  0  0  0  0
 64145  1  0  0  0  0
 64146  1  0  0  0  0
 64147  1  0  0  0  0
 76148  1  0  0  0  0
 80149  1  0  0  0  0
 81150  1  0  0  0  0
 83151  1  0  0  0  0
 83152  1  0  0  0  0
 84153  1  0  0  0  0
 84154  1  0  0  0  0
 84155  1  0  0  0  0
 85156  1  0  0  0  0
 86157  1  0  0  0  0
 88158  1  0  0  0  0
 89159  1  0  0  0  0
 91160  1  0  0  0  0
 91161  1  0  0  0  0
 92162  1  0  0  0  0
 92163  1  0  0  0  0
 92164  1  0  0  0  0
 93165  1  0  0  0  0
 94166  1  0  0  0  0
 95167  1  0  0  0  0
102168  1  0  0  0  0
103169  1  0  0  0  0
104170  1  0  0  0  0
M  END
