107

C          5.43020        7.15940        5.44940
C          5.53810        8.49360        5.76570
C          4.91280        9.59970        5.03710
O          4.23430        9.54340        4.02900
C          5.27390       10.82850        5.77750
C          4.91480       12.13130        5.50170
C          5.37090       13.13310        6.35070
Cl         4.95810       14.77880        6.06820
C          6.17050       12.79180        7.44300
F          6.60570       13.76080        8.25800
C          6.53570       11.48390        7.72410
C          6.07900       10.48650        6.87730
C          6.26900        9.03580        6.89140
C          7.01060        8.35000        7.82050
C          7.69280        8.96090        8.89370
N          8.27290        9.39040        9.78630
C          7.20950        6.95470        7.85360
N          7.42090        5.82940        7.95590
C          4.72960        6.51460        4.42590
S          3.76630        7.28560        3.16180
C          3.35300        5.73870        2.53890
C          2.59820        5.14100        1.53300
S          1.60960        5.63070        0.18740
C          1.32150        3.96060       -0.14420
C          0.56350        3.20950       -1.05820
C         -0.35140        3.57840       -2.07020
C         -1.10120        2.54990       -2.73800
N         -1.96650        3.04340       -3.61000
S         -1.84540        4.65690       -3.59860
N         -0.68630        4.79150       -2.47970
C         -0.80980        1.19520       -2.45990
C         -1.26460       -0.00370       -3.02750
S         -2.44060       -0.52020       -4.17790
C         -1.93340       -2.17170       -3.92060
C         -2.43170       -3.38960       -4.39950
C         -3.45790       -3.50230       -5.47560
C         -3.04470       -2.73680       -6.73280
C         -1.75070       -4.46140       -3.83470
S         -0.42450       -3.93810       -2.79390
C         -0.87900       -2.28750       -2.99970
C         -0.50590       -1.04610       -2.47450
N          0.38240       -0.53500       -1.55690
C          0.19000        0.83590       -1.51710
C          0.77260        1.84980       -0.72460
N          1.59530        1.76680        0.39120
C          1.94540        3.06150        0.73570
C          2.71200        3.73740        1.69690
N          3.52800        3.46490        2.77270
C          3.93350        4.67590        3.28190
C          4.71220        5.11590        4.33220
C          4.12300        2.20000        3.12780
C          5.07580        1.70520        2.04150
C          1.41560        0.73760        1.39670
C          0.59230        1.24070        2.58240
C          1.58190       -1.25600       -1.17580
C          1.31960       -2.40860       -0.20950
C         -1.96680       -5.84990       -3.94440
C         -3.19470       -6.45710       -3.99240
C         -4.44170       -5.82360       -3.50720
O         -4.62600       -4.66190       -3.21040
C         -5.40230       -6.93400       -3.33970
C         -6.67660       -6.88480       -2.85490
C         -7.42000       -8.08250       -2.75740
C         -8.73720       -8.08850       -2.25960
C         -9.43140       -9.26200       -2.16490
F        -10.68370       -9.26650       -1.68690
C         -8.84100      -10.47700       -2.56540
F         -9.54490      -11.61230       -2.46050
C         -7.56500      -10.50260       -3.05460
C         -6.82170       -9.31030       -3.16370
C         -5.49880       -9.32830       -3.66330
C         -4.79840       -8.15470       -3.75080
C         -3.44060       -7.86640       -4.20110
C         -2.57990       -8.75320       -4.79530
C         -2.87190      -10.11650       -5.00020
N         -3.06080      -11.23300       -5.18930
C         -1.31430       -8.39860       -5.30700
N         -0.28510       -8.16490       -5.75940
H          5.95270        6.46940        6.10070
H          4.29500       12.36240        4.65010
H          7.15500       11.29140        8.58470
H         -4.40370       -3.10830       -5.09560
H         -3.60760       -4.55300       -5.72670
H         -2.09050       -3.10510       -7.10370
H         -2.95460       -1.67270       -6.53350
H         -3.79320       -2.87830       -7.50790
H          5.24960        4.49640        5.02790
H          4.66870        2.35060        4.06090
H          3.33810        1.46220        3.31360
H          5.88220        2.42000        1.89690
H          4.55050        1.58700        1.09630
H          5.50540        0.74920        2.32830
H          0.86720       -0.07800        0.93390
H          2.39010        0.36720        1.72770
H         -0.38650        1.56960        2.23970
H          0.45590        0.43530        3.29960
H          1.07460        2.07610        3.08260
H          2.28860       -0.54140       -0.75130
H          2.03050       -1.66790       -2.08780
H          0.69060       -3.16010       -0.67630
H          0.82870       -2.07780        0.70190
H          2.26530       -2.87260        0.05570
H         -1.08260       -6.47420       -3.88050
H         -7.11090       -5.94560       -2.54750
H         -9.20280       -7.16650       -1.94820
H         -7.12860      -11.44150       -3.35760
H         -5.06890      -10.27310       -3.95490
