
  xtb     02012218033D
 energy: -190.074268805679 gnorm: 0.000475432874 xtb: 6.4.1 (unknown)
 97108  0     0  0            999 V2000
   -5.4656   -2.7336    5.7292 C   0  0  0  0  0  0  0  0  0  0  0  0
   -5.6877   -3.8829    6.4433 C   0  0  0  0  0  0  0  0  0  0  0  0
   -4.7018   -4.9745    6.5942 C   0  0  0  0  0  0  0  0  0  0  0  0
   -3.5375   -4.9858    6.2567 O   0  0  0  0  0  0  0  0  0  0  0  0
   -5.4691   -6.1170    7.1432 C   0  0  0  0  0  0  0  0  0  0  0  0
   -5.0124   -7.3846    7.4399 C   0  0  0  0  0  0  0  0  0  0  0  0
   -5.9195   -8.3117    7.9398 C   0  0  0  0  0  0  0  0  0  0  0  0
   -5.4154   -9.9078    8.3350 Cl  0  0  0  0  0  0  0  0  0  0  0  0
   -7.2531   -7.9372    8.1191 C   0  0  0  0  0  0  0  0  0  0  0  0
   -8.1221   -8.8373    8.5939 F   0  0  0  0  0  0  0  0  0  0  0  0
   -7.7194   -6.6661    7.8209 C   0  0  0  0  0  0  0  0  0  0  0  0
   -6.8114   -5.7434    7.3261 C   0  0  0  0  0  0  0  0  0  0  0  0
   -6.9709   -4.3496    6.9218 C   0  0  0  0  0  0  0  0  0  0  0  0
   -8.1106   -3.5990    7.0526 C   0  0  0  0  0  0  0  0  0  0  0  0
   -8.1998   -2.2248    6.7461 C   0  0  0  0  0  0  0  0  0  0  0  0
   -8.3318   -1.1032    6.5386 N   0  0  0  0  0  0  0  0  0  0  0  0
   -9.3344   -4.1017    7.5407 C   0  0  0  0  0  0  0  0  0  0  0  0
  -10.3562   -4.4594    7.9217 N   0  0  0  0  0  0  0  0  0  0  0  0
   -4.2152   -2.1990    5.3658 C   0  0  0  0  0  0  0  0  0  0  0  0
   -3.0037   -2.1772    6.0456 C   0  0  0  0  0  0  0  0  0  0  0  0
   -2.8435   -2.5668    7.4775 C   0  0  0  0  0  0  0  0  0  0  0  0
   -2.2974   -1.4191    8.3276 C   0  0  0  0  0  0  0  0  0  0  0  0
   -1.9627   -1.6232    5.2851 C   0  0  0  0  0  0  0  0  0  0  0  0
   -0.2536   -1.4930    5.6429 S   0  0  0  0  0  0  0  0  0  0  0  0
    0.0116   -0.8343    4.0722 C   0  0  0  0  0  0  0  0  0  0  0  0
    1.0790   -0.4457    3.2513 C   0  0  0  0  0  0  0  0  0  0  0  0
    2.4756   -0.5411    3.4426 C   0  0  0  0  0  0  0  0  0  0  0  0
    3.3444   -0.2701    2.3348 C   0  0  0  0  0  0  0  0  0  0  0  0
    4.6183   -0.4746    2.6302 N   0  0  0  0  0  0  0  0  0  0  0  0
    4.7172   -0.9581    4.1712 S   0  0  0  0  0  0  0  0  0  0  0  0
    3.1372   -0.9302    4.5208 N   0  0  0  0  0  0  0  0  0  0  0  0
    2.7847    0.2084    1.1292 C   0  0  0  0  0  0  0  0  0  0  0  0
    3.3849    0.6214   -0.0675 C   0  0  0  0  0  0  0  0  0  0  0  0
    4.9494    0.6998   -0.7925 S   0  0  0  0  0  0  0  0  0  0  0  0
    4.2200    1.4299   -2.2162 C   0  0  0  0  0  0  0  0  0  0  0  0
    4.8147    1.8536   -3.3950 C   0  0  0  0  0  0  0  0  0  0  0  0
    6.2786    1.6662   -3.6357 C   0  0  0  0  0  0  0  0  0  0  0  0
    6.5383    0.3652   -4.4012 C   0  0  0  0  0  0  0  0  0  0  0  0
    3.9013    2.3957   -4.3245 C   0  0  0  0  0  0  0  0  0  0  0  0
    2.1157    2.3862   -3.6446 Se  0  0  0  0  0  2  0  0  0  0  0  0
    2.8250    1.6013   -2.1125 C   0  0  0  0  0  0  0  0  0  0  0  0
    2.3653    1.1235   -0.8845 C   0  0  0  0  0  0  0  0  0  0  0  0
    1.1545    1.0148   -0.2478 N   0  0  0  0  0  0  0  0  0  0  0  0
    1.3819    0.4309    0.9859 C   0  0  0  0  0  0  0  0  0  0  0  0
    0.5152   -0.0268    2.0112 C   0  0  0  0  0  0  0  0  0  0  0  0
   -0.8547   -0.2031    2.0761 N   0  0  0  0  0  0  0  0  0  0  0  0
   -1.1597   -0.6921    3.3190 C   0  0  0  0  0  0  0  0  0  0  0  0
   -2.2915   -1.1488    4.0032 C   0  0  0  0  0  0  0  0  0  0  0  0
   -4.1124   -1.3406    3.6669 Se  0  0  0  0  0  2  0  0  0  0  0  0
   -1.8488   -0.2448    1.0293 C   0  0  0  0  0  0  0  0  0  0  0  0
   -2.8362    0.9182    1.1306 C   0  0  0  0  0  0  0  0  0  0  0  0
    0.0874    1.8857   -0.6893 C   0  0  0  0  0  0  0  0  0  0  0  0
    0.3968    3.3448   -0.3574 C   0  0  0  0  0  0  0  0  0  0  0  0
    4.3101    2.8529   -5.5756 C   0  0  0  0  0  0  0  0  0  0  0  0
    3.5979    3.3850   -6.6320 C   0  0  0  0  0  0  0  0  0  0  0  0
    2.1637    3.6073   -6.6638 C   0  0  0  0  0  0  0  0  0  0  0  0
    1.3544    3.3955   -5.7680 O   0  0  0  0  0  0  0  0  0  0  0  0
    1.8549    4.1529   -7.9985 C   0  0  0  0  0  0  0  0  0  0  0  0
    0.6336    4.5161   -8.5258 C   0  0  0  0  0  0  0  0  0  0  0  0
    0.5953    5.0053   -9.8272 C   0  0  0  0  0  0  0  0  0  0  0  0
   -0.9081    5.4661  -10.5203 Cl  0  0  0  0  0  0  0  0  0  0  0  0
    1.7776    5.1177  -10.5619 C   0  0  0  0  0  0  0  0  0  0  0  0
    1.7246    5.7794  -12.3326 Br  0  0  0  0  0  0  0  0  0  0  0  0
    3.0089    4.7531  -10.0276 C   0  0  0  0  0  0  0  0  0  0  0  0
    3.0493    4.2660   -8.7330 C   0  0  0  0  0  0  0  0  0  0  0  0
    4.1604    3.8036   -7.8988 C   0  0  0  0  0  0  0  0  0  0  0  0
    5.4783    3.7930   -8.2791 C   0  0  0  0  0  0  0  0  0  0  0  0
    6.5617    3.3614   -7.4858 C   0  0  0  0  0  0  0  0  0  0  0  0
    7.4971    3.0300   -6.9064 N   0  0  0  0  0  0  0  0  0  0  0  0
    5.9395    4.2281   -9.5398 C   0  0  0  0  0  0  0  0  0  0  0  0
    6.3784    4.5642  -10.5455 N   0  0  0  0  0  0  0  0  0  0  0  0
   -6.3292   -2.2142    5.3251 H   0  0  0  0  0  0  0  0  0  0  0  0
   -3.9771   -7.6453    7.2885 H   0  0  0  0  0  0  0  0  0  0  0  0
   -8.7622   -6.4420    7.9764 H   0  0  0  0  0  0  0  0  0  0  0  0
   -3.8083   -2.8769    7.8798 H   0  0  0  0  0  0  0  0  0  0  0  0
   -2.1669   -3.4237    7.5303 H   0  0  0  0  0  0  0  0  0  0  0  0
   -1.2924   -1.1422    8.0232 H   0  0  0  0  0  0  0  0  0  0  0  0
   -2.2668   -1.7242    9.3704 H   0  0  0  0  0  0  0  0  0  0  0  0
   -2.9415   -0.5462    8.2426 H   0  0  0  0  0  0  0  0  0  0  0  0
    6.7799    1.6121   -2.6670 H   0  0  0  0  0  0  0  0  0  0  0  0
    6.7025    2.5045   -4.1901 H   0  0  0  0  0  0  0  0  0  0  0  0
    6.0480    0.3829   -5.3719 H   0  0  0  0  0  0  0  0  0  0  0  0
    7.6056    0.2384   -4.5575 H   0  0  0  0  0  0  0  0  0  0  0  0
    6.1631   -0.4862   -3.8380 H   0  0  0  0  0  0  0  0  0  0  0  0
   -1.3482   -0.2798    0.0607 H   0  0  0  0  0  0  0  0  0  0  0  0
   -2.4073   -1.1834    1.1438 H   0  0  0  0  0  0  0  0  0  0  0  0
   -3.4553    0.8044    2.0203 H   0  0  0  0  0  0  0  0  0  0  0  0
   -3.4870    0.9280    0.2607 H   0  0  0  0  0  0  0  0  0  0  0  0
   -2.3256    1.8758    1.2038 H   0  0  0  0  0  0  0  0  0  0  0  0
   -0.0042    1.7685   -1.7770 H   0  0  0  0  0  0  0  0  0  0  0  0
   -0.8495    1.6077   -0.2239 H   0  0  0  0  0  0  0  0  0  0  0  0
   -0.4300    3.9742   -0.6740 H   0  0  0  0  0  0  0  0  0  0  0  0
    1.2961    3.6753   -0.8733 H   0  0  0  0  0  0  0  0  0  0  0  0
    0.5443    3.4674    0.7138 H   0  0  0  0  0  0  0  0  0  0  0  0
    5.3751    2.7602   -5.7413 H   0  0  0  0  0  0  0  0  0  0  0  0
   -0.2686    4.4215   -7.9429 H   0  0  0  0  0  0  0  0  0  0  0  0
    3.8958    4.8568  -10.6315 H   0  0  0  0  0  0  0  0  0  0  0  0
  1  2  2  0  0  0  0
  2  3  1  0  0  0  0
  3  4  2  0  0  0  0
  3  5  1  0  0  0  0
  5  6  2  0  0  0  0
  6  7  1  0  0  0  0
  7  8  1  0  0  0  0
  7  9  2  0  0  0  0
  9 10  1  0  0  0  0
  9 11  1  0  0  0  0
 11 12  2  0  0  0  0
 12 13  1  0  0  0  0
 13 14  2  0  0  0  0
 14 15  1  0  0  0  0
 15 16  3  0  0  0  0
 14 17  1  0  0  0  0
 17 18  3  0  0  0  0
  1 19  1  0  0  0  0
 19 20  2  0  0  0  0
 20 21  1  0  0  0  0
 21 22  1  0  0  0  0
 20 23  1  0  0  0  0
 23 24  1  0  0  0  0
 24 25  1  0  0  0  0
 25 26  1  0  0  0  0
 26 27  1  0  0  0  0
 27 28  1  0  0  0  0
 28 29  2  0  0  0  0
 29 30  1  0  0  0  0
 30 31  1  0  0  0  0
 28 32  1  0  0  0  0
 32 33  1  0  0  0  0
 33 34  1  0  0  0  0
 34 35  1  0  0  0  0
 35 36  1  0  0  0  0
 36 37  1  0  0  0  0
 37 38  1  0  0  0  0
 36 39  2  0  0  0  0
 39 40  1  0  0  0  0
 40 41  1  0  0  0  0
 41 42  1  0  0  0  0
 42 43  1  0  0  0  0
 43 44  1  0  0  0  0
 44 45  1  0  0  0  0
 45 46  1  0  0  0  0
 46 47  1  0  0  0  0
 47 48  1  0  0  0  0
 48 49  1  0  0  0  0
 46 50  1  0  0  0  0
 50 51  1  0  0  0  0
 43 52  1  0  0  0  0
 52 53  1  0  0  0  0
 39 54  1  0  0  0  0
 54 55  2  0  0  0  0
 55 56  1  0  0  0  0
 56 57  2  0  0  0  0
 56 58  1  0  0  0  0
 58 59  2  0  0  0  0
 59 60  1  0  0  0  0
 60 61  1  0  0  0  0
 60 62  2  0  0  0  0
 62 63  1  0  0  0  0
 62 64  1  0  0  0  0
 64 65  2  0  0  0  0
 65 66  1  0  0  0  0
 66 67  2  0  0  0  0
 67 68  1  0  0  0  0
 68 69  3  0  0  0  0
 67 70  1  0  0  0  0
 70 71  3  0  0  0  0
 13  2  1  0  0  0  0
 49 19  1  0  0  0  0
 66 55  1  0  0  0  0
 12  5  1  0  0  0  0
 48 23  2  0  0  0  0
 65 58  1  0  0  0  0
 47 25  2  0  0  0  0
 45 26  2  0  0  0  0
 31 27  2  0  0  0  0
 44 32  2  0  0  0  0
 42 33  2  0  0  0  0
 41 35  2  0  0  0  0
  1 72  1  0  0  0  0
  6 73  1  0  0  0  0
 11 74  1  0  0  0  0
 21 75  1  0  0  0  0
 21 76  1  0  0  0  0
 22 77  1  0  0  0  0
 22 78  1  0  0  0  0
 22 79  1  0  0  0  0
 37 80  1  0  0  0  0
 37 81  1  0  0  0  0
 38 82  1  0  0  0  0
 38 83  1  0  0  0  0
 38 84  1  0  0  0  0
 50 85  1  0  0  0  0
 50 86  1  0  0  0  0
 51 87  1  0  0  0  0
 51 88  1  0  0  0  0
 51 89  1  0  0  0  0
 52 90  1  0  0  0  0
 52 91  1  0  0  0  0
 53 92  1  0  0  0  0
 53 93  1  0  0  0  0
 53 94  1  0  0  0  0
 54 95  1  0  0  0  0
 59 96  1  0  0  0  0
 64 97  1  0  0  0  0
M  END
