
  xtb     02012219093D
 energy: -189.846050414580 gnorm: 0.000221682859 xtb: 6.4.1 (unknown)
100111  0     0  0            999 V2000
   -6.8193    1.0926   -3.7239 C   0  0  0  0  0  0  0  0  0  0  0  0
   -6.9943    0.0406   -4.6015 C   0  0  0  0  0  0  0  0  0  0  0  0
   -5.9676   -0.8968   -5.0193 C   0  0  0  0  0  0  0  0  0  0  0  0
   -4.7786   -0.8843   -4.7224 O   0  0  0  0  0  0  0  0  0  0  0  0
   -6.6312   -1.8855   -5.8899 C   0  0  0  0  0  0  0  0  0  0  0  0
   -6.0866   -2.9884   -6.5144 C   0  0  0  0  0  0  0  0  0  0  0  0
   -6.9237   -3.7874   -7.2850 C   0  0  0  0  0  0  0  0  0  0  0  0
   -6.3121   -5.1804   -8.0874 Cl  0  0  0  0  0  0  0  0  0  0  0  0
   -8.2733   -3.4502   -7.4021 C   0  0  0  0  0  0  0  0  0  0  0  0
   -9.0744   -4.2249   -8.1433 F   0  0  0  0  0  0  0  0  0  0  0  0
   -8.8255   -2.3407   -6.7784 C   0  0  0  0  0  0  0  0  0  0  0  0
   -7.9907   -1.5465   -6.0099 C   0  0  0  0  0  0  0  0  0  0  0  0
   -8.2447   -0.3354   -5.2271 C   0  0  0  0  0  0  0  0  0  0  0  0
   -9.4571    0.2995   -5.1320 C   0  0  0  0  0  0  0  0  0  0  0  0
   -9.7181    1.4701   -4.3902 C   0  0  0  0  0  0  0  0  0  0  0  0
  -10.0127    2.4191   -3.8128 N   0  0  0  0  0  0  0  0  0  0  0  0
  -10.6301   -0.1392   -5.7819 C   0  0  0  0  0  0  0  0  0  0  0  0
  -11.6185   -0.4419   -6.2807 N   0  0  0  0  0  0  0  0  0  0  0  0
   -5.6993    1.5243   -3.0162 C   0  0  0  0  0  0  0  0  0  0  0  0
   -5.7648    2.5818   -2.0843 C   0  0  0  0  0  0  0  0  0  0  0  0
   -7.0028    3.3460   -1.7380 C   0  0  0  0  0  0  0  0  0  0  0  0
   -7.8262    2.5983   -0.6852 C   0  0  0  0  0  0  0  0  0  0  0  0
   -4.5671    2.8181   -1.4262 C   0  0  0  0  0  0  0  0  0  0  0  0
   -4.2110    3.9516   -0.1299 S   0  0  0  0  0  0  0  0  0  0  0  0
   -2.6014    3.3300   -0.0695 C   0  0  0  0  0  0  0  0  0  0  0  0
   -1.4441    3.4543    0.7084 C   0  0  0  0  0  0  0  0  0  0  0  0
   -1.2047    4.1728    1.9015 C   0  0  0  0  0  0  0  0  0  0  0  0
    0.0026    3.9167    2.6311 C   0  0  0  0  0  0  0  0  0  0  0  0
    0.0600    4.5939    3.7669 N   0  0  0  0  0  0  0  0  0  0  0  0
   -1.2849    5.4841    3.9027 S   0  0  0  0  0  0  0  0  0  0  0  0
   -1.9963    5.0343    2.5197 N   0  0  0  0  0  0  0  0  0  0  0  0
    0.9675    3.0493    2.0724 C   0  0  0  0  0  0  0  0  0  0  0  0
    2.2273    2.6451    2.5384 C   0  0  0  0  0  0  0  0  0  0  0  0
    3.2076    2.7792    3.9520 S   0  0  0  0  0  0  0  0  0  0  0  0
    4.4084    1.7555    3.1968 C   0  0  0  0  0  0  0  0  0  0  0  0
    5.5824    1.1968    3.7304 C   0  0  0  0  0  0  0  0  0  0  0  0
    6.1240    1.5942    5.0635 C   0  0  0  0  0  0  0  0  0  0  0  0
    6.4750    3.0826    5.0962 C   0  0  0  0  0  0  0  0  0  0  0  0
    6.2261    0.3483    2.8480 C   0  0  0  0  0  0  0  0  0  0  0  0
    5.3785    0.2880    1.1397 Se  0  0  0  0  0  2  0  0  0  0  0  0
    4.0659    1.3766    1.8909 C   0  0  0  0  0  0  0  0  0  0  0  0
    2.8069    1.8697    1.5291 C   0  0  0  0  0  0  0  0  0  0  0  0
    1.9453    1.7552    0.4706 N   0  0  0  0  0  0  0  0  0  0  0  0
    0.7861    2.4442    0.7957 C   0  0  0  0  0  0  0  0  0  0  0  0
   -0.4822    2.5485    0.1684 C   0  0  0  0  0  0  0  0  0  0  0  0
   -1.0622    1.8850   -0.8959 N   0  0  0  0  0  0  0  0  0  0  0  0
   -2.3496    2.3349   -1.0228 C   0  0  0  0  0  0  0  0  0  0  0  0
   -3.4679    2.0178   -1.7971 C   0  0  0  0  0  0  0  0  0  0  0  0
   -3.9431    0.7807   -3.1083 Se  0  0  0  0  0  2  0  0  0  0  0  0
   -0.6539    0.6831   -1.5843 C   0  0  0  0  0  0  0  0  0  0  0  0
   -0.5473   -0.5039   -0.6312 C   0  0  0  0  0  0  0  0  0  0  0  0
    2.4542    1.3621   -0.8249 C   0  0  0  0  0  0  0  0  0  0  0  0
    2.4075    2.5163   -1.8218 C   0  0  0  0  0  0  0  0  0  0  0  0
    7.3386   -0.5022    3.0488 C   0  0  0  0  0  0  0  0  0  0  0  0
    7.5359   -1.2809    4.1537 C   0  0  0  0  0  0  0  0  0  0  0  0
    6.4568   -1.6477    5.1037 C   0  0  0  0  0  0  0  0  0  0  0  0
    5.3590   -1.1471    5.2203 O   0  0  0  0  0  0  0  0  0  0  0  0
    6.9626   -2.8401    5.8146 C   0  0  0  0  0  0  0  0  0  0  0  0
    6.3029   -3.6268    6.7383 C   0  0  0  0  0  0  0  0  0  0  0  0
    6.9484   -4.7335    7.2784 C   0  0  0  0  0  0  0  0  0  0  0  0
    6.2938   -5.6329    8.2747 C   0  0  0  0  0  0  0  0  0  0  0  0
    8.2529   -4.9923    6.8515 C   0  0  0  0  0  0  0  0  0  0  0  0
    8.8818   -6.0658    7.3645 F   0  0  0  0  0  0  0  0  0  0  0  0
    8.9377   -4.2197    5.9274 C   0  0  0  0  0  0  0  0  0  0  0  0
    8.2743   -3.1243    5.3984 C   0  0  0  0  0  0  0  0  0  0  0  0
    8.6781   -2.1346    4.4065 C   0  0  0  0  0  0  0  0  0  0  0  0
    9.9282   -1.9823    3.8690 C   0  0  0  0  0  0  0  0  0  0  0  0
   10.2791   -0.9378    2.9877 C   0  0  0  0  0  0  0  0  0  0  0  0
   10.6230   -0.0952    2.2878 N   0  0  0  0  0  0  0  0  0  0  0  0
   11.0208   -2.8228    4.1655 C   0  0  0  0  0  0  0  0  0  0  0  0
   11.9378   -3.4819    4.3696 N   0  0  0  0  0  0  0  0  0  0  0  0
   -7.7086    1.6743   -3.5210 H   0  0  0  0  0  0  0  0  0  0  0  0
   -5.0402   -3.2234   -6.4044 H   0  0  0  0  0  0  0  0  0  0  0  0
   -9.8759   -2.1399   -6.9114 H   0  0  0  0  0  0  0  0  0  0  0  0
   -6.7038    4.3138   -1.3299 H   0  0  0  0  0  0  0  0  0  0  0  0
   -7.6182    3.5257   -2.6206 H   0  0  0  0  0  0  0  0  0  0  0  0
   -8.1333    1.6227   -1.0553 H   0  0  0  0  0  0  0  0  0  0  0  0
   -8.7171    3.1701   -0.4422 H   0  0  0  0  0  0  0  0  0  0  0  0
   -7.2422    2.4579    0.2215 H   0  0  0  0  0  0  0  0  0  0  0  0
    7.0161    1.0104    5.2900 H   0  0  0  0  0  0  0  0  0  0  0  0
    5.3697    1.3741    5.8223 H   0  0  0  0  0  0  0  0  0  0  0  0
    7.2184    3.3116    4.3354 H   0  0  0  0  0  0  0  0  0  0  0  0
    6.8861    3.3403    6.0687 H   0  0  0  0  0  0  0  0  0  0  0  0
    5.5956    3.6962    4.9210 H   0  0  0  0  0  0  0  0  0  0  0  0
   -1.4271    0.4726   -2.3330 H   0  0  0  0  0  0  0  0  0  0  0  0
    0.2763    0.8515   -2.1271 H   0  0  0  0  0  0  0  0  0  0  0  0
   -0.2281   -1.3879   -1.1761 H   0  0  0  0  0  0  0  0  0  0  0  0
   -1.5178   -0.7067   -0.1843 H   0  0  0  0  0  0  0  0  0  0  0  0
    0.1619   -0.3061    0.1693 H   0  0  0  0  0  0  0  0  0  0  0  0
    1.9285    0.4830   -1.2005 H   0  0  0  0  0  0  0  0  0  0  0  0
    3.4984    1.0656   -0.6705 H   0  0  0  0  0  0  0  0  0  0  0  0
    3.0150    3.3435   -1.4618 H   0  0  0  0  0  0  0  0  0  0  0  0
    2.7995    2.1916   -2.7817 H   0  0  0  0  0  0  0  0  0  0  0  0
    1.3916    2.8783   -1.9612 H   0  0  0  0  0  0  0  0  0  0  0  0
    8.0135   -0.6158    2.2059 H   0  0  0  0  0  0  0  0  0  0  0  0
    5.2937   -3.3791    7.0306 H   0  0  0  0  0  0  0  0  0  0  0  0
    5.2799   -5.3049    8.4841 H   0  0  0  0  0  0  0  0  0  0  0  0
    6.8643   -5.6455    9.2027 H   0  0  0  0  0  0  0  0  0  0  0  0
    6.2684   -6.6547    7.8974 H   0  0  0  0  0  0  0  0  0  0  0  0
    9.9407   -4.4940    5.6443 H   0  0  0  0  0  0  0  0  0  0  0  0
  1  2  2  0  0  0  0
  2  3  1  0  0  0  0
  3  4  2  0  0  0  0
  3  5  1  0  0  0  0
  5  6  2  0  0  0  0
  6  7  1  0  0  0  0
  7  8  1  0  0  0  0
  7  9  2  0  0  0  0
  9 10  1  0  0  0  0
  9 11  1  0  0  0  0
 11 12  2  0  0  0  0
 12 13  1  0  0  0  0
 13 14  2  0  0  0  0
 14 15  1  0  0  0  0
 15 16  3  0  0  0  0
 14 17  1  0  0  0  0
 17 18  3  0  0  0  0
  1 19  1  0  0  0  0
 19 20  2  0  0  0  0
 20 21  1  0  0  0  0
 21 22  1  0  0  0  0
 20 23  1  0  0  0  0
 23 24  1  0  0  0  0
 24 25  1  0  0  0  0
 25 26  1  0  0  0  0
 26 27  1  0  0  0  0
 27 28  1  0  0  0  0
 28 29  2  0  0  0  0
 29 30  1  0  0  0  0
 30 31  1  0  0  0  0
 28 32  1  0  0  0  0
 32 33  1  0  0  0  0
 33 34  1  0  0  0  0
 34 35  1  0  0  0  0
 35 36  1  0  0  0  0
 36 37  1  0  0  0  0
 37 38  1  0  0  0  0
 36 39  2  0  0  0  0
 39 40  1  0  0  0  0
 40 41  1  0  0  0  0
 41 42  1  0  0  0  0
 42 43  1  0  0  0  0
 43 44  1  0  0  0  0
 44 45  1  0  0  0  0
 45 46  1  0  0  0  0
 46 47  1  0  0  0  0
 47 48  1  0  0  0  0
 48 49  1  0  0  0  0
 46 50  1  0  0  0  0
 50 51  1  0  0  0  0
 43 52  1  0  0  0  0
 52 53  1  0  0  0  0
 39 54  1  0  0  0  0
 54 55  2  0  0  0  0
 55 56  1  0  0  0  0
 56 57  2  0  0  0  0
 56 58  1  0  0  0  0
 58 59  2  0  0  0  0
 59 60  1  0  0  0  0
 60 61  1  0  0  0  0
 60 62  2  0  0  0  0
 62 63  1  0  0  0  0
 62 64  1  0  0  0  0
 64 65  2  0  0  0  0
 65 66  1  0  0  0  0
 66 67  2  0  0  0  0
 67 68  1  0  0  0  0
 68 69  3  0  0  0  0
 67 70  1  0  0  0  0
 70 71  3  0  0  0  0
 13  2  1  0  0  0  0
 49 19  1  0  0  0  0
 66 55  1  0  0  0  0
 12  5  1  0  0  0  0
 48 23  2  0  0  0  0
 65 58  1  0  0  0  0
 47 25  2  0  0  0  0
 45 26  2  0  0  0  0
 31 27  2  0  0  0  0
 44 32  2  0  0  0  0
 42 33  2  0  0  0  0
 41 35  2  0  0  0  0
  1 72  1  0  0  0  0
  6 73  1  0  0  0  0
 11 74  1  0  0  0  0
 21 75  1  0  0  0  0
 21 76  1  0  0  0  0
 22 77  1  0  0  0  0
 22 78  1  0  0  0  0
 22 79  1  0  0  0  0
 37 80  1  0  0  0  0
 37 81  1  0  0  0  0
 38 82  1  0  0  0  0
 38 83  1  0  0  0  0
 38 84  1  0  0  0  0
 50 85  1  0  0  0  0
 50 86  1  0  0  0  0
 51 87  1  0  0  0  0
 51 88  1  0  0  0  0
 51 89  1  0  0  0  0
 52 90  1  0  0  0  0
 52 91  1  0  0  0  0
 53 92  1  0  0  0  0
 53 93  1  0  0  0  0
 53 94  1  0  0  0  0
 54 95  1  0  0  0  0
 59 96  1  0  0  0  0
 61 97  1  0  0  0  0
 61 98  1  0  0  0  0
 61 99  1  0  0  0  0
 64100  1  0  0  0  0
M  END
