97

C          1.77020        0.10190       -7.73770
C          2.92840        0.43160       -8.39330
C          4.04210        1.18890       -7.78220
O          4.06210        1.76590       -6.71650
C          5.18900        0.99900       -8.70140
C          6.47700        1.47410       -8.56430
C          7.40350        1.16140       -9.55250
Cl         9.02480        1.72550       -9.44540
C          7.00780        0.37930      -10.63990
F          7.90740        0.07610      -11.58320
C          5.71590       -0.10300      -10.78310
C          4.79430        0.21360       -9.79780
C          3.38280       -0.12750       -9.64770
C          2.60920       -0.78300      -10.57020
C          1.22210       -1.00110      -10.43230
N          0.08890       -1.18150      -10.39130
C          3.09790       -1.29180      -11.79120
N          3.44440       -1.73440      -12.79180
C          1.26050        0.72020       -6.57960
C          1.27230        2.05240       -6.18540
C          1.66450        3.18460       -7.07570
C          0.50940        4.16340       -7.29190
C          0.74120        2.24460       -4.90090
S          0.62390        3.69530       -3.92670
C         -0.02240        2.76160       -2.62810
C         -0.47900        2.93540       -1.31010
C         -0.72970        4.07710       -0.51340
C         -1.33940        3.91070        0.78050
N         -1.58310        5.06840        1.37260
S         -1.08570        6.26250        0.40110
N         -0.54000        5.35040       -0.81880
C         -1.52540        2.60530        1.29330
C         -1.90810        2.11470        2.55170
S         -2.48420        2.70200        4.07010
C         -2.43810        1.05890        4.69390
C         -2.75360        0.58200        5.95800
C         -3.18570        1.50770        7.05020
C         -1.98950        1.92960        7.90830
C         -2.55580       -0.80750        6.10180
Se        -1.92850       -1.60170        4.48070
C         -1.99540        0.11020        3.75190
C         -1.70900        0.72650        2.53340
N         -1.25300        0.33240        1.29910
C         -1.16110        1.46820        0.52050
C         -0.80970        1.63870       -0.83460
N         -0.64240        0.71630       -1.85060
C         -0.15000        1.39990       -2.93520
C          0.27060        1.10160       -4.23360
Se         0.41150       -0.41550       -5.29980
C         -1.39390       -0.50790       -2.03800
C         -2.59120       -0.28810       -2.96210
C         -0.46660       -0.87830        1.18100
C          0.81310       -0.78760        2.01120
C         -2.79760       -1.46510        7.30790
C         -2.64310       -2.78630        7.67450
C         -2.16640       -3.85810        6.81590
O         -1.83540       -3.77740        5.63780
C         -2.15730       -5.08080        7.63490
C         -1.78400       -6.36400        7.28420
C         -1.86530       -7.36090        8.24380
C         -2.31630       -7.04870        9.51900
Br        -2.42040       -8.43190       10.81720
C         -2.69570       -5.76200        9.88730
C         -2.61220       -4.76760        8.92870
C         -2.92300       -3.33540        8.98430
C         -3.38610       -2.67430       10.09260
C         -3.63270       -3.29130       11.33780
N         -3.84810       -3.72790       12.37710
C         -3.68350       -1.29730       10.16730
N         -3.94690       -0.18830       10.31220
H          1.22580       -0.77350       -8.07880
H          6.75430        2.07350       -7.71200
H          5.47530       -0.70700      -11.64290
H          1.98460        2.79600       -8.04240
H          2.51290        3.70400       -6.62330
H          0.21600        4.64240       -6.36240
H         -0.35280        3.64380       -7.70490
H          0.81480        4.93530       -7.99330
H         -3.94360        1.04740        7.68570
H         -3.62300        2.39700        6.59130
H         -1.24660        2.43760        7.29760
H         -1.52370        1.06430        8.37440
H         -2.32000        2.60540        8.69170
H         -1.76480       -0.85260       -1.07430
H         -0.72660       -1.26400       -2.46960
H         -3.23250        0.49690       -2.56690
H         -3.16660       -1.20660       -3.03410
H         -2.26830       -0.00530       -3.96180
H         -0.19150       -1.03750        0.14070
H         -1.07750       -1.71820        1.53440
H          1.40850       -1.68310        1.85840
H          1.39760        0.07910        1.70940
H          0.58450       -0.70500        3.07180
H         -3.16360       -0.81170        8.08890
H         -1.43800       -6.57570        6.28460
H         -1.58200       -8.37520        8.00910
H         -3.03930       -5.56940       10.89040
