103

C          1.21890        8.52470        0.73850
C          2.11120        8.67700        1.78050
C          2.75710        7.60090        2.51120
O          2.61730        6.39540        2.34260
C          3.62980        8.24110        3.51410
C          4.45400        7.64660        4.44710
C          5.19050        8.46860        5.29260
Cl         6.23790        7.79430        6.47840
C          5.07400        9.85460        5.17170
F          5.78720       10.64030        5.98710
C          4.24570       10.45780        4.23640
C          3.51210        9.63760        3.39540
C          2.56400        9.94120        2.32210
C          2.19220       11.20360        1.93510
C          1.27700       11.51580        0.90830
N          0.54490       11.85440        0.08960
C          2.68300       12.38730        2.52580
N          3.04160       13.38720        2.96070
C          0.70000        7.38560        0.12530
C         -0.20060        7.46930       -0.95800
C         -0.64410        8.73880       -1.61230
C          0.39870        9.21800       -2.62640
C         -0.60990        6.23310       -1.43460
S         -1.69550        5.84850       -2.76260
C         -1.45510        4.17060       -2.43750
C         -1.84480        2.92200       -2.94480
C         -2.56680        2.53340       -4.09720
C         -2.65140        1.13670       -4.43340
N         -3.28410        0.93300       -5.57760
S         -3.74390        2.36380       -6.17650
N         -3.14880        3.30390       -5.00180
C         -2.14460        0.17770       -3.52600
C         -2.19270       -1.22620       -3.49240
S         -2.72130       -2.54350       -4.47270
C         -2.23970       -3.65520       -3.20850
C         -2.31910       -5.05110       -3.15620
C         -2.94800       -5.85810       -4.24230
C         -4.41360       -6.14650       -3.90700
C         -1.87340       -5.58440       -1.95060
Se        -1.22070       -4.23630       -0.77000
C         -1.69750       -3.01250       -2.08580
C         -1.67000       -1.62730       -2.25470
N         -1.27940       -0.53030       -1.52670
C         -1.53420        0.58270       -2.30870
C         -1.23780        1.94650       -2.10530
N         -0.45140        2.57730       -1.16260
C         -0.58940        3.92980       -1.36010
C         -0.09120        5.09750       -0.78120
Se         1.06710        5.57060        0.59840
C          0.74530        2.06270       -0.52980
C          1.99680        2.45080       -1.31600
C         -1.29530       -0.59870       -0.07850
C         -2.68760       -0.94770        0.44640
C         -1.78030       -6.95730       -1.64740
C         -1.64610       -7.56100       -0.42990
C         -1.06250       -8.92320       -0.34060
O         -0.88210       -9.69730       -1.25400
C         -0.69930       -9.09390        1.08130
C         -0.02360      -10.11670        1.68030
C          0.24030      -10.05000        3.06730
C          0.93390      -11.08010        3.73450
C          1.19000      -11.00400        5.07550
C          0.75040       -9.87940        5.78650
F          1.01230       -9.82090        7.10520
C          0.07330       -8.85290        5.18910
C         -0.20060       -8.91560        3.80920
C         -0.90710       -7.87370        3.16370
C         -1.15650       -7.96550        1.82200
C         -1.87900       -7.08140        0.91170
C         -2.82890       -6.16160        1.28820
C         -3.07560       -5.78600        2.62210
N         -3.29780       -5.42540        3.68950
C         -3.72070       -5.56780        0.37230
N         -4.48750       -5.10220       -0.34560
H          0.85190        9.44840        0.31110
H          4.52350        6.57300        4.51680
H          4.20360       11.53400        4.19770
H         -0.82320        9.52480       -0.87730
H         -1.58270        8.54380       -2.13540
H          1.34880        9.42090       -2.13760
H          0.55660        8.46210       -3.39230
H          0.05480       10.13170       -3.10240
H         -2.41330       -6.80070       -4.37380
H         -2.89330       -5.29360       -5.17550
H         -4.87160       -6.72490       -4.70480
H         -4.96280       -5.21610       -3.78900
H         -4.48830       -6.70550       -2.97740
H          0.69370        0.97710       -0.48080
H          0.80370        2.47730        0.48420
H          2.12820        3.53080       -1.33180
H          1.92570        2.09060       -2.34030
H          2.87060        2.00730       -0.84750
H         -1.00380        0.36450        0.33550
H         -0.57630       -1.36620        0.23530
H         -3.41230       -0.20970        0.10970
H         -3.00660       -1.92940        0.10150
H         -2.67440       -0.95490        1.53270
H         -1.71600       -7.63220       -2.49690
H          0.30670      -10.96810        1.10430
H          1.26280      -11.93660        3.16540
H          1.71960      -11.78320        5.60030
H         -0.25390       -8.00380        5.76880
H         -1.22490       -7.02230        3.74500
