101

C         -8.23840        3.26540       -2.35330
C         -9.38670        2.50870       -2.28810
C         -9.54150        1.09370       -1.90740
O         -8.71380        0.30850       -1.48500
C        -10.96620        0.76840       -2.14020
C        -11.59800       -0.44540       -1.96250
C        -12.95400       -0.52970       -2.25260
Cl       -13.80480       -2.01230       -2.05550
C        -13.62600        0.60550       -2.70990
F        -14.93190        0.51750       -2.99190
C        -12.99640        1.82800       -2.88690
C        -11.64350        1.90960       -2.59580
C        -10.69370        3.01880       -2.66710
C        -11.03080        4.30430       -3.00550
C        -10.17220        5.42410       -3.04380
N         -9.56910        6.40060       -3.09760
C        -12.33720        4.70970       -3.35460
N        -13.37110        5.11230       -3.64900
C         -6.90320        2.96930       -2.05400
S         -5.72970        4.26650       -2.37900
C         -4.45260        3.26070       -1.83940
C         -3.07600        3.24590       -1.65720
S         -1.75130        4.34250       -1.90360
C         -0.70480        3.09630       -1.33440
C          0.66990        2.95280       -1.13150
C          1.69940        3.90180       -1.30420
C          3.03610        3.51940       -0.98160
N          3.90490        4.50210       -1.16510
S          3.09900        5.79960       -1.70110
N          1.61400        5.15640       -1.71850
C          3.27470        2.19860       -0.54590
C          4.48850        1.58300       -0.22740
S          6.17080        1.97110       -0.14340
C          6.49190        0.31200        0.32990
C          7.66710       -0.36080        0.62780
C          9.00260        0.30750        0.63390
C          9.37850        0.76120        2.04740
C          7.41800       -1.70490        0.96560
S          5.69830       -2.09960        0.89480
C          5.33490       -0.48460        0.41560
C          4.19440        0.25550        0.09420
N          2.84850        0.03230       -0.02240
C          2.23890        1.22010       -0.39610
C          0.89530        1.62890       -0.65810
N         -0.34470        1.01850       -0.54570
C         -1.32310        1.89200       -0.96970
C         -2.72290        1.96740       -1.14160
N         -3.86790        1.20620       -1.02240
C         -4.92270        1.98910       -1.42650
C         -6.29250        1.82880       -1.54210
C         -4.10550       -0.06760       -0.38630
C         -4.27610        0.08250        1.12530
C         -0.67560       -0.31720       -0.12680
C         -0.79190       -1.26120       -1.32590
C          2.38930       -1.31100        0.25290
C          2.15180       -1.53050        1.74730
C          8.43190       -2.60260        1.30290
C          8.38190       -3.92720        1.67310
C          7.17500       -4.73880        1.81990
O          6.01780       -4.40520        1.62720
C          7.63180       -6.07480        2.25520
C          6.87300       -7.19210        2.53620
C          7.56070       -8.33060        2.92920
F          6.86430       -9.44410        3.21450
C          8.94230       -8.36300        3.03890
C          9.69190       -7.23150        2.75210
C          9.03380       -6.07620        2.35680
C          9.53160       -4.74830        1.99410
C         10.85410       -4.38450        1.96570
C         11.35540       -3.11450        1.61260
N         11.84780       -2.11300        1.33770
C         11.92110       -5.24970        2.28710
N         12.83760       -5.89520        2.53420
H         -8.36820        4.27620       -2.72060
H        -11.04990       -1.30390       -1.60880
H        -13.57660        2.66240       -3.24440
H          9.77720       -0.35740        0.24930
H          8.94800        1.18210       -0.01730
H         10.34770        1.25100        2.02960
H          8.63920        1.46140        2.42910
H          9.43470       -0.08880        2.72340
H         -6.85800        0.95270       -1.28540
H         -5.02740       -0.46790       -0.81510
H         -3.30180       -0.76320       -0.62470
H         -4.42980       -0.89150        1.58130
H         -3.40060        0.54770        1.57490
H         -5.13940        0.70700        1.34080
H          0.06240       -0.66420        0.58940
H         -1.62680       -0.26610        0.40470
H          0.13550       -1.28550       -1.89460
H         -1.57330       -0.91970       -2.00170
H         -1.02820       -2.26920       -0.99380
H          1.51390       -1.54780       -0.34360
H          3.18830       -1.98650       -0.06780
H          3.09400       -1.45490        2.28350
H          1.74400       -2.52330        1.91430
H          1.46880       -0.79010        2.16020
H          9.41910       -2.16310        1.26480
H          5.79780       -7.18150        2.45500
H          9.42380       -9.27680        3.34940
H         10.76480       -7.27000        2.84190
