
  xtb     02012219273D
 energy: -180.389587613242 gnorm: 0.000841677051 xtb: 6.4.1 (unknown)
 94105  0     0  0            999 V2000
   -5.4287    0.3077   -4.5755 C   0  0  0  0  0  0  0  0  0  0  0  0
   -6.6051    0.4298   -3.8624 C   0  0  0  0  0  0  0  0  0  0  0  0
   -6.7249    0.4362   -2.4158 C   0  0  0  0  0  0  0  0  0  0  0  0
   -5.8278    0.3057   -1.5908 O   0  0  0  0  0  0  0  0  0  0  0  0
   -8.1554    0.6293   -2.1135 C   0  0  0  0  0  0  0  0  0  0  0  0
   -8.7723    0.7186   -0.8829 C   0  0  0  0  0  0  0  0  0  0  0  0
  -10.1496    0.9047   -0.8504 C   0  0  0  0  0  0  0  0  0  0  0  0
  -10.9831    1.0273    0.6493 Cl  0  0  0  0  0  0  0  0  0  0  0  0
  -10.8561    0.9925   -2.0512 C   0  0  0  0  0  0  0  0  0  0  0  0
  -12.1818    1.1714   -2.0131 F   0  0  0  0  0  0  0  0  0  0  0  0
  -10.2406    0.9028   -3.2914 C   0  0  0  0  0  0  0  0  0  0  0  0
   -8.8682    0.7191   -3.3223 C   0  0  0  0  0  0  0  0  0  0  0  0
   -7.9255    0.5895   -4.4352 C   0  0  0  0  0  0  0  0  0  0  0  0
   -8.2698    0.6093   -5.7630 C   0  0  0  0  0  0  0  0  0  0  0  0
   -7.3781    0.4775   -6.8476 C   0  0  0  0  0  0  0  0  0  0  0  0
   -6.7177    0.3708   -7.7819 N   0  0  0  0  0  0  0  0  0  0  0  0
   -9.5915    0.7633   -6.2325 C   0  0  0  0  0  0  0  0  0  0  0  0
  -10.6415    0.8816   -6.6806 N   0  0  0  0  0  0  0  0  0  0  0  0
   -4.1092    0.1494   -4.1564 C   0  0  0  0  0  0  0  0  0  0  0  0
   -3.0365    0.0722   -5.0705 C   0  0  0  0  0  0  0  0  0  0  0  0
   -3.1625    0.1978   -6.5553 C   0  0  0  0  0  0  0  0  0  0  0  0
   -3.2025    1.6695   -6.9768 C   0  0  0  0  0  0  0  0  0  0  0  0
   -1.7994   -0.0835   -4.4632 C   0  0  0  0  0  0  0  0  0  0  0  0
   -0.2024   -0.2136   -5.1890 S   0  0  0  0  0  0  0  0  0  0  0  0
    0.4703   -0.3820   -3.6075 C   0  0  0  0  0  0  0  0  0  0  0  0
    1.7088   -0.5951   -2.9934 C   0  0  0  0  0  0  0  0  0  0  0  0
    2.9855   -0.7873   -3.5647 C   0  0  0  0  0  0  0  0  0  0  0  0
    4.0909   -1.0679   -2.7014 C   0  0  0  0  0  0  0  0  0  0  0  0
    5.2195   -1.2578   -3.3671 N   0  0  0  0  0  0  0  0  0  0  0  0
    4.9140   -1.0928   -4.9480 S   0  0  0  0  0  0  0  0  0  0  0  0
    3.3303   -0.7753   -4.8428 N   0  0  0  0  0  0  0  0  0  0  0  0
    3.8762   -1.0860   -1.3062 C   0  0  0  0  0  0  0  0  0  0  0  0
    4.7858   -1.2726   -0.2582 C   0  0  0  0  0  0  0  0  0  0  0  0
    6.4697   -1.5606   -0.0195 S   0  0  0  0  0  0  0  0  0  0  0  0
    6.2116   -1.4995    1.7118 C   0  0  0  0  0  0  0  0  0  0  0  0
    7.1228   -1.6610    2.7609 C   0  0  0  0  0  0  0  0  0  0  0  0
    8.5874   -1.8282    2.5310 C   0  0  0  0  0  0  0  0  0  0  0  0
    9.3023   -0.4829    2.6839 C   0  0  0  0  0  0  0  0  0  0  0  0
    6.5472   -1.5290    4.0211 C   0  0  0  0  0  0  0  0  0  0  0  0
    4.6725   -1.2169    3.9155 Se  0  0  0  0  0  2  0  0  0  0  0  0
    4.8733   -1.2687    2.0657 C   0  0  0  0  0  0  0  0  0  0  0  0
    4.0652   -1.1358    0.9329 C   0  0  0  0  0  0  0  0  0  0  0  0
    2.7531   -0.8679    0.6555 N   0  0  0  0  0  0  0  0  0  0  0  0
    2.5948   -0.8486   -0.7202 C   0  0  0  0  0  0  0  0  0  0  0  0
    1.4790   -0.6545   -1.5817 C   0  0  0  0  0  0  0  0  0  0  0  0
    0.1210   -0.5077   -1.3729 N   0  0  0  0  0  0  0  0  0  0  0  0
   -0.4850   -0.3309   -2.5868 C   0  0  0  0  0  0  0  0  0  0  0  0
   -1.7889   -0.1609   -3.0558 C   0  0  0  0  0  0  0  0  0  0  0  0
   -3.5054    0.0023   -2.3521 Se  0  0  0  0  0  2  0  0  0  0  0  0
   -0.7192   -0.6013   -0.2036 C   0  0  0  0  0  0  0  0  0  0  0  0
   -1.1249    0.7773    0.3172 C   0  0  0  0  0  0  0  0  0  0  0  0
    1.8797   -0.5364    1.7554 C   0  0  0  0  0  0  0  0  0  0  0  0
    1.3566   -1.7864    2.4631 C   0  0  0  0  0  0  0  0  0  0  0  0
    7.2041   -1.7505    5.2476 C   0  0  0  0  0  0  0  0  0  0  0  0
    6.8141   -1.4114    6.5117 C   0  0  0  0  0  0  0  0  0  0  0  0
    7.3471   -2.1798    7.6723 C   0  0  0  0  0  0  0  0  0  0  0  0
    8.2793   -2.9507    7.6621 O   0  0  0  0  0  0  0  0  0  0  0  0
    6.4519   -1.8285    8.7866 C   0  0  0  0  0  0  0  0  0  0  0  0
    6.2732   -2.1937   10.0805 C   0  0  0  0  0  0  0  0  0  0  0  0
    4.9673   -1.3163   10.7904 S   0  0  0  0  0  0  0  0  0  0  0  0
    4.6646   -0.4406    9.3345 C   0  0  0  0  0  0  0  0  0  0  0  0
    5.5270   -0.8205    8.3547 C   0  0  0  0  0  0  0  0  0  0  0  0
    5.8330   -0.4587    6.9841 C   0  0  0  0  0  0  0  0  0  0  0  0
    5.4637    0.7228    6.3861 C   0  0  0  0  0  0  0  0  0  0  0  0
    6.0419    1.1945    5.1927 C   0  0  0  0  0  0  0  0  0  0  0  0
    6.5368    1.6125    4.2437 N   0  0  0  0  0  0  0  0  0  0  0  0
    4.5401    1.5957    6.9905 C   0  0  0  0  0  0  0  0  0  0  0  0
    3.7695    2.3017    7.4655 N   0  0  0  0  0  0  0  0  0  0  0  0
   -5.5373    0.3475   -5.6512 H   0  0  0  0  0  0  0  0  0  0  0  0
   -8.1991    0.6466    0.0275 H   0  0  0  0  0  0  0  0  0  0  0  0
  -10.8477    0.9797   -4.1785 H   0  0  0  0  0  0  0  0  0  0  0  0
   -2.2920   -0.2772   -7.0128 H   0  0  0  0  0  0  0  0  0  0  0  0
   -4.0565   -0.3087   -6.9220 H   0  0  0  0  0  0  0  0  0  0  0  0
   -3.2860    1.7389   -8.0575 H   0  0  0  0  0  0  0  0  0  0  0  0
   -4.0558    2.1765   -6.5320 H   0  0  0  0  0  0  0  0  0  0  0  0
   -2.2937    2.1776   -6.6625 H   0  0  0  0  0  0  0  0  0  0  0  0
    9.0050   -2.5442    3.2419 H   0  0  0  0  0  0  0  0  0  0  0  0
    8.7430   -2.2104    1.5201 H   0  0  0  0  0  0  0  0  0  0  0  0
    9.1567   -0.0858    3.6857 H   0  0  0  0  0  0  0  0  0  0  0  0
   10.3671   -0.6036    2.5037 H   0  0  0  0  0  0  0  0  0  0  0  0
    8.9061    0.2368    1.9722 H   0  0  0  0  0  0  0  0  0  0  0  0
   -1.6308   -1.1355   -0.5054 H   0  0  0  0  0  0  0  0  0  0  0  0
   -0.2282   -1.1991    0.5584 H   0  0  0  0  0  0  0  0  0  0  0  0
   -1.7899    1.2626   -0.3965 H   0  0  0  0  0  0  0  0  0  0  0  0
   -0.2604    1.4224    0.4620 H   0  0  0  0  0  0  0  0  0  0  0  0
   -1.6550    0.6750    1.2598 H   0  0  0  0  0  0  0  0  0  0  0  0
    1.0738    0.1036    1.4091 H   0  0  0  0  0  0  0  0  0  0  0  0
    2.4739    0.0459    2.4733 H   0  0  0  0  0  0  0  0  0  0  0  0
    0.9033   -2.4840    1.7615 H   0  0  0  0  0  0  0  0  0  0  0  0
    2.1756   -2.3030    2.9622 H   0  0  0  0  0  0  0  0  0  0  0  0
    0.6209   -1.5069    3.2119 H   0  0  0  0  0  0  0  0  0  0  0  0
    8.0990   -2.3656    5.2022 H   0  0  0  0  0  0  0  0  0  0  0  0
    6.8183   -2.9095   10.6623 H   0  0  0  0  0  0  0  0  0  0  0  0
    3.8712    0.2792    9.3037 H   0  0  0  0  0  0  0  0  0  0  0  0
  1  2  2  0  0  0  0
  2  3  1  0  0  0  0
  3  4  2  0  0  0  0
  3  5  1  0  0  0  0
  5  6  2  0  0  0  0
  6  7  1  0  0  0  0
  7  8  1  0  0  0  0
  7  9  2  0  0  0  0
  9 10  1  0  0  0  0
  9 11  1  0  0  0  0
 11 12  2  0  0  0  0
 12 13  1  0  0  0  0
 13 14  2  0  0  0  0
 14 15  1  0  0  0  0
 15 16  3  0  0  0  0
 14 17  1  0  0  0  0
 17 18  3  0  0  0  0
  1 19  1  0  0  0  0
 19 20  2  0  0  0  0
 20 21  1  0  0  0  0
 21 22  1  0  0  0  0
 20 23  1  0  0  0  0
 23 24  1  0  0  0  0
 24 25  1  0  0  0  0
 25 26  1  0  0  0  0
 26 27  1  0  0  0  0
 27 28  1  0  0  0  0
 28 29  2  0  0  0  0
 29 30  1  0  0  0  0
 30 31  1  0  0  0  0
 28 32  1  0  0  0  0
 32 33  1  0  0  0  0
 33 34  1  0  0  0  0
 34 35  1  0  0  0  0
 35 36  1  0  0  0  0
 36 37  1  0  0  0  0
 37 38  1  0  0  0  0
 36 39  2  0  0  0  0
 39 40  1  0  0  0  0
 40 41  1  0  0  0  0
 41 42  1  0  0  0  0
 42 43  1  0  0  0  0
 43 44  1  0  0  0  0
 44 45  1  0  0  0  0
 45 46  1  0  0  0  0
 46 47  1  0  0  0  0
 47 48  1  0  0  0  0
 48 49  1  0  0  0  0
 46 50  1  0  0  0  0
 50 51  1  0  0  0  0
 43 52  1  0  0  0  0
 52 53  1  0  0  0  0
 39 54  1  0  0  0  0
 54 55  2  0  0  0  0
 55 56  1  0  0  0  0
 56 57  2  0  0  0  0
 56 58  1  0  0  0  0
 58 59  2  0  0  0  0
 59 60  1  0  0  0  0
 60 61  1  0  0  0  0
 61 62  2  0  0  0  0
 62 63  1  0  0  0  0
 63 64  2  0  0  0  0
 64 65  1  0  0  0  0
 65 66  3  0  0  0  0
 64 67  1  0  0  0  0
 67 68  3  0  0  0  0
 13  2  1  0  0  0  0
 49 19  1  0  0  0  0
 63 55  1  0  0  0  0
 12  5  1  0  0  0  0
 48 23  2  0  0  0  0
 62 58  1  0  0  0  0
 47 25  2  0  0  0  0
 45 26  2  0  0  0  0
 31 27  2  0  0  0  0
 44 32  2  0  0  0  0
 42 33  2  0  0  0  0
 41 35  2  0  0  0  0
  1 69  1  0  0  0  0
  6 70  1  0  0  0  0
 11 71  1  0  0  0  0
 21 72  1  0  0  0  0
 21 73  1  0  0  0  0
 22 74  1  0  0  0  0
 22 75  1  0  0  0  0
 22 76  1  0  0  0  0
 37 77  1  0  0  0  0
 37 78  1  0  0  0  0
 38 79  1  0  0  0  0
 38 80  1  0  0  0  0
 38 81  1  0  0  0  0
 50 82  1  0  0  0  0
 50 83  1  0  0  0  0
 51 84  1  0  0  0  0
 51 85  1  0  0  0  0
 51 86  1  0  0  0  0
 52 87  1  0  0  0  0
 52 88  1  0  0  0  0
 53 89  1  0  0  0  0
 53 90  1  0  0  0  0
 53 91  1  0  0  0  0
 54 92  1  0  0  0  0
 59 93  1  0  0  0  0
 61 94  1  0  0  0  0
M  END
