
  xtb     02012218293D
 energy: -196.279452167444 gnorm: 0.000501971443 xtb: 6.4.1 (unknown)
103115  0     0  0            999 V2000
    1.2189    8.5247    0.7385 C   0  0  0  0  0  0  0  0  0  0  0  0
    2.1112    8.6770    1.7805 C   0  0  0  0  0  0  0  0  0  0  0  0
    2.7571    7.6009    2.5112 C   0  0  0  0  0  0  0  0  0  0  0  0
    2.6173    6.3954    2.3426 O   0  0  0  0  0  0  0  0  0  0  0  0
    3.6298    8.2411    3.5141 C   0  0  0  0  0  0  0  0  0  0  0  0
    4.4540    7.6466    4.4471 C   0  0  0  0  0  0  0  0  0  0  0  0
    5.1905    8.4686    5.2926 C   0  0  0  0  0  0  0  0  0  0  0  0
    6.2379    7.7943    6.4784 Cl  0  0  0  0  0  0  0  0  0  0  0  0
    5.0740    9.8546    5.1717 C   0  0  0  0  0  0  0  0  0  0  0  0
    5.7872   10.6403    5.9871 F   0  0  0  0  0  0  0  0  0  0  0  0
    4.2457   10.4578    4.2364 C   0  0  0  0  0  0  0  0  0  0  0  0
    3.5121    9.6376    3.3954 C   0  0  0  0  0  0  0  0  0  0  0  0
    2.5640    9.9412    2.3221 C   0  0  0  0  0  0  0  0  0  0  0  0
    2.1922   11.2036    1.9351 C   0  0  0  0  0  0  0  0  0  0  0  0
    1.2770   11.5158    0.9083 C   0  0  0  0  0  0  0  0  0  0  0  0
    0.5449   11.8544    0.0896 N   0  0  0  0  0  0  0  0  0  0  0  0
    2.6830   12.3873    2.5258 C   0  0  0  0  0  0  0  0  0  0  0  0
    3.0416   13.3872    2.9607 N   0  0  0  0  0  0  0  0  0  0  0  0
    0.7000    7.3856    0.1253 C   0  0  0  0  0  0  0  0  0  0  0  0
   -0.2006    7.4693   -0.9580 C   0  0  0  0  0  0  0  0  0  0  0  0
   -0.6441    8.7388   -1.6123 C   0  0  0  0  0  0  0  0  0  0  0  0
    0.3987    9.2180   -2.6264 C   0  0  0  0  0  0  0  0  0  0  0  0
   -0.6099    6.2331   -1.4346 C   0  0  0  0  0  0  0  0  0  0  0  0
   -1.6955    5.8485   -2.7626 S   0  0  0  0  0  0  0  0  0  0  0  0
   -1.4551    4.1706   -2.4375 C   0  0  0  0  0  0  0  0  0  0  0  0
   -1.8448    2.9220   -2.9448 C   0  0  0  0  0  0  0  0  0  0  0  0
   -2.5668    2.5334   -4.0972 C   0  0  0  0  0  0  0  0  0  0  0  0
   -2.6514    1.1367   -4.4334 C   0  0  0  0  0  0  0  0  0  0  0  0
   -3.2841    0.9330   -5.5776 N   0  0  0  0  0  0  0  0  0  0  0  0
   -3.7439    2.3638   -6.1765 S   0  0  0  0  0  0  0  0  0  0  0  0
   -3.1488    3.3039   -5.0018 N   0  0  0  0  0  0  0  0  0  0  0  0
   -2.1446    0.1777   -3.5260 C   0  0  0  0  0  0  0  0  0  0  0  0
   -2.1927   -1.2262   -3.4924 C   0  0  0  0  0  0  0  0  0  0  0  0
   -2.7213   -2.5435   -4.4727 S   0  0  0  0  0  0  0  0  0  0  0  0
   -2.2397   -3.6552   -3.2085 C   0  0  0  0  0  0  0  0  0  0  0  0
   -2.3191   -5.0511   -3.1562 C   0  0  0  0  0  0  0  0  0  0  0  0
   -2.9480   -5.8581   -4.2423 C   0  0  0  0  0  0  0  0  0  0  0  0
   -4.4136   -6.1465   -3.9070 C   0  0  0  0  0  0  0  0  0  0  0  0
   -1.8734   -5.5844   -1.9506 C   0  0  0  0  0  0  0  0  0  0  0  0
   -1.2207   -4.2363   -0.7700 Se  0  0  0  0  0  2  0  0  0  0  0  0
   -1.6975   -3.0125   -2.0858 C   0  0  0  0  0  0  0  0  0  0  0  0
   -1.6700   -1.6273   -2.2547 C   0  0  0  0  0  0  0  0  0  0  0  0
   -1.2794   -0.5303   -1.5267 N   0  0  0  0  0  0  0  0  0  0  0  0
   -1.5342    0.5827   -2.3087 C   0  0  0  0  0  0  0  0  0  0  0  0
   -1.2378    1.9465   -2.1053 C   0  0  0  0  0  0  0  0  0  0  0  0
   -0.4514    2.5773   -1.1626 N   0  0  0  0  0  0  0  0  0  0  0  0
   -0.5894    3.9298   -1.3601 C   0  0  0  0  0  0  0  0  0  0  0  0
   -0.0912    5.0975   -0.7812 C   0  0  0  0  0  0  0  0  0  0  0  0
    1.0671    5.5706    0.5984 Se  0  0  0  0  0  2  0  0  0  0  0  0
    0.7453    2.0627   -0.5298 C   0  0  0  0  0  0  0  0  0  0  0  0
    1.9968    2.4508   -1.3160 C   0  0  0  0  0  0  0  0  0  0  0  0
   -1.2953   -0.5987   -0.0785 C   0  0  0  0  0  0  0  0  0  0  0  0
   -2.6876   -0.9477    0.4464 C   0  0  0  0  0  0  0  0  0  0  0  0
   -1.7803   -6.9573   -1.6474 C   0  0  0  0  0  0  0  0  0  0  0  0
   -1.6461   -7.5610   -0.4299 C   0  0  0  0  0  0  0  0  0  0  0  0
   -1.0625   -8.9232   -0.3406 C   0  0  0  0  0  0  0  0  0  0  0  0
   -0.8821   -9.6973   -1.2540 O   0  0  0  0  0  0  0  0  0  0  0  0
   -0.6993   -9.0939    1.0813 C   0  0  0  0  0  0  0  0  0  0  0  0
   -0.0236  -10.1167    1.6803 C   0  0  0  0  0  0  0  0  0  0  0  0
    0.2403  -10.0500    3.0673 C   0  0  0  0  0  0  0  0  0  0  0  0
    0.9339  -11.0801    3.7345 C   0  0  0  0  0  0  0  0  0  0  0  0
    1.1900  -11.0040    5.0755 C   0  0  0  0  0  0  0  0  0  0  0  0
    0.7504   -9.8794    5.7865 C   0  0  0  0  0  0  0  0  0  0  0  0
    1.0123   -9.8209    7.1052 F   0  0  0  0  0  0  0  0  0  0  0  0
    0.0733   -8.8529    5.1891 C   0  0  0  0  0  0  0  0  0  0  0  0
   -0.2006   -8.9156    3.8092 C   0  0  0  0  0  0  0  0  0  0  0  0
   -0.9071   -7.8737    3.1637 C   0  0  0  0  0  0  0  0  0  0  0  0
   -1.1565   -7.9655    1.8220 C   0  0  0  0  0  0  0  0  0  0  0  0
   -1.8790   -7.0814    0.9117 C   0  0  0  0  0  0  0  0  0  0  0  0
   -2.8289   -6.1616    1.2882 C   0  0  0  0  0  0  0  0  0  0  0  0
   -3.0756   -5.7860    2.6221 C   0  0  0  0  0  0  0  0  0  0  0  0
   -3.2978   -5.4254    3.6895 N   0  0  0  0  0  0  0  0  0  0  0  0
   -3.7207   -5.5678    0.3723 C   0  0  0  0  0  0  0  0  0  0  0  0
   -4.4875   -5.1022   -0.3456 N   0  0  0  0  0  0  0  0  0  0  0  0
    0.8519    9.4484    0.3111 H   0  0  0  0  0  0  0  0  0  0  0  0
    4.5235    6.5730    4.5168 H   0  0  0  0  0  0  0  0  0  0  0  0
    4.2036   11.5340    4.1977 H   0  0  0  0  0  0  0  0  0  0  0  0
   -0.8232    9.5248   -0.8773 H   0  0  0  0  0  0  0  0  0  0  0  0
   -1.5827    8.5438   -2.1354 H   0  0  0  0  0  0  0  0  0  0  0  0
    1.3488    9.4209   -2.1376 H   0  0  0  0  0  0  0  0  0  0  0  0
    0.5566    8.4621   -3.3923 H   0  0  0  0  0  0  0  0  0  0  0  0
    0.0548   10.1317   -3.1024 H   0  0  0  0  0  0  0  0  0  0  0  0
   -2.4133   -6.8007   -4.3738 H   0  0  0  0  0  0  0  0  0  0  0  0
   -2.8933   -5.2936   -5.1755 H   0  0  0  0  0  0  0  0  0  0  0  0
   -4.8716   -6.7249   -4.7048 H   0  0  0  0  0  0  0  0  0  0  0  0
   -4.9628   -5.2161   -3.7890 H   0  0  0  0  0  0  0  0  0  0  0  0
   -4.4883   -6.7055   -2.9774 H   0  0  0  0  0  0  0  0  0  0  0  0
    0.6937    0.9771   -0.4808 H   0  0  0  0  0  0  0  0  0  0  0  0
    0.8037    2.4773    0.4842 H   0  0  0  0  0  0  0  0  0  0  0  0
    2.1282    3.5308   -1.3318 H   0  0  0  0  0  0  0  0  0  0  0  0
    1.9257    2.0906   -2.3403 H   0  0  0  0  0  0  0  0  0  0  0  0
    2.8706    2.0073   -0.8475 H   0  0  0  0  0  0  0  0  0  0  0  0
   -1.0038    0.3645    0.3355 H   0  0  0  0  0  0  0  0  0  0  0  0
   -0.5763   -1.3662    0.2353 H   0  0  0  0  0  0  0  0  0  0  0  0
   -3.4123   -0.2097    0.1097 H   0  0  0  0  0  0  0  0  0  0  0  0
   -3.0066   -1.9294    0.1015 H   0  0  0  0  0  0  0  0  0  0  0  0
   -2.6744   -0.9549    1.5327 H   0  0  0  0  0  0  0  0  0  0  0  0
   -1.7160   -7.6322   -2.4969 H   0  0  0  0  0  0  0  0  0  0  0  0
    0.3067  -10.9681    1.1043 H   0  0  0  0  0  0  0  0  0  0  0  0
    1.2628  -11.9366    3.1654 H   0  0  0  0  0  0  0  0  0  0  0  0
    1.7196  -11.7832    5.6003 H   0  0  0  0  0  0  0  0  0  0  0  0
   -0.2539   -8.0038    5.7688 H   0  0  0  0  0  0  0  0  0  0  0  0
   -1.2249   -7.0223    3.7450 H   0  0  0  0  0  0  0  0  0  0  0  0
  1  2  2  0  0  0  0
  2  3  1  0  0  0  0
  3  4  2  0  0  0  0
  3  5  1  0  0  0  0
  5  6  2  0  0  0  0
  6  7  1  0  0  0  0
  7  8  1  0  0  0  0
  7  9  2  0  0  0  0
  9 10  1  0  0  0  0
  9 11  1  0  0  0  0
 11 12  2  0  0  0  0
 12 13  1  0  0  0  0
 13 14  2  0  0  0  0
 14 15  1  0  0  0  0
 15 16  3  0  0  0  0
 14 17  1  0  0  0  0
 17 18  3  0  0  0  0
  1 19  1  0  0  0  0
 19 20  2  0  0  0  0
 20 21  1  0  0  0  0
 21 22  1  0  0  0  0
 20 23  1  0  0  0  0
 23 24  1  0  0  0  0
 24 25  1  0  0  0  0
 25 26  1  0  0  0  0
 26 27  1  0  0  0  0
 27 28  1  0  0  0  0
 28 29  2  0  0  0  0
 29 30  1  0  0  0  0
 30 31  1  0  0  0  0
 28 32  1  0  0  0  0
 32 33  1  0  0  0  0
 33 34  1  0  0  0  0
 34 35  1  0  0  0  0
 35 36  1  0  0  0  0
 36 37  1  0  0  0  0
 37 38  1  0  0  0  0
 36 39  2  0  0  0  0
 39 40  1  0  0  0  0
 40 41  1  0  0  0  0
 41 42  1  0  0  0  0
 42 43  1  0  0  0  0
 43 44  1  0  0  0  0
 44 45  1  0  0  0  0
 45 46  1  0  0  0  0
 46 47  1  0  0  0  0
 47 48  1  0  0  0  0
 48 49  1  0  0  0  0
 46 50  1  0  0  0  0
 50 51  1  0  0  0  0
 43 52  1  0  0  0  0
 52 53  1  0  0  0  0
 39 54  1  0  0  0  0
 54 55  2  0  0  0  0
 55 56  1  0  0  0  0
 56 57  2  0  0  0  0
 56 58  1  0  0  0  0
 58 59  2  0  0  0  0
 59 60  1  0  0  0  0
 60 61  2  0  0  0  0
 61 62  1  0  0  0  0
 62 63  2  0  0  0  0
 63 64  1  0  0  0  0
 63 65  1  0  0  0  0
 65 66  2  0  0  0  0
 66 67  1  0  0  0  0
 67 68  2  0  0  0  0
 68 69  1  0  0  0  0
 69 70  2  0  0  0  0
 70 71  1  0  0  0  0
 71 72  3  0  0  0  0
 70 73  1  0  0  0  0
 73 74  3  0  0  0  0
 13  2  1  0  0  0  0
 49 19  1  0  0  0  0
 69 55  1  0  0  0  0
 12  5  1  0  0  0  0
 48 23  2  0  0  0  0
 68 58  1  0  0  0  0
 47 25  2  0  0  0  0
 66 60  1  0  0  0  0
 45 26  2  0  0  0  0
 31 27  2  0  0  0  0
 44 32  2  0  0  0  0
 42 33  2  0  0  0  0
 41 35  2  0  0  0  0
  1 75  1  0  0  0  0
  6 76  1  0  0  0  0
 11 77  1  0  0  0  0
 21 78  1  0  0  0  0
 21 79  1  0  0  0  0
 22 80  1  0  0  0  0
 22 81  1  0  0  0  0
 22 82  1  0  0  0  0
 37 83  1  0  0  0  0
 37 84  1  0  0  0  0
 38 85  1  0  0  0  0
 38 86  1  0  0  0  0
 38 87  1  0  0  0  0
 50 88  1  0  0  0  0
 50 89  1  0  0  0  0
 51 90  1  0  0  0  0
 51 91  1  0  0  0  0
 51 92  1  0  0  0  0
 52 93  1  0  0  0  0
 52 94  1  0  0  0  0
 53 95  1  0  0  0  0
 53 96  1  0  0  0  0
 53 97  1  0  0  0  0
 54 98  1  0  0  0  0
 59 99  1  0  0  0  0
 61100  1  0  0  0  0
 62101  1  0  0  0  0
 65102  1  0  0  0  0
 67103  1  0  0  0  0
M  END
