97

C          1.79870        2.82130       -7.54810
C          2.56740        1.90500       -8.23740
C          2.97080        0.59780       -7.75120
O          2.71990        0.09680       -6.66120
C          3.74830       -0.03150       -8.83540
C          4.33940       -1.27770       -8.86260
C          5.02360       -1.65590      -10.01230
Cl         5.78300       -3.19570      -10.11490
C          5.09000       -0.77150      -11.09050
F          5.74950       -1.14170      -12.19450
C          4.49760        0.48280      -11.06860
C          3.81600        0.85790       -9.92270
C          3.08970        2.08110       -9.57680
C          2.95250        3.17230      -10.39650
C          2.26030        4.35950      -10.07980
N          1.71880        5.35700       -9.89990
C          3.49930        3.25730      -11.69460
N          3.91600        3.39280      -12.75540
C          1.22770        2.77670       -6.27730
C          0.45240        3.84010       -5.76870
C          0.20020        5.13470       -6.47320
C          1.36990        6.10160       -6.26740
C         -0.03400        3.61090       -4.49020
S         -1.04210        4.63640       -3.47800
C         -1.00700        3.41460       -2.25920
C         -1.48010        3.19280       -0.96220
C         -2.22770        4.03760       -0.11280
C         -2.52460        3.59150        1.21290
N         -3.20290        4.48870        1.91070
S         -3.44850        5.78600        0.97320
N         -2.69710        5.25080       -0.35730
C         -2.10850        2.30010        1.60420
C         -2.32350        1.61230        2.80240
S         -3.07760        1.85260        4.33640
C         -2.63300        0.20910        4.77650
C         -2.87680       -0.48460        5.95250
C         -3.58400        0.16020        7.10160
C         -2.58100        0.74150        8.10220
C         -2.34710       -1.79210        5.95700
Se        -1.46860       -2.19920        4.31300
C         -1.92810       -0.47770        3.76740
C         -1.76090        0.34060        2.64770
N         -1.21430        0.22330        1.39880
C         -1.39010        1.42170        0.73210
C         -1.01910        1.90010       -0.55620
N         -0.25900        1.38460       -1.58950
C         -0.26150        2.28650       -2.61850
C          0.30470        2.38040       -3.89190
Se         1.35840        1.34250       -5.02540
C          0.55680        0.20200       -1.72610
C         -0.14770       -0.88440       -2.53790
C         -0.69620       -1.06440        1.00360
C          0.72110       -1.29330        1.52760
C         -2.47570       -2.63640        7.05860
C         -2.00530       -3.91320        7.29090
C         -1.21090       -4.70640        6.37020
O         -0.86330       -4.40550        5.23400
C         -0.89540       -5.96740        7.06740
C         -0.15090       -7.03880        6.61920
C          0.01590       -8.12550        7.47020
Cl         0.93530       -9.49300        6.97700
C         -0.57050       -8.09850        8.73690
F         -0.40480       -9.14680        9.55180
C         -1.32200       -7.02470        9.19190
C         -1.48620       -5.94240        8.34350
C         -2.19950       -4.67450        8.50750
C         -2.91820       -4.31450        9.61900
C         -3.05730       -5.12540       10.76550
N         -3.20920       -5.73270       11.72750
C         -3.62380       -3.10490        9.78750
N         -4.22330       -2.14810       10.00170
H          1.59040        3.73920       -8.08140
H          4.27060       -1.93910       -8.01400
H          4.58740        1.11430      -11.93720
H         -0.70480        5.58040       -6.05490
H          0.04010        4.98230       -7.54140
H          2.29120        5.68530       -6.66830
H          1.51140        6.30400       -5.20820
H          1.16560        7.03780       -6.77850
H         -4.23790       -0.54780        7.61290
H         -4.20250        0.97070        6.71020
H         -3.11350        1.20970        8.92490
H         -1.95550        1.48900        7.61950
H         -1.94020       -0.03900        8.50630
H          1.46490        0.49980       -2.26830
H          0.86280       -0.15240       -0.74620
H         -0.26410       -0.55860       -3.57090
H         -1.13720       -1.10410       -2.14180
H          0.44790       -1.79270       -2.53330
H         -1.35290       -1.82450        1.44870
H         -0.75630       -1.17270       -0.07550
H          1.12260       -2.21460        1.11540
H          1.38260       -0.46860        1.26940
H          0.70560       -1.38430        2.61310
H         -3.03330       -2.19690        7.87490
H          0.29000       -7.03070        5.63530
H         -1.74580       -7.07020       10.18170
