94

C         -5.42870        0.30770       -4.57550
C         -6.60510        0.42980       -3.86240
C         -6.72490        0.43620       -2.41580
O         -5.82780        0.30570       -1.59080
C         -8.15540        0.62930       -2.11350
C         -8.77230        0.71860       -0.88290
C        -10.14960        0.90470       -0.85040
Cl       -10.98310        1.02730        0.64930
C        -10.85610        0.99250       -2.05120
F        -12.18180        1.17140       -2.01310
C        -10.24060        0.90280       -3.29140
C         -8.86820        0.71910       -3.32230
C         -7.92550        0.58950       -4.43520
C         -8.26980        0.60930       -5.76300
C         -7.37810        0.47750       -6.84760
N         -6.71770        0.37080       -7.78190
C         -9.59150        0.76330       -6.23250
N        -10.64150        0.88160       -6.68060
C         -4.10920        0.14940       -4.15640
C         -3.03650        0.07220       -5.07050
C         -3.16250        0.19780       -6.55530
C         -3.20250        1.66950       -6.97680
C         -1.79940       -0.08350       -4.46320
S         -0.20240       -0.21360       -5.18900
C          0.47030       -0.38200       -3.60750
C          1.70880       -0.59510       -2.99340
C          2.98550       -0.78730       -3.56470
C          4.09090       -1.06790       -2.70140
N          5.21950       -1.25780       -3.36710
S          4.91400       -1.09280       -4.94800
N          3.33030       -0.77530       -4.84280
C          3.87620       -1.08600       -1.30620
C          4.78580       -1.27260       -0.25820
S          6.46970       -1.56060       -0.01950
C          6.21160       -1.49950        1.71180
C          7.12280       -1.66100        2.76090
C          8.58740       -1.82820        2.53100
C          9.30230       -0.48290        2.68390
C          6.54720       -1.52900        4.02110
Se         4.67250       -1.21690        3.91550
C          4.87330       -1.26870        2.06570
C          4.06520       -1.13580        0.93290
N          2.75310       -0.86790        0.65550
C          2.59480       -0.84860       -0.72020
C          1.47900       -0.65450       -1.58170
N          0.12100       -0.50770       -1.37290
C         -0.48500       -0.33090       -2.58680
C         -1.78890       -0.16090       -3.05580
Se        -3.50540        0.00230       -2.35210
C         -0.71920       -0.60130       -0.20360
C         -1.12490        0.77730        0.31720
C          1.87970       -0.53640        1.75540
C          1.35660       -1.78640        2.46310
C          7.20410       -1.75050        5.24760
C          6.81410       -1.41140        6.51170
C          7.34710       -2.17980        7.67230
O          8.27930       -2.95070        7.66210
C          6.45190       -1.82850        8.78660
C          6.27320       -2.19370       10.08050
S          4.96730       -1.31630       10.79040
C          4.66460       -0.44060        9.33450
C          5.52700       -0.82050        8.35470
C          5.83300       -0.45870        6.98410
C          5.46370        0.72280        6.38610
C          6.04190        1.19450        5.19270
N          6.53680        1.61250        4.24370
C          4.54010        1.59570        6.99050
N          3.76950        2.30170        7.46550
H         -5.53730        0.34750       -5.65120
H         -8.19910        0.64660        0.02750
H        -10.84770        0.97970       -4.17850
H         -2.29200       -0.27720       -7.01280
H         -4.05650       -0.30870       -6.92200
H         -3.28600        1.73890       -8.05750
H         -4.05580        2.17650       -6.53200
H         -2.29370        2.17760       -6.66250
H          9.00500       -2.54420        3.24190
H          8.74300       -2.21040        1.52010
H          9.15670       -0.08580        3.68570
H         10.36710       -0.60360        2.50370
H          8.90610        0.23680        1.97220
H         -1.63080       -1.13550       -0.50540
H         -0.22820       -1.19910        0.55840
H         -1.78990        1.26260       -0.39650
H         -0.26040        1.42240        0.46200
H         -1.65500        0.67500        1.25980
H          1.07380        0.10360        1.40910
H          2.47390        0.04590        2.47330
H          0.90330       -2.48400        1.76150
H          2.17560       -2.30300        2.96220
H          0.62090       -1.50690        3.21190
H          8.09900       -2.36560        5.20220
H          6.81830       -2.90950       10.66230
H          3.87120        0.27920        9.30370
