
  xtb     02012218533D
 energy: -195.110346969786 gnorm: 0.000663204067 xtb: 6.4.1 (unknown)
 97108  0     0  0            999 V2000
   -6.4689   -1.7988   -5.0480 C   0  0  0  0  0  0  0  0  0  0  0  0
   -7.6498   -2.4805   -4.9101 C   0  0  0  0  0  0  0  0  0  0  0  0
   -8.2121   -2.9150   -3.6120 C   0  0  0  0  0  0  0  0  0  0  0  0
   -7.8446   -2.6154   -2.4969 O   0  0  0  0  0  0  0  0  0  0  0  0
   -9.2657   -3.8981   -3.9574 C   0  0  0  0  0  0  0  0  0  0  0  0
  -10.0661   -4.6239   -3.0995 C   0  0  0  0  0  0  0  0  0  0  0  0
  -10.9915   -5.5045   -3.6477 C   0  0  0  0  0  0  0  0  0  0  0  0
  -12.0247   -6.4346   -2.6356 Cl  0  0  0  0  0  0  0  0  0  0  0  0
  -11.0774   -5.6314   -5.0363 C   0  0  0  0  0  0  0  0  0  0  0  0
  -11.9648   -6.4874   -5.5562 F   0  0  0  0  0  0  0  0  0  0  0  0
  -10.2757   -4.9063   -5.9043 C   0  0  0  0  0  0  0  0  0  0  0  0
   -9.3576   -4.0260   -5.3540 C   0  0  0  0  0  0  0  0  0  0  0  0
   -8.3864   -3.1293   -5.9731 C   0  0  0  0  0  0  0  0  0  0  0  0
   -8.2602   -2.8791   -7.3148 C   0  0  0  0  0  0  0  0  0  0  0  0
   -7.3812   -1.9215   -7.8636 C   0  0  0  0  0  0  0  0  0  0  0  0
   -6.7067   -1.1403   -8.3665 N   0  0  0  0  0  0  0  0  0  0  0  0
   -9.0212   -3.5226   -8.3125 C   0  0  0  0  0  0  0  0  0  0  0  0
   -9.6071   -4.0186   -9.1655 N   0  0  0  0  0  0  0  0  0  0  0  0
   -5.8092   -1.0655   -4.0418 C   0  0  0  0  0  0  0  0  0  0  0  0
   -6.3204   -0.2727   -3.0231 C   0  0  0  0  0  0  0  0  0  0  0  0
   -7.7445    0.1658   -2.9315 C   0  0  0  0  0  0  0  0  0  0  0  0
   -7.8721    1.6833   -3.0796 C   0  0  0  0  0  0  0  0  0  0  0  0
   -5.3266    0.2133   -2.1599 C   0  0  0  0  0  0  0  0  0  0  0  0
   -5.4698    1.1743   -0.7031 S   0  0  0  0  0  0  0  0  0  0  0  0
   -3.7602    1.0862   -0.4952 C   0  0  0  0  0  0  0  0  0  0  0  0
   -2.7673    1.5607    0.3738 C   0  0  0  0  0  0  0  0  0  0  0  0
   -2.8456    2.4453    1.4722 C   0  0  0  0  0  0  0  0  0  0  0  0
   -1.6343    2.8502    2.1220 C   0  0  0  0  0  0  0  0  0  0  0  0
   -1.8487    3.7226    3.0938 N   0  0  0  0  0  0  0  0  0  0  0  0
   -3.4395    4.0066    3.1865 S   0  0  0  0  0  0  0  0  0  0  0  0
   -3.9159    3.0279    1.9893 N   0  0  0  0  0  0  0  0  0  0  0  0
   -0.4170    2.2531    1.7247 C   0  0  0  0  0  0  0  0  0  0  0  0
    0.8624    2.3219    2.2863 C   0  0  0  0  0  0  0  0  0  0  0  0
    1.6837    3.1293    3.5712 S   0  0  0  0  0  0  0  0  0  0  0  0
    3.1181    2.1794    3.2090 C   0  0  0  0  0  0  0  0  0  0  0  0
    4.3501    2.1733    3.8420 C   0  0  0  0  0  0  0  0  0  0  0  0
    4.6501    3.1139    4.9647 C   0  0  0  0  0  0  0  0  0  0  0  0
    5.3477    4.3734    4.4419 C   0  0  0  0  0  0  0  0  0  0  0  0
    5.2666    1.2524    3.2858 C   0  0  0  0  0  0  0  0  0  0  0  0
    4.5017    0.3045    1.8149 Se  0  0  0  0  0  2  0  0  0  0  0  0
    2.9521    1.2905    2.1252 C   0  0  0  0  0  0  0  0  0  0  0  0
    1.6614    1.3938    1.6045 C   0  0  0  0  0  0  0  0  0  0  0  0
    0.9229    0.7763    0.6292 N   0  0  0  0  0  0  0  0  0  0  0  0
   -0.3538    1.2982    0.6637 C   0  0  0  0  0  0  0  0  0  0  0  0
   -1.5235    1.0508   -0.1003 C   0  0  0  0  0  0  0  0  0  0  0  0
   -1.7615    0.3216   -1.2561 N   0  0  0  0  0  0  0  0  0  0  0  0
   -3.1125    0.3502   -1.4924 C   0  0  0  0  0  0  0  0  0  0  0  0
   -3.9998   -0.1402   -2.4560 C   0  0  0  0  0  0  0  0  0  0  0  0
   -3.9022   -1.1433   -4.0198 Se  0  0  0  0  0  2  0  0  0  0  0  0
   -0.8930    0.0450   -2.3787 C   0  0  0  0  0  0  0  0  0  0  0  0
   -0.8309    1.2392   -3.3297 C   0  0  0  0  0  0  0  0  0  0  0  0
    1.4522   -0.4025   -0.0160 C   0  0  0  0  0  0  0  0  0  0  0  0
    2.4297   -0.0521   -1.1381 C   0  0  0  0  0  0  0  0  0  0  0  0
    6.5503    1.0928    3.7976 C   0  0  0  0  0  0  0  0  0  0  0  0
    7.5929    0.2656    3.4203 C   0  0  0  0  0  0  0  0  0  0  0  0
    7.5652   -0.6733    2.3145 C   0  0  0  0  0  0  0  0  0  0  0  0
    6.6392   -0.8895    1.5453 O   0  0  0  0  0  0  0  0  0  0  0  0
    8.8895   -1.3305    2.2976 C   0  0  0  0  0  0  0  0  0  0  0  0
    9.6739   -0.8125    3.3448 C   0  0  0  0  0  0  0  0  0  0  0  0
   10.9624   -1.2729    3.5492 C   0  0  0  0  0  0  0  0  0  0  0  0
   11.4505   -2.2520    2.6937 C   0  0  0  0  0  0  0  0  0  0  0  0
   12.6910   -2.7103    2.8746 F   0  0  0  0  0  0  0  0  0  0  0  0
   10.6871   -2.7725    1.6518 C   0  0  0  0  0  0  0  0  0  0  0  0
   11.1934   -3.7131    0.8499 F   0  0  0  0  0  0  0  0  0  0  0  0
    9.3863   -2.3046    1.4510 C   0  0  0  0  0  0  0  0  0  0  0  0
    8.6578   -2.8031    0.4562 F   0  0  0  0  0  0  0  0  0  0  0  0
    8.8840    0.1933    4.0632 C   0  0  0  0  0  0  0  0  0  0  0  0
    9.3280    0.9101    5.1463 C   0  0  0  0  0  0  0  0  0  0  0  0
   10.6145    0.7807    5.7110 C   0  0  0  0  0  0  0  0  0  0  0  0
   11.6424    0.7261    6.2186 N   0  0  0  0  0  0  0  0  0  0  0  0
    8.5827    1.8756    5.8550 C   0  0  0  0  0  0  0  0  0  0  0  0
    8.0444    2.6716    6.4852 N   0  0  0  0  0  0  0  0  0  0  0  0
   -5.9341   -1.8917   -5.9883 H   0  0  0  0  0  0  0  0  0  0  0  0
   -9.9748   -4.5072   -2.0314 H   0  0  0  0  0  0  0  0  0  0  0  0
  -10.3870   -5.0540   -6.9662 H   0  0  0  0  0  0  0  0  0  0  0  0
   -8.1445   -0.1493   -1.9650 H   0  0  0  0  0  0  0  0  0  0  0  0
   -8.3308   -0.3151   -3.7139 H   0  0  0  0  0  0  0  0  0  0  0  0
   -8.9216    1.9640   -3.0521 H   0  0  0  0  0  0  0  0  0  0  0  0
   -7.4539    2.0049   -4.0313 H   0  0  0  0  0  0  0  0  0  0  0  0
   -7.3570    2.2044   -2.2779 H   0  0  0  0  0  0  0  0  0  0  0  0
    5.2747    2.6428    5.7249 H   0  0  0  0  0  0  0  0  0  0  0  0
    3.7057    3.4008    5.4320 H   0  0  0  0  0  0  0  0  0  0  0  0
    6.2904    4.1220    3.9613 H   0  0  0  0  0  0  0  0  0  0  0  0
    5.5518    5.0488    5.2675 H   0  0  0  0  0  0  0  0  0  0  0  0
    4.7145    4.8839    3.7199 H   0  0  0  0  0  0  0  0  0  0  0  0
    0.1062   -0.2040   -2.0445 H   0  0  0  0  0  0  0  0  0  0  0  0
   -1.3107   -0.8237   -2.9035 H   0  0  0  0  0  0  0  0  0  0  0  0
   -1.8191    1.4655   -3.7248 H   0  0  0  0  0  0  0  0  0  0  0  0
   -0.4556    2.1184   -2.8097 H   0  0  0  0  0  0  0  0  0  0  0  0
   -0.1701    1.0133   -4.1617 H   0  0  0  0  0  0  0  0  0  0  0  0
    0.6244   -1.0245   -0.3601 H   0  0  0  0  0  0  0  0  0  0  0  0
    1.9979   -0.9753    0.7462 H   0  0  0  0  0  0  0  0  0  0  0  0
    3.3414    0.3704   -0.7162 H   0  0  0  0  0  0  0  0  0  0  0  0
    2.6977   -0.9494   -1.6887 H   0  0  0  0  0  0  0  0  0  0  0  0
    2.0092    0.6780   -1.8261 H   0  0  0  0  0  0  0  0  0  0  0  0
    6.7599    1.7331    4.6440 H   0  0  0  0  0  0  0  0  0  0  0  0
   11.6009   -0.9097    4.3372 H   0  0  0  0  0  0  0  0  0  0  0  0
  1  2  2  0  0  0  0
  2  3  1  0  0  0  0
  3  4  2  0  0  0  0
  3  5  1  0  0  0  0
  5  6  2  0  0  0  0
  6  7  1  0  0  0  0
  7  8  1  0  0  0  0
  7  9  2  0  0  0  0
  9 10  1  0  0  0  0
  9 11  1  0  0  0  0
 11 12  2  0  0  0  0
 12 13  1  0  0  0  0
 13 14  2  0  0  0  0
 14 15  1  0  0  0  0
 15 16  3  0  0  0  0
 14 17  1  0  0  0  0
 17 18  3  0  0  0  0
  1 19  1  0  0  0  0
 19 20  2  0  0  0  0
 20 21  1  0  0  0  0
 21 22  1  0  0  0  0
 20 23  1  0  0  0  0
 23 24  1  0  0  0  0
 24 25  1  0  0  0  0
 25 26  1  0  0  0  0
 26 27  1  0  0  0  0
 27 28  1  0  0  0  0
 28 29  2  0  0  0  0
 29 30  1  0  0  0  0
 30 31  1  0  0  0  0
 28 32  1  0  0  0  0
 32 33  1  0  0  0  0
 33 34  1  0  0  0  0
 34 35  1  0  0  0  0
 35 36  1  0  0  0  0
 36 37  1  0  0  0  0
 37 38  1  0  0  0  0
 36 39  2  0  0  0  0
 39 40  1  0  0  0  0
 40 41  1  0  0  0  0
 41 42  1  0  0  0  0
 42 43  1  0  0  0  0
 43 44  1  0  0  0  0
 44 45  1  0  0  0  0
 45 46  1  0  0  0  0
 46 47  1  0  0  0  0
 47 48  1  0  0  0  0
 48 49  1  0  0  0  0
 46 50  1  0  0  0  0
 50 51  1  0  0  0  0
 43 52  1  0  0  0  0
 52 53  1  0  0  0  0
 39 54  1  0  0  0  0
 54 55  2  0  0  0  0
 55 56  1  0  0  0  0
 56 57  2  0  0  0  0
 56 58  1  0  0  0  0
 58 59  2  0  0  0  0
 59 60  1  0  0  0  0
 60 61  2  0  0  0  0
 61 62  1  0  0  0  0
 61 63  1  0  0  0  0
 63 64  1  0  0  0  0
 63 65  2  0  0  0  0
 65 66  1  0  0  0  0
 59 67  1  0  0  0  0
 67 68  2  0  0  0  0
 68 69  1  0  0  0  0
 69 70  3  0  0  0  0
 68 71  1  0  0  0  0
 71 72  3  0  0  0  0
 13  2  1  0  0  0  0
 49 19  1  0  0  0  0
 67 55  1  0  0  0  0
 12  5  1  0  0  0  0
 48 23  2  0  0  0  0
 65 58  1  0  0  0  0
 47 25  2  0  0  0  0
 45 26  2  0  0  0  0
 31 27  2  0  0  0  0
 44 32  2  0  0  0  0
 42 33  2  0  0  0  0
 41 35  2  0  0  0  0
  1 73  1  0  0  0  0
  6 74  1  0  0  0  0
 11 75  1  0  0  0  0
 21 76  1  0  0  0  0
 21 77  1  0  0  0  0
 22 78  1  0  0  0  0
 22 79  1  0  0  0  0
 22 80  1  0  0  0  0
 37 81  1  0  0  0  0
 37 82  1  0  0  0  0
 38 83  1  0  0  0  0
 38 84  1  0  0  0  0
 38 85  1  0  0  0  0
 50 86  1  0  0  0  0
 50 87  1  0  0  0  0
 51 88  1  0  0  0  0
 51 89  1  0  0  0  0
 51 90  1  0  0  0  0
 52 91  1  0  0  0  0
 52 92  1  0  0  0  0
 53 93  1  0  0  0  0
 53 94  1  0  0  0  0
 53 95  1  0  0  0  0
 54 96  1  0  0  0  0
 60 97  1  0  0  0  0
M  END
