64

C         -3.32440       -2.56090       -0.29310
C         -3.42300       -2.92780        1.02370
C         -2.47070       -2.57040        2.08210
O         -1.49140       -1.85460        1.98860
C         -2.93800       -3.26110        3.30010
C         -2.36800       -3.25980        4.55700
C         -2.98850       -3.99240        5.56210
Cl        -2.33420       -4.03570        7.15020
C         -4.15780       -4.70000        5.26910
F         -4.74890       -5.40450        6.23950
C         -4.73560       -4.70420        4.00890
C         -4.11540       -3.97210        3.00820
C         -4.45770       -3.76750        1.60190
C         -5.57320       -4.26230        0.98040
C         -5.93480       -4.03910       -0.36570
N         -6.30590       -3.89760       -1.44320
C         -6.54350       -5.06480        1.62000
N         -7.36740       -5.71840        2.07850
C         -2.37570       -1.75410       -0.94150
C         -2.42600       -1.51860       -2.32010
C         -1.43160       -0.67800       -2.77870
C         -1.14230       -0.31700       -4.20910
N         -0.38720       -1.42380       -4.77100
C          0.43800       -1.17400       -5.69410
C          0.64600        0.17930       -6.22030
N          0.24320        1.21490       -5.61750
C         -0.41220        1.04020       -4.33650
C          0.61470        1.23950       -3.25140
C          0.48650        0.60910       -2.01950
C         -0.58820       -0.26380       -1.74580
S         -1.02910       -0.91290       -0.21350
S          1.76230        1.03600       -0.94220
C          2.48590        2.06590       -2.15500
C          1.72350        2.07530       -3.31320
C          3.63270        2.85820       -1.91720
C          4.58660        2.72920       -0.95540
C          5.41090        3.90730       -0.57180
O          5.52390        4.94570       -1.17660
C          6.00180        3.54480        0.73720
C          6.74410        4.33300        1.59510
C          7.16250        3.76720        2.78890
F          7.88030        4.49550        3.65070
C          6.84030        2.44580        3.10510
F          7.24610        1.93430        4.27090
C          6.10470        1.64950        2.24000
C          5.68410        2.20920        1.04480
C          4.93910        1.63510       -0.07440
C          4.86090        0.30240       -0.37580
C          4.40590       -0.17660       -1.62330
N          4.09480       -0.58980       -2.64760
C          5.32230       -0.72280        0.47580
N          5.67210       -1.58690        1.14420
H         -4.08040       -2.94530       -0.96690
H         -1.46420       -2.70440        4.75010
H         -5.63740       -5.27320        3.85260
H         -3.17700       -1.96340       -2.94850
H         -2.08850       -0.27760       -4.76700
H          1.00190       -2.00070       -6.10500
H          1.15180        0.31290       -7.16750
H         -1.14610        1.85520       -4.25430
H          1.98580        2.64960       -4.18330
H          3.72050        3.74490       -2.53830
H          6.99260        5.35350        1.35090
H          5.87510        0.63570        2.52550
