115

C          4.59700        6.02400        4.15620
C          3.82350        6.96160        4.77830
C          4.34000        7.68960        5.96180
O          5.48120        7.72450        6.36010
C          3.14330        8.31260        6.57840
C          3.04840        9.00540        7.76800
C          1.80080        9.47880        8.15820
Cl         1.61390       10.34650        9.63160
C          0.69070        9.24420        7.34330
F         -0.50860        9.69180        7.73420
C          0.77920        8.56040        6.14070
C          2.02350        8.08920        5.75670
C          2.45730        7.37860        4.55640
C          1.79830        7.38110        3.35390
C          2.40030        6.96710        2.14740
N          2.88030        6.68870        1.14230
C          0.49460        7.88300        3.17290
N         -0.57310        8.25800        2.98100
C          4.19360        4.95280        3.33450
S          2.57860        4.25980        3.41330
C          3.00550        3.11120        2.22260
C          2.36030        2.01470        1.57680
C          3.29490        1.47260        0.66520
C          4.60010        2.24970        0.69160
C          4.31320        3.25730        1.77080
C          4.99740        4.26570        2.43070
C          4.76940        2.93530       -0.68380
C          5.88640        3.96730       -0.75750
C          5.79950        1.35280        1.03370
C          5.60500        0.59060        2.33960
C          2.94010        0.41620       -0.14030
C          1.65530       -0.10340       -0.00030
C          1.00870       -1.16310       -0.74030
C         -0.30260       -1.31900       -0.25070
C         -0.57320       -0.34050        0.87360
C         -0.85260       -1.16150        2.15110
C         -1.07490       -0.35960        3.42660
C         -1.68000        0.67900        0.53000
C         -3.08690        0.12050        0.36080
C          0.74230        0.40760        0.94340
C          1.07890        1.49190        1.72380
C         -1.12660       -2.29010       -0.77380
C         -0.62780       -3.06160       -1.82020
C         -1.26400       -4.07460       -2.59890
C         -0.38700       -4.55220       -3.57760
C          0.95190       -3.86380       -3.47090
C          0.68630       -2.90520       -2.31930
C          1.50930       -1.94250       -1.78070
C          2.00350       -4.93790       -3.11930
C          3.42670       -4.43640       -2.91400
C          1.29250       -3.04180       -4.72910
C          1.51200       -3.85650       -5.99680
C         -0.95810       -5.54630       -4.33920
C         -2.28690       -5.81940       -3.97180
S         -2.79970       -4.81650       -2.62240
C         -3.05390       -6.77300       -4.64760
C         -4.35220       -7.18430       -4.45830
C         -5.25820       -6.69900       -3.41120
O         -5.02890       -5.85500       -2.56660
C         -6.51650       -7.45380       -3.58830
C         -7.70060       -7.40670       -2.87620
F         -7.84820       -6.57820       -1.83730
C         -8.76100       -8.22930       -3.23670
C         -8.62100       -9.09230       -4.30910
C         -7.44060       -9.15680       -5.04020
C         -6.38700       -8.33430       -4.67830
C         -5.04570       -8.17750       -5.24760
C         -4.57470       -8.85430       -6.34420
C         -3.29740       -8.70390       -6.92330
N         -2.28450       -8.64450       -7.46310
C         -5.31560       -9.81000       -7.07060
N         -5.85270      -10.59730       -7.71100
H          5.65740        6.07040        4.38640
H          3.92140        9.17480        8.37770
H         -0.11270        8.40840        5.55430
H          6.02470        4.53750        2.26820
H          3.82550        3.42600       -0.93280
H          4.94510        2.15440       -1.42670
H          6.84740        3.53680       -0.48830
H          5.67570        4.80810       -0.10270
H          5.95920        4.34490       -1.77470
H          6.69410        1.97160        1.11190
H          5.94940        0.64310        0.21780
H          4.72890       -0.05190        2.28440
H          5.47290        1.27910        3.17130
H          6.47460       -0.02940        2.54370
H          3.62650        0.00250       -0.86340
H         -1.72790       -1.78530        1.96450
H         -0.00290       -1.83360        2.30120
H         -1.32820       -1.03970        4.23720
H         -1.89170        0.34800        3.31430
H         -0.17570        0.17940        3.71160
H         -1.38620        1.18110       -0.39590
H         -1.69280        1.43560        1.31600
H         -3.78260        0.94550        0.22280
H         -3.15360       -0.52000       -0.51360
H         -3.40180       -0.44070        1.23620
H          0.38980        1.94680        2.41780
H         -2.12600       -2.46800       -0.41070
H          2.50880       -1.77430       -2.14950
H          1.99700       -5.68330       -3.91630
H          1.67070       -5.43670       -2.20510
H          3.78930       -3.90010       -3.78670
H          4.08450       -5.28620       -2.74410
H          3.48930       -3.78650       -2.04590
H          2.18520       -2.45000       -4.52140
H          0.47050       -2.34040       -4.89550
H          1.75450       -3.18640       -6.81880
H          0.61470       -4.40590       -6.26610
H          2.33280       -4.55880       -5.88140
H         -0.47940       -6.08750       -5.13600
H         -2.51170       -7.25320       -5.45340
H         -9.67890       -8.18170       -2.67250
H         -9.44650       -9.73010       -4.58490
H         -7.36360       -9.84010       -5.86910
