103

C          7.96930        1.28860       -3.51170
C          8.66980        2.29910       -4.11540
C          8.12760        3.65620       -4.33980
O          7.04640        4.08890       -4.00540
C          9.11770        4.33350       -5.20840
C          9.08200        5.62270       -5.69850
C         10.12440        6.04660       -6.51440
Cl        10.14830        7.64500       -7.14930
C         11.16010        5.16010       -6.81840
F         12.15710        5.57340       -7.60980
C         11.19880        3.86140       -6.33510
C         10.16140        3.44400       -5.51620
C          9.90970        2.17020       -4.84740
C         10.74500        1.08230       -4.85030
C         10.51890       -0.10160       -4.11760
N         10.40730       -1.08360       -3.53280
C         11.95360        1.01730       -5.57360
N         12.94160        0.90670       -6.14750
C          6.88980        1.42420       -2.61310
C          6.68810        2.31380       -1.56490
C          7.67830        3.33590       -1.10200
C          7.11030        4.75570       -1.11060
C          5.51490        2.04780       -0.84190
S          4.83970        2.86680        0.55170
C          3.51220        1.76690        0.53820
C          2.30970        1.53960        1.22330
C          1.67700        2.28330        2.24320
C          0.36550        1.89390        2.66970
N         -0.13130        2.70980        3.58640
S          0.96010        3.86540        3.88960
N          2.10860        3.37110        2.86230
C         -0.19790        0.71200        2.14170
C         -1.38030        0.03460        2.47180
S         -2.74790        0.21740        3.50640
C         -3.33060       -1.34990        2.98960
C         -4.51290       -2.02980        3.32620
C         -5.42550       -1.56590        4.41290
C         -4.69600       -1.46280        5.75350
C         -4.65540       -3.23100        2.64940
Se        -3.14430       -3.63940        1.56200
C         -2.48260       -1.97100        2.05850
C         -1.37640       -1.16760        1.75780
N         -0.24870       -1.24440        0.98410
C          0.48580       -0.08880        1.17990
C          1.70000        0.39750        0.62690
N          2.50930       -0.03420       -0.41410
C          3.59420        0.80470       -0.47230
C          4.73530        0.95850       -1.26570
Se         5.53170        0.08690       -2.70280
C          2.17670       -0.77570       -1.60960
C          1.41380        0.10050       -2.60090
C          0.10840       -2.50650        0.38160
C         -0.63200       -2.74480       -0.93440
C         -5.71830       -4.15970        2.64000
C         -7.05240       -3.85750        2.65550
C         -7.61010       -2.53800        2.27840
O         -7.01330       -1.50100        2.08230
C         -9.05640       -2.77540        2.07470
C        -10.01930       -1.87690        1.67330
C        -11.33050       -2.33560        1.54170
O        -12.24560       -1.40650        1.09190
C        -13.54860       -1.41990        1.45400
O        -14.03580       -2.20260        2.21830
C        -14.26860       -0.28830        0.77610
C        -11.64680       -3.66680        1.79690
C        -10.66890       -4.56410        2.20250
C         -9.36370       -4.12090        2.34530
C         -8.14050       -4.81000        2.74150
C         -8.04750       -6.10090        3.19150
C         -9.13710       -6.99290        3.26690
N         -9.98180       -7.76720        3.33430
C         -6.85800       -6.69230        3.66640
N         -5.92920       -7.22220        4.08540
H          8.22680        0.26660       -3.77240
H          8.26720        6.28380       -5.45010
H         12.02320        3.22510       -6.61290
H          8.57230        3.29240       -1.72520
H          7.96460        3.07760       -0.07710
H          6.28580        4.84560       -0.40900
H          6.75240        5.00960       -2.10400
H          7.88730        5.46040       -0.82530
H         -6.25770       -2.26190        4.51660
H         -5.83180       -0.59090        4.13360
H         -4.26900       -2.42610        6.02520
H         -5.39870       -1.16680        6.52800
H         -3.89870       -0.72630        5.71440
H          3.12550       -1.09800       -2.05670
H          1.60120       -1.66280       -1.37480
H          1.17520       -0.47020       -3.49400
H          0.48980        0.46350       -2.15460
H          2.01690        0.95860       -2.88910
H         -0.17930       -3.29770        1.08740
H          1.19240       -2.55470        0.26700
H         -0.51950       -1.90620       -1.61630
H         -1.69570       -2.87670       -0.74050
H         -0.25820       -3.64620       -1.41230
H         -5.43100       -5.19980        2.51930
H         -9.77260       -0.84780        1.46540
H        -14.03400       -0.28270       -0.28490
H        -13.93090        0.65380        1.20320
H        -15.33790       -0.39290        0.93020
H        -12.66250       -4.00860        1.68300
H        -10.93950       -5.59070        2.38820
