
  xtb     02012218413D
 energy: -196.827357433812 gnorm: 0.000293302951 xtb: 6.4.1 (unknown)
115125  0     0  0            999 V2000
   -1.4790   -4.3561   -6.9182 C   0  0  0  0  0  0  0  0  0  0  0  0
   -0.6972   -4.1773   -8.0365 C   0  0  0  0  0  0  0  0  0  0  0  0
    0.6508   -3.6059   -8.0587 C   0  0  0  0  0  0  0  0  0  0  0  0
    1.3372   -3.2639   -7.1132 O   0  0  0  0  0  0  0  0  0  0  0  0
    1.0339   -3.5212   -9.4842 C   0  0  0  0  0  0  0  0  0  0  0  0
    2.1993   -3.0231  -10.0286 C   0  0  0  0  0  0  0  0  0  0  0  0
    2.3350   -3.0315  -11.4118 C   0  0  0  0  0  0  0  0  0  0  0  0
    3.7591   -2.4208  -12.1584 Cl  0  0  0  0  0  0  0  0  0  0  0  0
    1.2985   -3.5404  -12.1968 C   0  0  0  0  0  0  0  0  0  0  0  0
    1.4334   -3.5427  -13.5286 F   0  0  0  0  0  0  0  0  0  0  0  0
    0.1261   -4.0450  -11.6544 C   0  0  0  0  0  0  0  0  0  0  0  0
   -0.0077   -4.0347  -10.2751 C   0  0  0  0  0  0  0  0  0  0  0  0
   -1.0951   -4.4708   -9.3984 C   0  0  0  0  0  0  0  0  0  0  0  0
   -2.2643   -5.0464   -9.8259 C   0  0  0  0  0  0  0  0  0  0  0  0
   -2.5734   -5.2919  -11.1807 C   0  0  0  0  0  0  0  0  0  0  0  0
   -2.8888   -5.5176  -12.2610 N   0  0  0  0  0  0  0  0  0  0  0  0
   -3.3230   -5.4810   -9.0016 C   0  0  0  0  0  0  0  0  0  0  0  0
   -4.2293   -5.8619   -8.4069 N   0  0  0  0  0  0  0  0  0  0  0  0
   -1.2429   -4.0314   -5.5797 C   0  0  0  0  0  0  0  0  0  0  0  0
    0.2258   -3.3263   -4.9151 S   0  0  0  0  0  0  0  0  0  0  0  0
   -0.5240   -3.2181   -3.3874 C   0  0  0  0  0  0  0  0  0  0  0  0
   -0.1906   -2.6626   -2.1171 C   0  0  0  0  0  0  0  0  0  0  0  0
   -1.3283   -2.7799   -1.2805 C   0  0  0  0  0  0  0  0  0  0  0  0
   -2.4544   -3.5086   -2.0008 C   0  0  0  0  0  0  0  0  0  0  0  0
   -1.8319   -3.7043   -3.3647 C   0  0  0  0  0  0  0  0  0  0  0  0
   -2.2338   -4.1767   -4.5928 C   0  0  0  0  0  0  0  0  0  0  0  0
   -2.6997   -4.9142   -1.4062 C   0  0  0  0  0  0  0  0  0  0  0  0
   -3.3345   -4.9642   -0.0239 C   0  0  0  0  0  0  0  0  0  0  0  0
   -3.7548   -2.6894   -2.1879 C   0  0  0  0  0  0  0  0  0  0  0  0
   -4.1866   -1.7774   -1.0461 C   0  0  0  0  0  0  0  0  0  0  0  0
   -1.2893   -2.2305   -0.0177 C   0  0  0  0  0  0  0  0  0  0  0  0
   -0.1350   -1.5511    0.3688 C   0  0  0  0  0  0  0  0  0  0  0  0
    0.0885   -0.7253    1.5343 C   0  0  0  0  0  0  0  0  0  0  0  0
    1.3670   -0.1382    1.4300 C   0  0  0  0  0  0  0  0  0  0  0  0
    2.0971   -0.6688    0.2130 C   0  0  0  0  0  0  0  0  0  0  0  0
    3.2344   -1.5821    0.7252 C   0  0  0  0  0  0  0  0  0  0  0  0
    4.0174   -2.3144   -0.3562 C   0  0  0  0  0  0  0  0  0  0  0  0
    2.5689    0.4241   -0.7666 C   0  0  0  0  0  0  0  0  0  0  0  0
    3.7203    1.3130   -0.3119 C   0  0  0  0  0  0  0  0  0  0  0  0
    1.0062   -1.4816   -0.4518 C   0  0  0  0  0  0  0  0  0  0  0  0
    0.9855   -2.0404   -1.7090 C   0  0  0  0  0  0  0  0  0  0  0  0
    1.7925    0.7710    2.3708 C   0  0  0  0  0  0  0  0  0  0  0  0
    0.8918    1.1275    3.3710 C   0  0  0  0  0  0  0  0  0  0  0  0
    0.9776    2.1366    4.3751 C   0  0  0  0  0  0  0  0  0  0  0  0
   -0.1899    2.1597    5.1478 C   0  0  0  0  0  0  0  0  0  0  0  0
   -1.1488    1.0935    4.6783 C   0  0  0  0  0  0  0  0  0  0  0  0
   -0.3768    0.5218    3.4954 C   0  0  0  0  0  0  0  0  0  0  0  0
   -0.7789   -0.4259    2.5826 C   0  0  0  0  0  0  0  0  0  0  0  0
   -2.4605    1.7014    4.1376 C   0  0  0  0  0  0  0  0  0  0  0  0
   -3.3948    2.3094    5.1741 C   0  0  0  0  0  0  0  0  0  0  0  0
   -1.3833   -0.0300    5.7163 C   0  0  0  0  0  0  0  0  0  0  0  0
   -1.3677    0.4128    7.1748 C   0  0  0  0  0  0  0  0  0  0  0  0
   -0.1696    3.1867    6.0653 C   0  0  0  0  0  0  0  0  0  0  0  0
    0.9877    3.9801    5.9762 C   0  0  0  0  0  0  0  0  0  0  0  0
    2.0868    3.3760    4.7452 S   0  0  0  0  0  0  0  0  0  0  0  0
    1.1501    5.1357    6.7448 C   0  0  0  0  0  0  0  0  0  0  0  0
    2.1183    6.1128    6.7010 C   0  0  0  0  0  0  0  0  0  0  0  0
    3.2712    6.1385    5.7988 C   0  0  0  0  0  0  0  0  0  0  0  0
    3.6332    5.2776    5.0177 O   0  0  0  0  0  0  0  0  0  0  0  0
    3.9318    7.4428    6.0200 C   0  0  0  0  0  0  0  0  0  0  0  0
    5.0369    7.9618    5.3782 C   0  0  0  0  0  0  0  0  0  0  0  0
    5.4734    9.2302    5.7423 C   0  0  0  0  0  0  0  0  0  0  0  0
    6.8402    9.9417    4.9781 Cl  0  0  0  0  0  0  0  0  0  0  0  0
    4.7874    9.9292    6.7374 C   0  0  0  0  0  0  0  0  0  0  0  0
    5.2097   11.1522    7.0807 F   0  0  0  0  0  0  0  0  0  0  0  0
    3.6781    9.4105    7.3883 C   0  0  0  0  0  0  0  0  0  0  0  0
    3.2434    8.1466    7.0224 C   0  0  0  0  0  0  0  0  0  0  0  0
    2.1215    7.3300    7.4867 C   0  0  0  0  0  0  0  0  0  0  0  0
    1.2543    7.6844    8.4884 C   0  0  0  0  0  0  0  0  0  0  0  0
    0.1749    6.9087    8.9599 C   0  0  0  0  0  0  0  0  0  0  0  0
   -0.7218    6.3429    9.4027 N   0  0  0  0  0  0  0  0  0  0  0  0
    1.3303    8.8976    9.2049 C   0  0  0  0  0  0  0  0  0  0  0  0
    1.3337    9.8642    9.8240 N   0  0  0  0  0  0  0  0  0  0  0  0
   -2.4631   -4.7786   -7.0816 H   0  0  0  0  0  0  0  0  0  0  0  0
    2.9808   -2.6356   -9.3948 H   0  0  0  0  0  0  0  0  0  0  0  0
   -0.6335   -4.4209  -12.3199 H   0  0  0  0  0  0  0  0  0  0  0  0
   -3.2002   -4.5906   -4.8209 H   0  0  0  0  0  0  0  0  0  0  0  0
   -3.3370   -5.4596   -2.1065 H   0  0  0  0  0  0  0  0  0  0  0  0
   -1.7356   -5.4289   -1.3705 H   0  0  0  0  0  0  0  0  0  0  0  0
   -3.4319   -6.0027    0.2859 H   0  0  0  0  0  0  0  0  0  0  0  0
   -2.7182   -4.4521    0.7092 H   0  0  0  0  0  0  0  0  0  0  0  0
   -4.3274   -4.5238   -0.0307 H   0  0  0  0  0  0  0  0  0  0  0  0
   -4.5584   -3.3947   -2.4098 H   0  0  0  0  0  0  0  0  0  0  0  0
   -3.6230   -2.0603   -3.0723 H   0  0  0  0  0  0  0  0  0  0  0  0
   -3.4497   -0.9969   -0.8748 H   0  0  0  0  0  0  0  0  0  0  0  0
   -5.1264   -1.2993   -1.3164 H   0  0  0  0  0  0  0  0  0  0  0  0
   -4.3432   -2.3249   -0.1221 H   0  0  0  0  0  0  0  0  0  0  0  0
   -2.1285   -2.2762    0.6558 H   0  0  0  0  0  0  0  0  0  0  0  0
    2.7859   -2.3200    1.3964 H   0  0  0  0  0  0  0  0  0  0  0  0
    3.9165   -0.9748    1.3223 H   0  0  0  0  0  0  0  0  0  0  0  0
    3.3724   -2.9887   -0.9131 H   0  0  0  0  0  0  0  0  0  0  0  0
    4.4827   -1.6196   -1.0498 H   0  0  0  0  0  0  0  0  0  0  0  0
    4.8039   -2.9063    0.1072 H   0  0  0  0  0  0  0  0  0  0  0  0
    2.8632   -0.0696   -1.6938 H   0  0  0  0  0  0  0  0  0  0  0  0
    1.7049    1.0535   -0.9963 H   0  0  0  0  0  0  0  0  0  0  0  0
    4.5795    0.7261    0.0000 H   0  0  0  0  0  0  0  0  0  0  0  0
    3.4241    1.9665    0.5026 H   0  0  0  0  0  0  0  0  0  0  0  0
    4.0293    1.9432   -1.1435 H   0  0  0  0  0  0  0  0  0  0  0  0
    1.8180   -1.9805   -2.3923 H   0  0  0  0  0  0  0  0  0  0  0  0
    2.7696    1.2244    2.3482 H   0  0  0  0  0  0  0  0  0  0  0  0
   -1.7424   -0.9075    2.6536 H   0  0  0  0  0  0  0  0  0  0  0  0
   -2.1921    2.4685    3.4059 H   0  0  0  0  0  0  0  0  0  0  0  0
   -2.9969    0.9143    3.6031 H   0  0  0  0  0  0  0  0  0  0  0  0
   -2.9073    3.1095    5.7224 H   0  0  0  0  0  0  0  0  0  0  0  0
   -3.7460    1.5586    5.8761 H   0  0  0  0  0  0  0  0  0  0  0  0
   -4.2631    2.7292    4.6702 H   0  0  0  0  0  0  0  0  0  0  0  0
   -2.3363   -0.5115    5.4895 H   0  0  0  0  0  0  0  0  0  0  0  0
   -0.5994   -0.7804    5.5848 H   0  0  0  0  0  0  0  0  0  0  0  0
   -1.5861   -0.4417    7.8121 H   0  0  0  0  0  0  0  0  0  0  0  0
   -2.1082    1.1811    7.3718 H   0  0  0  0  0  0  0  0  0  0  0  0
   -0.3890    0.7977    7.4496 H   0  0  0  0  0  0  0  0  0  0  0  0
   -0.9375    3.4132    6.7828 H   0  0  0  0  0  0  0  0  0  0  0  0
    0.3418    5.2915    7.4492 H   0  0  0  0  0  0  0  0  0  0  0  0
    5.5439    7.3972    4.6121 H   0  0  0  0  0  0  0  0  0  0  0  0
    3.1954   10.0060    8.1457 H   0  0  0  0  0  0  0  0  0  0  0  0
  1  2  2  0  0  0  0
  2  3  1  0  0  0  0
  3  4  2  0  0  0  0
  3  5  1  0  0  0  0
  5  6  2  0  0  0  0
  6  7  1  0  0  0  0
  7  8  1  0  0  0  0
  7  9  2  0  0  0  0
  9 10  1  0  0  0  0
  9 11  1  0  0  0  0
 11 12  2  0  0  0  0
 12 13  1  0  0  0  0
 13 14  2  0  0  0  0
 14 15  1  0  0  0  0
 15 16  3  0  0  0  0
 14 17  1  0  0  0  0
 17 18  3  0  0  0  0
  1 19  1  0  0  0  0
 19 20  1  0  0  0  0
 20 21  1  0  0  0  0
 21 22  1  0  0  0  0
 22 23  2  0  0  0  0
 23 24  1  0  0  0  0
 24 25  1  0  0  0  0
 25 26  1  0  0  0  0
 24 27  1  0  0  0  0
 27 28  1  0  0  0  0
 24 29  1  0  0  0  0
 29 30  1  0  0  0  0
 23 31  1  0  0  0  0
 31 32  2  0  0  0  0
 32 33  1  0  0  0  0
 33 34  2  0  0  0  0
 34 35  1  0  0  0  0
 35 36  1  0  0  0  0
 36 37  1  0  0  0  0
 35 38  1  0  0  0  0
 38 39  1  0  0  0  0
 35 40  1  0  0  0  0
 40 41  2  0  0  0  0
 34 42  1  0  0  0  0
 42 43  2  0  0  0  0
 43 44  1  0  0  0  0
 44 45  2  0  0  0  0
 45 46  1  0  0  0  0
 46 47  1  0  0  0  0
 47 48  2  0  0  0  0
 46 49  1  0  0  0  0
 49 50  1  0  0  0  0
 46 51  1  0  0  0  0
 51 52  1  0  0  0  0
 45 53  1  0  0  0  0
 53 54  2  0  0  0  0
 54 55  1  0  0  0  0
 54 56  1  0  0  0  0
 56 57  2  0  0  0  0
 57 58  1  0  0  0  0
 58 59  2  0  0  0  0
 58 60  1  0  0  0  0
 60 61  2  0  0  0  0
 61 62  1  0  0  0  0
 62 63  1  0  0  0  0
 62 64  2  0  0  0  0
 64 65  1  0  0  0  0
 64 66  1  0  0  0  0
 66 67  2  0  0  0  0
 67 68  1  0  0  0  0
 68 69  2  0  0  0  0
 69 70  1  0  0  0  0
 70 71  3  0  0  0  0
 69 72  1  0  0  0  0
 72 73  3  0  0  0  0
 13  2  1  0  0  0  0
 26 19  2  0  0  0  0
 40 32  1  0  0  0  0
 47 43  1  0  0  0  0
 68 57  1  0  0  0  0
 12  5  1  0  0  0  0
 25 21  2  0  0  0  0
 48 33  1  0  0  0  0
 67 60  1  0  0  0  0
 41 22  1  0  0  0  0
 55 44  1  0  0  0  0
  1 74  1  0  0  0  0
  6 75  1  0  0  0  0
 11 76  1  0  0  0  0
 26 77  1  0  0  0  0
 27 78  1  0  0  0  0
 27 79  1  0  0  0  0
 28 80  1  0  0  0  0
 28 81  1  0  0  0  0
 28 82  1  0  0  0  0
 29 83  1  0  0  0  0
 29 84  1  0  0  0  0
 30 85  1  0  0  0  0
 30 86  1  0  0  0  0
 30 87  1  0  0  0  0
 31 88  1  0  0  0  0
 36 89  1  0  0  0  0
 36 90  1  0  0  0  0
 37 91  1  0  0  0  0
 37 92  1  0  0  0  0
 37 93  1  0  0  0  0
 38 94  1  0  0  0  0
 38 95  1  0  0  0  0
 39 96  1  0  0  0  0
 39 97  1  0  0  0  0
 39 98  1  0  0  0  0
 41 99  1  0  0  0  0
 42100  1  0  0  0  0
 48101  1  0  0  0  0
 49102  1  0  0  0  0
 49103  1  0  0  0  0
 50104  1  0  0  0  0
 50105  1  0  0  0  0
 50106  1  0  0  0  0
 51107  1  0  0  0  0
 51108  1  0  0  0  0
 52109  1  0  0  0  0
 52110  1  0  0  0  0
 52111  1  0  0  0  0
 53112  1  0  0  0  0
 56113  1  0  0  0  0
 61114  1  0  0  0  0
 66115  1  0  0  0  0
M  END
