64

C         -2.87040       -1.80940       -0.74170
C         -3.76450       -2.38370       -1.60540
C         -3.48520       -3.15460       -2.83920
O         -2.43470       -3.30920       -3.42340
C         -4.77950       -3.75390       -3.23200
C         -5.03120       -4.60770       -4.28720
C         -6.32950       -5.06900       -4.46610
Cl        -6.71390       -6.13720       -5.75660
C         -7.32870       -4.65740       -3.57940
F         -8.57480       -5.11150       -3.75160
C         -7.08310       -3.79650       -2.52130
C         -5.78630       -3.33690       -2.34650
C         -5.19810       -2.44040       -1.35560
C         -5.90460       -1.74170       -0.41330
C         -7.30380       -1.83950       -0.24680
N         -8.43450       -1.87600       -0.05570
C         -5.37470       -0.80630        0.50270
N         -5.03950       -0.02150        1.27100
C         -1.47460       -1.64120       -0.82380
C         -0.55740       -1.81890       -1.85190
C          0.74660       -1.52700       -1.48170
C          1.95220       -1.51240       -2.37950
N          1.97150       -0.21120       -3.02570
C          3.09110        0.27330       -3.35320
C          4.35210       -0.44230       -3.12950
N          4.44590       -1.42930       -2.34480
C          3.25690       -1.81450       -1.60880
C          3.28820       -1.12360       -0.26990
C          2.11530       -0.79800        0.39700
C          0.85220       -1.09990       -0.15900
S         -0.67430       -1.05500        0.62600
S          2.42680       -0.02960        1.90970
C          4.15010       -0.14280        1.64690
C          4.42820       -0.78130        0.45170
C          5.10090        0.29840        2.60240
C          4.96040        1.24940        3.56090
C          5.86830        1.25930        4.74280
O          6.90700        0.65700        4.86500
C          5.18110        2.11190        5.73840
C          5.52750        2.34900        7.05360
C          4.68840        3.17970        7.78170
F          4.98550        3.43880        9.06390
C          3.54770        3.75250        7.23600
C          3.21400        3.51400        5.91190
C          4.03700        2.69150        5.15680
C          3.97240        2.29350        3.75340
C          3.32340        2.97500        2.75980
C          3.53350        2.72350        1.38700
N          3.72240        2.57760        0.26420
C          2.45860        4.06490        2.99210
N          1.73880        4.94660        3.13500
H         -3.28470       -1.43460        0.18710
H         -4.23700       -4.90730       -4.95240
H         -7.90010       -3.52220       -1.87440
H         -0.84490       -2.15400       -2.83090
H          1.81190       -2.25440       -3.17750
H          3.10300        1.24690       -3.82420
H          5.24170       -0.13890       -3.66550
H          3.33810       -2.89720       -1.43420
H          5.42820       -0.95670        0.09860
H          6.04130       -0.24460        2.61380
H          6.40880        1.91150        7.49480
H          2.92940        4.38270        7.85570
H          2.32350        3.95480        5.49400
