
  xtb     02012218053D
 energy: -195.899150583039 gnorm: 0.000610194716 xtb: 6.4.1 (unknown)
103114  0     0  0            999 V2000
   -0.7052   -6.1074    5.4680 C   0  0  0  0  0  0  0  0  0  0  0  0
   -0.2475   -7.3258    5.8957 C   0  0  0  0  0  0  0  0  0  0  0  0
    0.9142   -8.0264    5.3075 C   0  0  0  0  0  0  0  0  0  0  0  0
    1.6248   -7.6531    4.4001 O   0  0  0  0  0  0  0  0  0  0  0  0
    0.9308   -9.3618    5.9475 C   0  0  0  0  0  0  0  0  0  0  0  0
    1.8342  -10.3874    5.7589 C   0  0  0  0  0  0  0  0  0  0  0  0
    1.6485  -11.5677    6.4689 C   0  0  0  0  0  0  0  0  0  0  0  0
    2.7458  -12.8805    6.2926 Cl  0  0  0  0  0  0  0  0  0  0  0  0
    0.5575  -11.6822    7.3335 C   0  0  0  0  0  0  0  0  0  0  0  0
    0.3823  -12.8236    8.0102 F   0  0  0  0  0  0  0  0  0  0  0  0
   -0.3588  -10.6591    7.5210 C   0  0  0  0  0  0  0  0  0  0  0  0
   -0.1664   -9.4803    6.8176 C   0  0  0  0  0  0  0  0  0  0  0  0
   -0.9234   -8.2310    6.7981 C   0  0  0  0  0  0  0  0  0  0  0  0
   -2.0292   -7.9528    7.5604 C   0  0  0  0  0  0  0  0  0  0  0  0
   -2.6959   -6.7102    7.5877 C   0  0  0  0  0  0  0  0  0  0  0  0
   -3.2762   -5.7228    7.6731 N   0  0  0  0  0  0  0  0  0  0  0  0
   -2.6386   -8.8768    8.4342 C   0  0  0  0  0  0  0  0  0  0  0  0
   -3.1808   -9.5871    9.1547 N   0  0  0  0  0  0  0  0  0  0  0  0
    0.0266   -5.1122    4.7866 C   0  0  0  0  0  0  0  0  0  0  0  0
    1.3348   -4.6715    4.9483 C   0  0  0  0  0  0  0  0  0  0  0  0
    2.2811   -5.1446    6.0069 C   0  0  0  0  0  0  0  0  0  0  0  0
    3.5879   -5.6915    5.4313 C   0  0  0  0  0  0  0  0  0  0  0  0
    1.6454   -3.5752    4.1295 C   0  0  0  0  0  0  0  0  0  0  0  0
    3.1282   -2.6508    4.0064 S   0  0  0  0  0  0  0  0  0  0  0  0
    2.3813   -1.6390    2.8279 C   0  0  0  0  0  0  0  0  0  0  0  0
    2.6721   -0.4931    2.0750 C   0  0  0  0  0  0  0  0  0  0  0  0
    3.8081    0.3457    2.0812 C   0  0  0  0  0  0  0  0  0  0  0  0
    3.7795    1.5511    1.3079 C   0  0  0  0  0  0  0  0  0  0  0  0
    4.8811    2.2710    1.4521 N   0  0  0  0  0  0  0  0  0  0  0  0
    5.8713    1.4946    2.4699 S   0  0  0  0  0  0  0  0  0  0  0  0
    4.9319    0.2109    2.7680 N   0  0  0  0  0  0  0  0  0  0  0  0
    2.6654    1.7988    0.4762 C   0  0  0  0  0  0  0  0  0  0  0  0
    2.4330    2.8104   -0.4624 C   0  0  0  0  0  0  0  0  0  0  0  0
    3.1990    4.2343   -1.0643 S   0  0  0  0  0  0  0  0  0  0  0  0
    1.8921    4.4061   -2.2267 C   0  0  0  0  0  0  0  0  0  0  0  0
    1.7029    5.3802   -3.1959 C   0  0  0  0  0  0  0  0  0  0  0  0
    2.7076    6.4675   -3.4082 C   0  0  0  0  0  0  0  0  0  0  0  0
    3.6855    6.0922   -4.5253 C   0  0  0  0  0  0  0  0  0  0  0  0
    0.5336    5.1941   -3.9611 C   0  0  0  0  0  0  0  0  0  0  0  0
   -0.4303    3.6446   -3.4065 Se  0  0  0  0  0  2  0  0  0  0  0  0
    0.9126    3.3970   -2.1357 C   0  0  0  0  0  0  0  0  0  0  0  0
    1.2343    2.4980   -1.1155 C   0  0  0  0  0  0  0  0  0  0  0  0
    0.7137    1.3406   -0.5985 N   0  0  0  0  0  0  0  0  0  0  0  0
    1.5585    0.8990    0.4009 C   0  0  0  0  0  0  0  0  0  0  0  0
    1.5125   -0.1985    1.3003 C   0  0  0  0  0  0  0  0  0  0  0  0
    0.5360   -1.1367    1.6040 N   0  0  0  0  0  0  0  0  0  0  0  0
    1.0611   -1.9962    2.5362 C   0  0  0  0  0  0  0  0  0  0  0  0
    0.6272   -3.0912    3.2907 C   0  0  0  0  0  0  0  0  0  0  0  0
   -0.9492   -4.0469    3.5396 Se  0  0  0  0  0  2  0  0  0  0  0  0
   -0.9039   -1.0372    1.5174 C   0  0  0  0  0  0  0  0  0  0  0  0
   -1.4503   -0.0895    2.5828 C   0  0  0  0  0  0  0  0  0  0  0  0
   -0.3455    0.6683   -1.3145 C   0  0  0  0  0  0  0  0  0  0  0  0
   -1.7207    1.2551   -0.9996 C   0  0  0  0  0  0  0  0  0  0  0  0
    0.1740    6.0750   -4.9811 C   0  0  0  0  0  0  0  0  0  0  0  0
   -0.9093    6.0914   -5.8341 C   0  0  0  0  0  0  0  0  0  0  0  0
   -1.9904    5.1187   -5.8557 C   0  0  0  0  0  0  0  0  0  0  0  0
   -2.1123    4.1321   -5.1394 O   0  0  0  0  0  0  0  0  0  0  0  0
   -2.9247    5.5528   -6.9102 C   0  0  0  0  0  0  0  0  0  0  0  0
   -4.1082    4.9784   -7.3186 C   0  0  0  0  0  0  0  0  0  0  0  0
   -4.8206    5.5961   -8.3488 C   0  0  0  0  0  0  0  0  0  0  0  0
   -6.1009    4.9762   -8.7825 C   0  0  0  0  0  0  0  0  0  0  0  0
   -6.5682    3.9793   -8.2913 O   0  0  0  0  0  0  0  0  0  0  0  0
   -6.6843    5.6499   -9.7818 O   0  0  0  0  0  0  0  0  0  0  0  0
   -7.9164    5.1201  -10.2491 C   0  0  0  0  0  0  0  0  0  0  0  0
   -4.3338    6.7603   -8.9397 C   0  0  0  0  0  0  0  0  0  0  0  0
   -3.1410    7.3360   -8.5252 C   0  0  0  0  0  0  0  0  0  0  0  0
   -2.4291    6.7309   -7.5015 C   0  0  0  0  0  0  0  0  0  0  0  0
   -1.1684    7.0913   -6.8480 C   0  0  0  0  0  0  0  0  0  0  0  0
   -0.4043    8.1868   -7.1616 C   0  0  0  0  0  0  0  0  0  0  0  0
   -0.7308    9.1228   -8.1655 C   0  0  0  0  0  0  0  0  0  0  0  0
   -0.9312    9.9231   -8.9637 N   0  0  0  0  0  0  0  0  0  0  0  0
    0.8091    8.5512   -6.5415 C   0  0  0  0  0  0  0  0  0  0  0  0
    1.8008    8.9175   -6.0907 N   0  0  0  0  0  0  0  0  0  0  0  0
   -1.7538   -5.8764    5.6281 H   0  0  0  0  0  0  0  0  0  0  0  0
    2.6652  -10.2716    5.0817 H   0  0  0  0  0  0  0  0  0  0  0  0
   -1.1828  -10.8140    8.1982 H   0  0  0  0  0  0  0  0  0  0  0  0
    2.5116   -4.2876    6.6486 H   0  0  0  0  0  0  0  0  0  0  0  0
    1.7996   -5.9073    6.6200 H   0  0  0  0  0  0  0  0  0  0  0  0
    4.2115   -6.0680    6.2382 H   0  0  0  0  0  0  0  0  0  0  0  0
    3.3815   -6.5018    4.7384 H   0  0  0  0  0  0  0  0  0  0  0  0
    4.1333   -4.9129    4.9057 H   0  0  0  0  0  0  0  0  0  0  0  0
    2.2239    7.4143   -3.6528 H   0  0  0  0  0  0  0  0  0  0  0  0
    3.2661    6.6026   -2.4794 H   0  0  0  0  0  0  0  0  0  0  0  0
    3.1593    5.9389   -5.4648 H   0  0  0  0  0  0  0  0  0  0  0  0
    4.4088    6.8905   -4.6632 H   0  0  0  0  0  0  0  0  0  0  0  0
    4.2167    5.1777   -4.2712 H   0  0  0  0  0  0  0  0  0  0  0  0
   -1.2179   -0.7156    0.5310 H   0  0  0  0  0  0  0  0  0  0  0  0
   -1.3010   -2.0462    1.6837 H   0  0  0  0  0  0  0  0  0  0  0  0
   -1.0372    0.9090    2.4530 H   0  0  0  0  0  0  0  0  0  0  0  0
   -1.1852   -0.4452    3.5762 H   0  0  0  0  0  0  0  0  0  0  0  0
   -2.5332   -0.0368    2.5126 H   0  0  0  0  0  0  0  0  0  0  0  0
   -0.1529    0.8079   -2.3870 H   0  0  0  0  0  0  0  0  0  0  0  0
   -0.2894   -0.4024   -1.1113 H   0  0  0  0  0  0  0  0  0  0  0  0
   -1.9027    1.3044    0.0705 H   0  0  0  0  0  0  0  0  0  0  0  0
   -2.4943    0.6517   -1.4663 H   0  0  0  0  0  0  0  0  0  0  0  0
   -1.7917    2.2654   -1.4020 H   0  0  0  0  0  0  0  0  0  0  0  0
    0.8753    6.8882   -5.1131 H   0  0  0  0  0  0  0  0  0  0  0  0
   -4.4860    4.0766   -6.8616 H   0  0  0  0  0  0  0  0  0  0  0  0
   -8.2525    5.7851  -11.0401 H   0  0  0  0  0  0  0  0  0  0  0  0
   -7.7727    4.1080  -10.6325 H   0  0  0  0  0  0  0  0  0  0  0  0
   -8.6465    5.0868   -9.4378 H   0  0  0  0  0  0  0  0  0  0  0  0
   -4.8999    7.2205   -9.7340 H   0  0  0  0  0  0  0  0  0  0  0  0
   -2.7912    8.2374   -9.0009 H   0  0  0  0  0  0  0  0  0  0  0  0
  1  2  2  0  0  0  0
  2  3  1  0  0  0  0
  3  4  2  0  0  0  0
  3  5  1  0  0  0  0
  5  6  2  0  0  0  0
  6  7  1  0  0  0  0
  7  8  1  0  0  0  0
  7  9  2  0  0  0  0
  9 10  1  0  0  0  0
  9 11  1  0  0  0  0
 11 12  2  0  0  0  0
 12 13  1  0  0  0  0
 13 14  2  0  0  0  0
 14 15  1  0  0  0  0
 15 16  3  0  0  0  0
 14 17  1  0  0  0  0
 17 18  3  0  0  0  0
  1 19  1  0  0  0  0
 19 20  2  0  0  0  0
 20 21  1  0  0  0  0
 21 22  1  0  0  0  0
 20 23  1  0  0  0  0
 23 24  1  0  0  0  0
 24 25  1  0  0  0  0
 25 26  1  0  0  0  0
 26 27  1  0  0  0  0
 27 28  1  0  0  0  0
 28 29  2  0  0  0  0
 29 30  1  0  0  0  0
 30 31  1  0  0  0  0
 28 32  1  0  0  0  0
 32 33  1  0  0  0  0
 33 34  1  0  0  0  0
 34 35  1  0  0  0  0
 35 36  1  0  0  0  0
 36 37  1  0  0  0  0
 37 38  1  0  0  0  0
 36 39  2  0  0  0  0
 39 40  1  0  0  0  0
 40 41  1  0  0  0  0
 41 42  1  0  0  0  0
 42 43  1  0  0  0  0
 43 44  1  0  0  0  0
 44 45  1  0  0  0  0
 45 46  1  0  0  0  0
 46 47  1  0  0  0  0
 47 48  1  0  0  0  0
 48 49  1  0  0  0  0
 46 50  1  0  0  0  0
 50 51  1  0  0  0  0
 43 52  1  0  0  0  0
 52 53  1  0  0  0  0
 39 54  1  0  0  0  0
 54 55  2  0  0  0  0
 55 56  1  0  0  0  0
 56 57  2  0  0  0  0
 56 58  1  0  0  0  0
 58 59  2  0  0  0  0
 59 60  1  0  0  0  0
 60 61  1  0  0  0  0
 61 62  2  0  0  0  0
 61 63  1  0  0  0  0
 63 64  1  0  0  0  0
 60 65  2  0  0  0  0
 65 66  1  0  0  0  0
 66 67  2  0  0  0  0
 67 68  1  0  0  0  0
 68 69  2  0  0  0  0
 69 70  1  0  0  0  0
 70 71  3  0  0  0  0
 69 72  1  0  0  0  0
 72 73  3  0  0  0  0
 13  2  1  0  0  0  0
 49 19  1  0  0  0  0
 68 55  1  0  0  0  0
 12  5  1  0  0  0  0
 48 23  2  0  0  0  0
 67 58  1  0  0  0  0
 47 25  2  0  0  0  0
 45 26  2  0  0  0  0
 31 27  2  0  0  0  0
 44 32  2  0  0  0  0
 42 33  2  0  0  0  0
 41 35  2  0  0  0  0
  1 74  1  0  0  0  0
  6 75  1  0  0  0  0
 11 76  1  0  0  0  0
 21 77  1  0  0  0  0
 21 78  1  0  0  0  0
 22 79  1  0  0  0  0
 22 80  1  0  0  0  0
 22 81  1  0  0  0  0
 37 82  1  0  0  0  0
 37 83  1  0  0  0  0
 38 84  1  0  0  0  0
 38 85  1  0  0  0  0
 38 86  1  0  0  0  0
 50 87  1  0  0  0  0
 50 88  1  0  0  0  0
 51 89  1  0  0  0  0
 51 90  1  0  0  0  0
 51 91  1  0  0  0  0
 52 92  1  0  0  0  0
 52 93  1  0  0  0  0
 53 94  1  0  0  0  0
 53 95  1  0  0  0  0
 53 96  1  0  0  0  0
 54 97  1  0  0  0  0
 59 98  1  0  0  0  0
 64 99  1  0  0  0  0
 64100  1  0  0  0  0
 64101  1  0  0  0  0
 65102  1  0  0  0  0
 66103  1  0  0  0  0
M  END
