
  xtb     02012217323D
 energy: -186.700023193916 gnorm: 0.000748535571 xtb: 6.4.1 (unknown)
 97108  0     0  0            999 V2000
    5.6729   -0.1053   -5.8563 C   0  0  0  0  0  0  0  0  0  0  0  0
    5.8111   -1.3834   -6.3602 C   0  0  0  0  0  0  0  0  0  0  0  0
    5.0984   -2.5607   -5.8984 C   0  0  0  0  0  0  0  0  0  0  0  0
    4.2675   -2.6261   -4.9997 O   0  0  0  0  0  0  0  0  0  0  0  0
    5.5707   -3.6880   -6.7242 C   0  0  0  0  0  0  0  0  0  0  0  0
    5.1947   -5.0142   -6.6705 C   0  0  0  0  0  0  0  0  0  0  0  0
    5.7870   -5.9019   -7.5617 C   0  0  0  0  0  0  0  0  0  0  0  0
    5.3647   -7.5692   -7.5500 Cl  0  0  0  0  0  0  0  0  0  0  0  0
    6.7330   -5.4277   -8.4723 C   0  0  0  0  0  0  0  0  0  0  0  0
    7.2993   -6.2873   -9.3275 F   0  0  0  0  0  0  0  0  0  0  0  0
    7.1152   -4.0952   -8.5302 C   0  0  0  0  0  0  0  0  0  0  0  0
    6.5244   -3.2122   -7.6417 C   0  0  0  0  0  0  0  0  0  0  0  0
    6.6964   -1.7726   -7.4382 C   0  0  0  0  0  0  0  0  0  0  0  0
    7.5493   -0.9733   -8.1561 C   0  0  0  0  0  0  0  0  0  0  0  0
    8.3808   -1.4406   -9.1959 C   0  0  0  0  0  0  0  0  0  0  0  0
    9.0824   -1.7534  -10.0487 N   0  0  0  0  0  0  0  0  0  0  0  0
    7.7278    0.4142   -7.9762 C   0  0  0  0  0  0  0  0  0  0  0  0
    7.9332    1.5421   -7.8954 N   0  0  0  0  0  0  0  0  0  0  0  0
    4.8698    0.4022   -4.8369 C   0  0  0  0  0  0  0  0  0  0  0  0
    4.8796    1.7693   -4.4873 C   0  0  0  0  0  0  0  0  0  0  0  0
    5.6835    2.8268   -5.1741 C   0  0  0  0  0  0  0  0  0  0  0  0
    4.9685    3.3194   -6.4356 C   0  0  0  0  0  0  0  0  0  0  0  0
    4.0112    2.0842   -3.4531 C   0  0  0  0  0  0  0  0  0  0  0  0
    3.6982    3.6378   -2.6911 S   0  0  0  0  0  0  0  0  0  0  0  0
    2.5742    2.8596   -1.6372 C   0  0  0  0  0  0  0  0  0  0  0  0
    1.7439    3.1672   -0.5548 C   0  0  0  0  0  0  0  0  0  0  0  0
    1.5683    4.3832    0.1419 C   0  0  0  0  0  0  0  0  0  0  0  0
    0.7152    4.4022    1.2903 C   0  0  0  0  0  0  0  0  0  0  0  0
    0.6712    5.5915    1.8696 N   0  0  0  0  0  0  0  0  0  0  0  0
    1.6222    6.6024    1.0363 S   0  0  0  0  0  0  0  0  0  0  0  0
    2.1267    5.5595   -0.0952 N   0  0  0  0  0  0  0  0  0  0  0  0
    0.0164    3.2251    1.6379 C   0  0  0  0  0  0  0  0  0  0  0  0
   -0.9431    3.0061    2.6318 C   0  0  0  0  0  0  0  0  0  0  0  0
   -1.7377    3.8631    3.9030 S   0  0  0  0  0  0  0  0  0  0  0  0
   -2.7165    2.4349    4.2125 C   0  0  0  0  0  0  0  0  0  0  0  0
   -3.7310    2.2433    5.1394 C   0  0  0  0  0  0  0  0  0  0  0  0
   -4.0969    3.3101    6.1214 C   0  0  0  0  0  0  0  0  0  0  0  0
   -3.3838    3.0847    7.4578 C   0  0  0  0  0  0  0  0  0  0  0  0
   -4.3118    0.9593    5.0837 C   0  0  0  0  0  0  0  0  0  0  0  0
   -3.4981   -0.1214    3.7384 Se  0  0  0  0  0  2  0  0  0  0  0  0
   -2.4164    1.3489    3.3667 C   0  0  0  0  0  0  0  0  0  0  0  0
   -1.3965    1.6917    2.4761 C   0  0  0  0  0  0  0  0  0  0  0  0
   -0.7438    1.0951    1.4323 N   0  0  0  0  0  0  0  0  0  0  0  0
    0.1495    2.0058    0.9013 C   0  0  0  0  0  0  0  0  0  0  0  0
    1.0887    1.9563   -0.1663 C   0  0  0  0  0  0  0  0  0  0  0  0
    1.5566    0.9446   -0.9831 N   0  0  0  0  0  0  0  0  0  0  0  0
    2.4424    1.4866   -1.8746 C   0  0  0  0  0  0  0  0  0  0  0  0
    3.2621    1.0229   -2.9057 C   0  0  0  0  0  0  0  0  0  0  0  0
    3.6518   -0.5898   -3.7539 Se  0  0  0  0  0  2  0  0  0  0  0  0
    1.4001   -0.4900   -0.9604 C   0  0  0  0  0  0  0  0  0  0  0  0
    0.4580   -0.9807   -2.0597 C   0  0  0  0  0  0  0  0  0  0  0  0
   -1.1694   -0.2227    1.0261 C   0  0  0  0  0  0  0  0  0  0  0  0
   -0.5764   -1.3131    1.9179 C   0  0  0  0  0  0  0  0  0  0  0  0
   -5.3632    0.5860    5.9205 C   0  0  0  0  0  0  0  0  0  0  0  0
   -6.0669   -0.5959    6.0292 C   0  0  0  0  0  0  0  0  0  0  0  0
   -5.8346   -1.7978    5.2485 C   0  0  0  0  0  0  0  0  0  0  0  0
   -4.9926   -1.9684    4.3737 O   0  0  0  0  0  0  0  0  0  0  0  0
   -6.8183   -2.7946    5.7083 C   0  0  0  0  0  0  0  0  0  0  0  0
   -7.0019   -4.0905    5.2724 C   0  0  0  0  0  0  0  0  0  0  0  0
   -8.0147   -4.8155    5.8833 C   0  0  0  0  0  0  0  0  0  0  0  0
   -8.2331   -6.0821    5.4926 F   0  0  0  0  0  0  0  0  0  0  0  0
   -8.8114   -4.2807    6.8838 C   0  0  0  0  0  0  0  0  0  0  0  0
   -8.6145   -2.9750    7.3111 C   0  0  0  0  0  0  0  0  0  0  0  0
   -7.6109   -2.2227    6.7200 C   0  0  0  0  0  0  0  0  0  0  0  0
   -7.1657   -0.8446    6.9405 C   0  0  0  0  0  0  0  0  0  0  0  0
   -7.7174    0.0264    7.8448 C   0  0  0  0  0  0  0  0  0  0  0  0
   -8.7962   -0.2946    8.6958 C   0  0  0  0  0  0  0  0  0  0  0  0
   -9.6678   -0.4903    9.4170 N   0  0  0  0  0  0  0  0  0  0  0  0
   -7.3076    1.3582    8.0634 C   0  0  0  0  0  0  0  0  0  0  0  0
   -7.0374    2.4495    8.3017 N   0  0  0  0  0  0  0  0  0  0  0  0
    6.2922    0.6445   -6.3303 H   0  0  0  0  0  0  0  0  0  0  0  0
    4.4611   -5.3508   -5.9557 H   0  0  0  0  0  0  0  0  0  0  0  0
    7.8520   -3.7978   -9.2582 H   0  0  0  0  0  0  0  0  0  0  0  0
    5.8031    3.6657   -4.4851 H   0  0  0  0  0  0  0  0  0  0  0  0
    6.6768    2.4622   -5.4394 H   0  0  0  0  0  0  0  0  0  0  0  0
    5.5602    4.0951   -6.9129 H   0  0  0  0  0  0  0  0  0  0  0  0
    3.9933    3.7287   -6.1821 H   0  0  0  0  0  0  0  0  0  0  0  0
    4.8309    2.5065   -7.1449 H   0  0  0  0  0  0  0  0  0  0  0  0
   -5.1747    3.3459    6.2874 H   0  0  0  0  0  0  0  0  0  0  0  0
   -3.7851    4.2732    5.7116 H   0  0  0  0  0  0  0  0  0  0  0  0
   -3.6516    3.8739    8.1542 H   0  0  0  0  0  0  0  0  0  0  0  0
   -3.6702    2.1299    7.8929 H   0  0  0  0  0  0  0  0  0  0  0  0
   -2.3054    3.0928    7.3170 H   0  0  0  0  0  0  0  0  0  0  0  0
    1.0765   -0.8082    0.0266 H   0  0  0  0  0  0  0  0  0  0  0  0
    2.3926   -0.9257   -1.1407 H   0  0  0  0  0  0  0  0  0  0  0  0
   -0.4845   -0.4367   -2.0542 H   0  0  0  0  0  0  0  0  0  0  0  0
    0.9198   -0.8405   -3.0366 H   0  0  0  0  0  0  0  0  0  0  0  0
    0.2583   -2.0402   -1.9276 H   0  0  0  0  0  0  0  0  0  0  0  0
   -2.2631   -0.2541    1.1285 H   0  0  0  0  0  0  0  0  0  0  0  0
   -0.9334   -0.3799   -0.0220 H   0  0  0  0  0  0  0  0  0  0  0  0
   -0.9930   -1.2402    2.9221 H   0  0  0  0  0  0  0  0  0  0  0  0
    0.5054   -1.2242    1.9966 H   0  0  0  0  0  0  0  0  0  0  0  0
   -0.8249   -2.2917    1.5176 H   0  0  0  0  0  0  0  0  0  0  0  0
   -5.6753    1.3715    6.5958 H   0  0  0  0  0  0  0  0  0  0  0  0
   -6.3895   -4.5189    4.4953 H   0  0  0  0  0  0  0  0  0  0  0  0
   -9.5840   -4.8916    7.3232 H   0  0  0  0  0  0  0  0  0  0  0  0
   -9.2415   -2.5728    8.0893 H   0  0  0  0  0  0  0  0  0  0  0  0
  1  2  2  0  0  0  0
  2  3  1  0  0  0  0
  3  4  2  0  0  0  0
  3  5  1  0  0  0  0
  5  6  2  0  0  0  0
  6  7  1  0  0  0  0
  7  8  1  0  0  0  0
  7  9  2  0  0  0  0
  9 10  1  0  0  0  0
  9 11  1  0  0  0  0
 11 12  2  0  0  0  0
 12 13  1  0  0  0  0
 13 14  2  0  0  0  0
 14 15  1  0  0  0  0
 15 16  3  0  0  0  0
 14 17  1  0  0  0  0
 17 18  3  0  0  0  0
  1 19  1  0  0  0  0
 19 20  2  0  0  0  0
 20 21  1  0  0  0  0
 21 22  1  0  0  0  0
 20 23  1  0  0  0  0
 23 24  1  0  0  0  0
 24 25  1  0  0  0  0
 25 26  1  0  0  0  0
 26 27  1  0  0  0  0
 27 28  1  0  0  0  0
 28 29  2  0  0  0  0
 29 30  1  0  0  0  0
 30 31  1  0  0  0  0
 28 32  1  0  0  0  0
 32 33  1  0  0  0  0
 33 34  1  0  0  0  0
 34 35  1  0  0  0  0
 35 36  1  0  0  0  0
 36 37  1  0  0  0  0
 37 38  1  0  0  0  0
 36 39  2  0  0  0  0
 39 40  1  0  0  0  0
 40 41  1  0  0  0  0
 41 42  1  0  0  0  0
 42 43  1  0  0  0  0
 43 44  1  0  0  0  0
 44 45  1  0  0  0  0
 45 46  1  0  0  0  0
 46 47  1  0  0  0  0
 47 48  1  0  0  0  0
 48 49  1  0  0  0  0
 46 50  1  0  0  0  0
 50 51  1  0  0  0  0
 43 52  1  0  0  0  0
 52 53  1  0  0  0  0
 39 54  1  0  0  0  0
 54 55  2  0  0  0  0
 55 56  1  0  0  0  0
 56 57  2  0  0  0  0
 56 58  1  0  0  0  0
 58 59  2  0  0  0  0
 59 60  1  0  0  0  0
 60 61  1  0  0  0  0
 60 62  2  0  0  0  0
 62 63  1  0  0  0  0
 63 64  2  0  0  0  0
 64 65  1  0  0  0  0
 65 66  2  0  0  0  0
 66 67  1  0  0  0  0
 67 68  3  0  0  0  0
 66 69  1  0  0  0  0
 69 70  3  0  0  0  0
 13  2  1  0  0  0  0
 49 19  1  0  0  0  0
 65 55  1  0  0  0  0
 12  5  1  0  0  0  0
 48 23  2  0  0  0  0
 64 58  1  0  0  0  0
 47 25  2  0  0  0  0
 45 26  2  0  0  0  0
 31 27  2  0  0  0  0
 44 32  2  0  0  0  0
 42 33  2  0  0  0  0
 41 35  2  0  0  0  0
  1 71  1  0  0  0  0
  6 72  1  0  0  0  0
 11 73  1  0  0  0  0
 21 74  1  0  0  0  0
 21 75  1  0  0  0  0
 22 76  1  0  0  0  0
 22 77  1  0  0  0  0
 22 78  1  0  0  0  0
 37 79  1  0  0  0  0
 37 80  1  0  0  0  0
 38 81  1  0  0  0  0
 38 82  1  0  0  0  0
 38 83  1  0  0  0  0
 50 84  1  0  0  0  0
 50 85  1  0  0  0  0
 51 86  1  0  0  0  0
 51 87  1  0  0  0  0
 51 88  1  0  0  0  0
 52 89  1  0  0  0  0
 52 90  1  0  0  0  0
 53 91  1  0  0  0  0
 53 92  1  0  0  0  0
 53 93  1  0  0  0  0
 54 94  1  0  0  0  0
 59 95  1  0  0  0  0
 62 96  1  0  0  0  0
 63 97  1  0  0  0  0
M  END
