
  xtb     02012217543D
 energy: -186.026536885576 gnorm: 0.000923562326 xtb: 6.4.1 (unknown)
 97108  0     0  0            999 V2000
    1.7702    0.1019   -7.7377 C   0  0  0  0  0  0  0  0  0  0  0  0
    2.9284    0.4316   -8.3933 C   0  0  0  0  0  0  0  0  0  0  0  0
    4.0421    1.1889   -7.7822 C   0  0  0  0  0  0  0  0  0  0  0  0
    4.0621    1.7659   -6.7165 O   0  0  0  0  0  0  0  0  0  0  0  0
    5.1890    0.9990   -8.7014 C   0  0  0  0  0  0  0  0  0  0  0  0
    6.4770    1.4741   -8.5643 C   0  0  0  0  0  0  0  0  0  0  0  0
    7.4035    1.1614   -9.5525 C   0  0  0  0  0  0  0  0  0  0  0  0
    9.0248    1.7255   -9.4454 Cl  0  0  0  0  0  0  0  0  0  0  0  0
    7.0078    0.3793  -10.6399 C   0  0  0  0  0  0  0  0  0  0  0  0
    7.9074    0.0761  -11.5832 F   0  0  0  0  0  0  0  0  0  0  0  0
    5.7159   -0.1030  -10.7831 C   0  0  0  0  0  0  0  0  0  0  0  0
    4.7943    0.2136   -9.7978 C   0  0  0  0  0  0  0  0  0  0  0  0
    3.3828   -0.1275   -9.6477 C   0  0  0  0  0  0  0  0  0  0  0  0
    2.6092   -0.7830  -10.5702 C   0  0  0  0  0  0  0  0  0  0  0  0
    1.2221   -1.0011  -10.4323 C   0  0  0  0  0  0  0  0  0  0  0  0
    0.0889   -1.1815  -10.3913 N   0  0  0  0  0  0  0  0  0  0  0  0
    3.0979   -1.2918  -11.7912 C   0  0  0  0  0  0  0  0  0  0  0  0
    3.4444   -1.7344  -12.7918 N   0  0  0  0  0  0  0  0  0  0  0  0
    1.2605    0.7202   -6.5796 C   0  0  0  0  0  0  0  0  0  0  0  0
    1.2723    2.0524   -6.1854 C   0  0  0  0  0  0  0  0  0  0  0  0
    1.6645    3.1846   -7.0757 C   0  0  0  0  0  0  0  0  0  0  0  0
    0.5094    4.1634   -7.2919 C   0  0  0  0  0  0  0  0  0  0  0  0
    0.7412    2.2446   -4.9009 C   0  0  0  0  0  0  0  0  0  0  0  0
    0.6239    3.6953   -3.9267 S   0  0  0  0  0  0  0  0  0  0  0  0
   -0.0224    2.7616   -2.6281 C   0  0  0  0  0  0  0  0  0  0  0  0
   -0.4790    2.9354   -1.3101 C   0  0  0  0  0  0  0  0  0  0  0  0
   -0.7297    4.0771   -0.5134 C   0  0  0  0  0  0  0  0  0  0  0  0
   -1.3394    3.9107    0.7805 C   0  0  0  0  0  0  0  0  0  0  0  0
   -1.5831    5.0684    1.3726 N   0  0  0  0  0  0  0  0  0  0  0  0
   -1.0857    6.2625    0.4011 S   0  0  0  0  0  0  0  0  0  0  0  0
   -0.5400    5.3504   -0.8188 N   0  0  0  0  0  0  0  0  0  0  0  0
   -1.5254    2.6053    1.2933 C   0  0  0  0  0  0  0  0  0  0  0  0
   -1.9081    2.1147    2.5517 C   0  0  0  0  0  0  0  0  0  0  0  0
   -2.4842    2.7020    4.0701 S   0  0  0  0  0  0  0  0  0  0  0  0
   -2.4381    1.0589    4.6939 C   0  0  0  0  0  0  0  0  0  0  0  0
   -2.7536    0.5820    5.9580 C   0  0  0  0  0  0  0  0  0  0  0  0
   -3.1857    1.5077    7.0502 C   0  0  0  0  0  0  0  0  0  0  0  0
   -1.9895    1.9296    7.9083 C   0  0  0  0  0  0  0  0  0  0  0  0
   -2.5558   -0.8075    6.1018 C   0  0  0  0  0  0  0  0  0  0  0  0
   -1.9285   -1.6017    4.4807 Se  0  0  0  0  0  2  0  0  0  0  0  0
   -1.9954    0.1102    3.7519 C   0  0  0  0  0  0  0  0  0  0  0  0
   -1.7090    0.7265    2.5334 C   0  0  0  0  0  0  0  0  0  0  0  0
   -1.2530    0.3324    1.2991 N   0  0  0  0  0  0  0  0  0  0  0  0
   -1.1611    1.4682    0.5205 C   0  0  0  0  0  0  0  0  0  0  0  0
   -0.8097    1.6387   -0.8346 C   0  0  0  0  0  0  0  0  0  0  0  0
   -0.6424    0.7163   -1.8506 N   0  0  0  0  0  0  0  0  0  0  0  0
   -0.1500    1.3999   -2.9352 C   0  0  0  0  0  0  0  0  0  0  0  0
    0.2706    1.1016   -4.2336 C   0  0  0  0  0  0  0  0  0  0  0  0
    0.4115   -0.4155   -5.2998 Se  0  0  0  0  0  2  0  0  0  0  0  0
   -1.3939   -0.5079   -2.0380 C   0  0  0  0  0  0  0  0  0  0  0  0
   -2.5912   -0.2881   -2.9621 C   0  0  0  0  0  0  0  0  0  0  0  0
   -0.4666   -0.8783    1.1810 C   0  0  0  0  0  0  0  0  0  0  0  0
    0.8131   -0.7876    2.0112 C   0  0  0  0  0  0  0  0  0  0  0  0
   -2.7976   -1.4651    7.3079 C   0  0  0  0  0  0  0  0  0  0  0  0
   -2.6431   -2.7863    7.6745 C   0  0  0  0  0  0  0  0  0  0  0  0
   -2.1664   -3.8581    6.8159 C   0  0  0  0  0  0  0  0  0  0  0  0
   -1.8354   -3.7774    5.6378 O   0  0  0  0  0  0  0  0  0  0  0  0
   -2.1573   -5.0808    7.6349 C   0  0  0  0  0  0  0  0  0  0  0  0
   -1.7840   -6.3640    7.2842 C   0  0  0  0  0  0  0  0  0  0  0  0
   -1.8653   -7.3609    8.2438 C   0  0  0  0  0  0  0  0  0  0  0  0
   -2.3163   -7.0487    9.5190 C   0  0  0  0  0  0  0  0  0  0  0  0
   -2.4204   -8.4319   10.8172 Br  0  0  0  0  0  0  0  0  0  0  0  0
   -2.6957   -5.7620    9.8873 C   0  0  0  0  0  0  0  0  0  0  0  0
   -2.6122   -4.7676    8.9287 C   0  0  0  0  0  0  0  0  0  0  0  0
   -2.9230   -3.3354    8.9843 C   0  0  0  0  0  0  0  0  0  0  0  0
   -3.3861   -2.6743   10.0926 C   0  0  0  0  0  0  0  0  0  0  0  0
   -3.6327   -3.2913   11.3378 C   0  0  0  0  0  0  0  0  0  0  0  0
   -3.8481   -3.7279   12.3771 N   0  0  0  0  0  0  0  0  0  0  0  0
   -3.6835   -1.2973   10.1673 C   0  0  0  0  0  0  0  0  0  0  0  0
   -3.9469   -0.1883   10.3122 N   0  0  0  0  0  0  0  0  0  0  0  0
    1.2258   -0.7735   -8.0788 H   0  0  0  0  0  0  0  0  0  0  0  0
    6.7543    2.0735   -7.7120 H   0  0  0  0  0  0  0  0  0  0  0  0
    5.4753   -0.7070  -11.6429 H   0  0  0  0  0  0  0  0  0  0  0  0
    1.9846    2.7960   -8.0424 H   0  0  0  0  0  0  0  0  0  0  0  0
    2.5129    3.7040   -6.6233 H   0  0  0  0  0  0  0  0  0  0  0  0
    0.2160    4.6424   -6.3624 H   0  0  0  0  0  0  0  0  0  0  0  0
   -0.3528    3.6438   -7.7049 H   0  0  0  0  0  0  0  0  0  0  0  0
    0.8148    4.9353   -7.9933 H   0  0  0  0  0  0  0  0  0  0  0  0
   -3.9436    1.0474    7.6857 H   0  0  0  0  0  0  0  0  0  0  0  0
   -3.6230    2.3970    6.5913 H   0  0  0  0  0  0  0  0  0  0  0  0
   -1.2466    2.4376    7.2976 H   0  0  0  0  0  0  0  0  0  0  0  0
   -1.5237    1.0643    8.3744 H   0  0  0  0  0  0  0  0  0  0  0  0
   -2.3200    2.6054    8.6917 H   0  0  0  0  0  0  0  0  0  0  0  0
   -1.7648   -0.8526   -1.0743 H   0  0  0  0  0  0  0  0  0  0  0  0
   -0.7266   -1.2640   -2.4696 H   0  0  0  0  0  0  0  0  0  0  0  0
   -3.2325    0.4969   -2.5669 H   0  0  0  0  0  0  0  0  0  0  0  0
   -3.1666   -1.2066   -3.0341 H   0  0  0  0  0  0  0  0  0  0  0  0
   -2.2683   -0.0053   -3.9618 H   0  0  0  0  0  0  0  0  0  0  0  0
   -0.1915   -1.0375    0.1407 H   0  0  0  0  0  0  0  0  0  0  0  0
   -1.0775   -1.7182    1.5344 H   0  0  0  0  0  0  0  0  0  0  0  0
    1.4085   -1.6831    1.8584 H   0  0  0  0  0  0  0  0  0  0  0  0
    1.3976    0.0791    1.7094 H   0  0  0  0  0  0  0  0  0  0  0  0
    0.5845   -0.7050    3.0718 H   0  0  0  0  0  0  0  0  0  0  0  0
   -3.1636   -0.8117    8.0889 H   0  0  0  0  0  0  0  0  0  0  0  0
   -1.4380   -6.5757    6.2846 H   0  0  0  0  0  0  0  0  0  0  0  0
   -1.5820   -8.3752    8.0091 H   0  0  0  0  0  0  0  0  0  0  0  0
   -3.0393   -5.5694   10.8904 H   0  0  0  0  0  0  0  0  0  0  0  0
  1  2  2  0  0  0  0
  2  3  1  0  0  0  0
  3  4  2  0  0  0  0
  3  5  1  0  0  0  0
  5  6  2  0  0  0  0
  6  7  1  0  0  0  0
  7  8  1  0  0  0  0
  7  9  2  0  0  0  0
  9 10  1  0  0  0  0
  9 11  1  0  0  0  0
 11 12  2  0  0  0  0
 12 13  1  0  0  0  0
 13 14  2  0  0  0  0
 14 15  1  0  0  0  0
 15 16  3  0  0  0  0
 14 17  1  0  0  0  0
 17 18  3  0  0  0  0
  1 19  1  0  0  0  0
 19 20  2  0  0  0  0
 20 21  1  0  0  0  0
 21 22  1  0  0  0  0
 20 23  1  0  0  0  0
 23 24  1  0  0  0  0
 24 25  1  0  0  0  0
 25 26  1  0  0  0  0
 26 27  1  0  0  0  0
 27 28  1  0  0  0  0
 28 29  2  0  0  0  0
 29 30  1  0  0  0  0
 30 31  1  0  0  0  0
 28 32  1  0  0  0  0
 32 33  1  0  0  0  0
 33 34  1  0  0  0  0
 34 35  1  0  0  0  0
 35 36  1  0  0  0  0
 36 37  1  0  0  0  0
 37 38  1  0  0  0  0
 36 39  2  0  0  0  0
 39 40  1  0  0  0  0
 40 41  1  0  0  0  0
 41 42  1  0  0  0  0
 42 43  1  0  0  0  0
 43 44  1  0  0  0  0
 44 45  1  0  0  0  0
 45 46  1  0  0  0  0
 46 47  1  0  0  0  0
 47 48  1  0  0  0  0
 48 49  1  0  0  0  0
 46 50  1  0  0  0  0
 50 51  1  0  0  0  0
 43 52  1  0  0  0  0
 52 53  1  0  0  0  0
 39 54  1  0  0  0  0
 54 55  2  0  0  0  0
 55 56  1  0  0  0  0
 56 57  2  0  0  0  0
 56 58  1  0  0  0  0
 58 59  2  0  0  0  0
 59 60  1  0  0  0  0
 60 61  2  0  0  0  0
 61 62  1  0  0  0  0
 61 63  1  0  0  0  0
 63 64  2  0  0  0  0
 64 65  1  0  0  0  0
 65 66  2  0  0  0  0
 66 67  1  0  0  0  0
 67 68  3  0  0  0  0
 66 69  1  0  0  0  0
 69 70  3  0  0  0  0
 13  2  1  0  0  0  0
 49 19  1  0  0  0  0
 65 55  1  0  0  0  0
 12  5  1  0  0  0  0
 48 23  2  0  0  0  0
 64 58  1  0  0  0  0
 47 25  2  0  0  0  0
 45 26  2  0  0  0  0
 31 27  2  0  0  0  0
 44 32  2  0  0  0  0
 42 33  2  0  0  0  0
 41 35  2  0  0  0  0
  1 71  1  0  0  0  0
  6 72  1  0  0  0  0
 11 73  1  0  0  0  0
 21 74  1  0  0  0  0
 21 75  1  0  0  0  0
 22 76  1  0  0  0  0
 22 77  1  0  0  0  0
 22 78  1  0  0  0  0
 37 79  1  0  0  0  0
 37 80  1  0  0  0  0
 38 81  1  0  0  0  0
 38 82  1  0  0  0  0
 38 83  1  0  0  0  0
 50 84  1  0  0  0  0
 50 85  1  0  0  0  0
 51 86  1  0  0  0  0
 51 87  1  0  0  0  0
 51 88  1  0  0  0  0
 52 89  1  0  0  0  0
 52 90  1  0  0  0  0
 53 91  1  0  0  0  0
 53 92  1  0  0  0  0
 53 93  1  0  0  0  0
 54 94  1  0  0  0  0
 59 95  1  0  0  0  0
 60 96  1  0  0  0  0
 63 97  1  0  0  0  0
M  END
