92

C         -6.25060        4.66150       -1.89840
C         -7.05830        5.23020       -0.94530
C         -8.33500        5.83930       -1.39210
O         -8.68180        6.05390       -2.53080
C         -9.10760        6.08410       -0.15140
C        -10.39830        6.55140       -0.01710
C        -10.92530        6.67470        1.26380
Cl       -12.52890        7.25020        1.50150
C        -10.14020        6.32490        2.36350
F        -10.65770        6.43130        3.59400
C         -8.83780        5.86560        2.23640
C         -8.31560        5.74590        0.95930
C         -6.98950        5.33770        0.48860
C         -5.86600        5.31710        1.28050
C         -5.88280        5.46630        2.68140
N         -5.82420        5.53570        3.82630
C         -4.54680        5.21040        0.80250
N         -3.44320        5.14530        0.49040
C         -5.20900        3.73300       -1.78100
S         -4.15950        3.49270       -3.18590
C         -3.22760        2.35010       -2.31380
C         -2.08020        1.57180       -2.41750
S         -0.79130        1.30190       -3.55480
C         -0.04360        0.27490       -2.38390
C          1.13700       -0.47620       -2.27470
C          2.18080       -0.72190       -3.19380
C          3.24760       -1.60190       -2.81080
N          4.13280       -1.77560       -3.78050
S          3.66520       -0.90540       -5.06260
N          2.31740       -0.27220       -4.43170
C          3.27230       -2.10810       -1.49380
C          4.22720       -2.87220       -0.80870
S          5.70160       -3.66990       -1.13170
C          5.77970       -4.18690        0.54580
C          4.69270       -3.76550        1.30820
C          4.52500       -4.13740        2.75200
C          5.29350       -3.18990        3.67810
C          3.81930       -2.98510        0.52680
N          2.62270       -2.31160        0.68590
C          2.26060       -1.79380       -0.55070
C          1.12400       -1.07060       -0.98640
N         -0.06850       -0.74070       -0.35080
C         -0.76100        0.11070       -1.19090
C         -1.93270        0.88410       -1.18400
N         -2.95880        1.23460       -0.33800
C         -3.74920        2.13070       -1.01340
C         -4.85960        2.90370       -0.71840
C         -3.10280        0.98270        1.07570
C         -4.20400       -0.03620        1.36500
C         -0.79190       -1.58120        0.58570
C         -0.65920       -3.06700        0.26290
C          2.19620       -1.79680        1.97120
C          2.25310       -0.27190        2.02960
C          6.87650       -4.95910        1.01240
C          7.97560       -5.32340        0.31320
C          8.98640       -6.08460        0.92220
N          9.82130       -6.69540        1.42110
C          8.25740       -5.00680       -1.13200
O          8.00670       -5.75070       -2.04050
O          8.87960       -3.83580       -1.23320
C          9.29580       -3.41330       -2.53680
C          8.26500       -2.50320       -3.18690
H         -6.51110        4.94320       -2.91480
H        -10.98080        6.81510       -0.88530
H         -8.28530        5.61270        3.12670
H          3.46450       -4.13990        3.01070
H          4.88880       -5.15480        2.90570
H          6.35830       -3.23360        3.46320
H          4.96840       -2.15960        3.54680
H          5.13770       -3.47190        4.71660
H         -5.42740        2.85210        0.19260
H         -3.34880        1.93320        1.56070
H         -2.14360        0.64470        1.47140
H         -4.28440       -0.19940        2.43600
H         -3.99760       -0.98870        0.88140
H         -5.15950        0.32740        0.99620
H         -0.48240       -1.37280        1.61420
H         -1.84370       -1.31040        0.49420
H         -1.00280       -3.25860       -0.75120
H          0.36730       -3.41100        0.34350
H         -1.27310       -3.64230        0.95160
H          1.19680       -2.16140        2.21810
H          2.88060       -2.19340        2.71750
H          1.99170        0.06470        3.02970
H          3.26000        0.07070        1.80110
H          1.57010        0.18460        1.31940
H          6.82750       -5.28240        2.04490
H         10.23760       -2.88400       -2.37350
H          9.46830       -4.30070       -3.15380
H          8.66430       -2.12090       -4.12190
H          8.03440       -1.66720       -2.53150
H          7.34760       -3.04780       -3.39430
