
  xtb     02012218503D
 energy: -195.883432015473 gnorm: 0.000749079023 xtb: 6.4.1 (unknown)
103114  0     0  0            999 V2000
    7.9693    1.2886   -3.5117 C   0  0  0  0  0  0  0  0  0  0  0  0
    8.6698    2.2991   -4.1154 C   0  0  0  0  0  0  0  0  0  0  0  0
    8.1276    3.6562   -4.3398 C   0  0  0  0  0  0  0  0  0  0  0  0
    7.0464    4.0889   -4.0054 O   0  0  0  0  0  0  0  0  0  0  0  0
    9.1177    4.3335   -5.2084 C   0  0  0  0  0  0  0  0  0  0  0  0
    9.0820    5.6227   -5.6985 C   0  0  0  0  0  0  0  0  0  0  0  0
   10.1244    6.0466   -6.5144 C   0  0  0  0  0  0  0  0  0  0  0  0
   10.1483    7.6450   -7.1493 Cl  0  0  0  0  0  0  0  0  0  0  0  0
   11.1601    5.1601   -6.8184 C   0  0  0  0  0  0  0  0  0  0  0  0
   12.1571    5.5734   -7.6098 F   0  0  0  0  0  0  0  0  0  0  0  0
   11.1988    3.8614   -6.3351 C   0  0  0  0  0  0  0  0  0  0  0  0
   10.1614    3.4440   -5.5162 C   0  0  0  0  0  0  0  0  0  0  0  0
    9.9097    2.1702   -4.8474 C   0  0  0  0  0  0  0  0  0  0  0  0
   10.7450    1.0823   -4.8503 C   0  0  0  0  0  0  0  0  0  0  0  0
   10.5189   -0.1016   -4.1176 C   0  0  0  0  0  0  0  0  0  0  0  0
   10.4073   -1.0836   -3.5328 N   0  0  0  0  0  0  0  0  0  0  0  0
   11.9536    1.0173   -5.5736 C   0  0  0  0  0  0  0  0  0  0  0  0
   12.9416    0.9067   -6.1475 N   0  0  0  0  0  0  0  0  0  0  0  0
    6.8898    1.4242   -2.6131 C   0  0  0  0  0  0  0  0  0  0  0  0
    6.6881    2.3138   -1.5649 C   0  0  0  0  0  0  0  0  0  0  0  0
    7.6783    3.3359   -1.1020 C   0  0  0  0  0  0  0  0  0  0  0  0
    7.1103    4.7557   -1.1106 C   0  0  0  0  0  0  0  0  0  0  0  0
    5.5149    2.0478   -0.8419 C   0  0  0  0  0  0  0  0  0  0  0  0
    4.8397    2.8668    0.5517 S   0  0  0  0  0  0  0  0  0  0  0  0
    3.5122    1.7669    0.5382 C   0  0  0  0  0  0  0  0  0  0  0  0
    2.3097    1.5396    1.2233 C   0  0  0  0  0  0  0  0  0  0  0  0
    1.6770    2.2833    2.2432 C   0  0  0  0  0  0  0  0  0  0  0  0
    0.3655    1.8939    2.6697 C   0  0  0  0  0  0  0  0  0  0  0  0
   -0.1313    2.7098    3.5864 N   0  0  0  0  0  0  0  0  0  0  0  0
    0.9601    3.8654    3.8896 S   0  0  0  0  0  0  0  0  0  0  0  0
    2.1086    3.3711    2.8623 N   0  0  0  0  0  0  0  0  0  0  0  0
   -0.1979    0.7120    2.1417 C   0  0  0  0  0  0  0  0  0  0  0  0
   -1.3803    0.0346    2.4718 C   0  0  0  0  0  0  0  0  0  0  0  0
   -2.7479    0.2174    3.5064 S   0  0  0  0  0  0  0  0  0  0  0  0
   -3.3306   -1.3499    2.9896 C   0  0  0  0  0  0  0  0  0  0  0  0
   -4.5129   -2.0298    3.3262 C   0  0  0  0  0  0  0  0  0  0  0  0
   -5.4255   -1.5659    4.4129 C   0  0  0  0  0  0  0  0  0  0  0  0
   -4.6960   -1.4628    5.7535 C   0  0  0  0  0  0  0  0  0  0  0  0
   -4.6554   -3.2310    2.6494 C   0  0  0  0  0  0  0  0  0  0  0  0
   -3.1443   -3.6394    1.5620 Se  0  0  0  0  0  2  0  0  0  0  0  0
   -2.4826   -1.9710    2.0585 C   0  0  0  0  0  0  0  0  0  0  0  0
   -1.3764   -1.1676    1.7578 C   0  0  0  0  0  0  0  0  0  0  0  0
   -0.2487   -1.2444    0.9841 N   0  0  0  0  0  0  0  0  0  0  0  0
    0.4858   -0.0888    1.1799 C   0  0  0  0  0  0  0  0  0  0  0  0
    1.7000    0.3975    0.6269 C   0  0  0  0  0  0  0  0  0  0  0  0
    2.5093   -0.0342   -0.4141 N   0  0  0  0  0  0  0  0  0  0  0  0
    3.5942    0.8047   -0.4723 C   0  0  0  0  0  0  0  0  0  0  0  0
    4.7353    0.9585   -1.2657 C   0  0  0  0  0  0  0  0  0  0  0  0
    5.5317    0.0869   -2.7028 Se  0  0  0  0  0  2  0  0  0  0  0  0
    2.1767   -0.7757   -1.6096 C   0  0  0  0  0  0  0  0  0  0  0  0
    1.4138    0.1005   -2.6009 C   0  0  0  0  0  0  0  0  0  0  0  0
    0.1084   -2.5065    0.3816 C   0  0  0  0  0  0  0  0  0  0  0  0
   -0.6320   -2.7448   -0.9344 C   0  0  0  0  0  0  0  0  0  0  0  0
   -5.7183   -4.1597    2.6400 C   0  0  0  0  0  0  0  0  0  0  0  0
   -7.0524   -3.8575    2.6555 C   0  0  0  0  0  0  0  0  0  0  0  0
   -7.6101   -2.5380    2.2784 C   0  0  0  0  0  0  0  0  0  0  0  0
   -7.0133   -1.5010    2.0823 O   0  0  0  0  0  0  0  0  0  0  0  0
   -9.0564   -2.7754    2.0747 C   0  0  0  0  0  0  0  0  0  0  0  0
  -10.0193   -1.8769    1.6733 C   0  0  0  0  0  0  0  0  0  0  0  0
  -11.3305   -2.3356    1.5417 C   0  0  0  0  0  0  0  0  0  0  0  0
  -12.2456   -1.4065    1.0919 O   0  0  0  0  0  0  0  0  0  0  0  0
  -13.5486   -1.4199    1.4540 C   0  0  0  0  0  0  0  0  0  0  0  0
  -14.0358   -2.2026    2.2183 O   0  0  0  0  0  0  0  0  0  0  0  0
  -14.2686   -0.2883    0.7761 C   0  0  0  0  0  0  0  0  0  0  0  0
  -11.6468   -3.6668    1.7969 C   0  0  0  0  0  0  0  0  0  0  0  0
  -10.6689   -4.5641    2.2025 C   0  0  0  0  0  0  0  0  0  0  0  0
   -9.3637   -4.1209    2.3453 C   0  0  0  0  0  0  0  0  0  0  0  0
   -8.1405   -4.8100    2.7415 C   0  0  0  0  0  0  0  0  0  0  0  0
   -8.0475   -6.1009    3.1915 C   0  0  0  0  0  0  0  0  0  0  0  0
   -9.1371   -6.9929    3.2669 C   0  0  0  0  0  0  0  0  0  0  0  0
   -9.9818   -7.7672    3.3343 N   0  0  0  0  0  0  0  0  0  0  0  0
   -6.8580   -6.6923    3.6664 C   0  0  0  0  0  0  0  0  0  0  0  0
   -5.9292   -7.2222    4.0854 N   0  0  0  0  0  0  0  0  0  0  0  0
    8.2268    0.2666   -3.7724 H   0  0  0  0  0  0  0  0  0  0  0  0
    8.2672    6.2838   -5.4501 H   0  0  0  0  0  0  0  0  0  0  0  0
   12.0232    3.2251   -6.6129 H   0  0  0  0  0  0  0  0  0  0  0  0
    8.5723    3.2924   -1.7252 H   0  0  0  0  0  0  0  0  0  0  0  0
    7.9646    3.0776   -0.0771 H   0  0  0  0  0  0  0  0  0  0  0  0
    6.2858    4.8456   -0.4090 H   0  0  0  0  0  0  0  0  0  0  0  0
    6.7524    5.0096   -2.1040 H   0  0  0  0  0  0  0  0  0  0  0  0
    7.8873    5.4604   -0.8253 H   0  0  0  0  0  0  0  0  0  0  0  0
   -6.2577   -2.2619    4.5166 H   0  0  0  0  0  0  0  0  0  0  0  0
   -5.8318   -0.5909    4.1336 H   0  0  0  0  0  0  0  0  0  0  0  0
   -4.2690   -2.4261    6.0252 H   0  0  0  0  0  0  0  0  0  0  0  0
   -5.3987   -1.1668    6.5280 H   0  0  0  0  0  0  0  0  0  0  0  0
   -3.8987   -0.7263    5.7144 H   0  0  0  0  0  0  0  0  0  0  0  0
    3.1255   -1.0980   -2.0567 H   0  0  0  0  0  0  0  0  0  0  0  0
    1.6012   -1.6628   -1.3748 H   0  0  0  0  0  0  0  0  0  0  0  0
    1.1752   -0.4702   -3.4940 H   0  0  0  0  0  0  0  0  0  0  0  0
    0.4898    0.4635   -2.1546 H   0  0  0  0  0  0  0  0  0  0  0  0
    2.0169    0.9586   -2.8891 H   0  0  0  0  0  0  0  0  0  0  0  0
   -0.1793   -3.2977    1.0874 H   0  0  0  0  0  0  0  0  0  0  0  0
    1.1924   -2.5547    0.2670 H   0  0  0  0  0  0  0  0  0  0  0  0
   -0.5195   -1.9062   -1.6163 H   0  0  0  0  0  0  0  0  0  0  0  0
   -1.6957   -2.8767   -0.7405 H   0  0  0  0  0  0  0  0  0  0  0  0
   -0.2582   -3.6462   -1.4123 H   0  0  0  0  0  0  0  0  0  0  0  0
   -5.4310   -5.1998    2.5193 H   0  0  0  0  0  0  0  0  0  0  0  0
   -9.7726   -0.8478    1.4654 H   0  0  0  0  0  0  0  0  0  0  0  0
  -14.0340   -0.2827   -0.2849 H   0  0  0  0  0  0  0  0  0  0  0  0
  -13.9309    0.6538    1.2032 H   0  0  0  0  0  0  0  0  0  0  0  0
  -15.3379   -0.3929    0.9302 H   0  0  0  0  0  0  0  0  0  0  0  0
  -12.6625   -4.0086    1.6830 H   0  0  0  0  0  0  0  0  0  0  0  0
  -10.9395   -5.5907    2.3882 H   0  0  0  0  0  0  0  0  0  0  0  0
  1  2  2  0  0  0  0
  2  3  1  0  0  0  0
  3  4  2  0  0  0  0
  3  5  1  0  0  0  0
  5  6  2  0  0  0  0
  6  7  1  0  0  0  0
  7  8  1  0  0  0  0
  7  9  2  0  0  0  0
  9 10  1  0  0  0  0
  9 11  1  0  0  0  0
 11 12  2  0  0  0  0
 12 13  1  0  0  0  0
 13 14  2  0  0  0  0
 14 15  1  0  0  0  0
 15 16  3  0  0  0  0
 14 17  1  0  0  0  0
 17 18  3  0  0  0  0
  1 19  1  0  0  0  0
 19 20  2  0  0  0  0
 20 21  1  0  0  0  0
 21 22  1  0  0  0  0
 20 23  1  0  0  0  0
 23 24  1  0  0  0  0
 24 25  1  0  0  0  0
 25 26  1  0  0  0  0
 26 27  1  0  0  0  0
 27 28  1  0  0  0  0
 28 29  2  0  0  0  0
 29 30  1  0  0  0  0
 30 31  1  0  0  0  0
 28 32  1  0  0  0  0
 32 33  1  0  0  0  0
 33 34  1  0  0  0  0
 34 35  1  0  0  0  0
 35 36  1  0  0  0  0
 36 37  1  0  0  0  0
 37 38  1  0  0  0  0
 36 39  2  0  0  0  0
 39 40  1  0  0  0  0
 40 41  1  0  0  0  0
 41 42  1  0  0  0  0
 42 43  1  0  0  0  0
 43 44  1  0  0  0  0
 44 45  1  0  0  0  0
 45 46  1  0  0  0  0
 46 47  1  0  0  0  0
 47 48  1  0  0  0  0
 48 49  1  0  0  0  0
 46 50  1  0  0  0  0
 50 51  1  0  0  0  0
 43 52  1  0  0  0  0
 52 53  1  0  0  0  0
 39 54  1  0  0  0  0
 54 55  2  0  0  0  0
 55 56  1  0  0  0  0
 56 57  2  0  0  0  0
 56 58  1  0  0  0  0
 58 59  2  0  0  0  0
 59 60  1  0  0  0  0
 60 61  1  0  0  0  0
 61 62  1  0  0  0  0
 62 63  2  0  0  0  0
 62 64  1  0  0  0  0
 60 65  2  0  0  0  0
 65 66  1  0  0  0  0
 66 67  2  0  0  0  0
 67 68  1  0  0  0  0
 68 69  2  0  0  0  0
 69 70  1  0  0  0  0
 70 71  3  0  0  0  0
 69 72  1  0  0  0  0
 72 73  3  0  0  0  0
 13  2  1  0  0  0  0
 49 19  1  0  0  0  0
 68 55  1  0  0  0  0
 12  5  1  0  0  0  0
 48 23  2  0  0  0  0
 67 58  1  0  0  0  0
 47 25  2  0  0  0  0
 45 26  2  0  0  0  0
 31 27  2  0  0  0  0
 44 32  2  0  0  0  0
 42 33  2  0  0  0  0
 41 35  2  0  0  0  0
  1 74  1  0  0  0  0
  6 75  1  0  0  0  0
 11 76  1  0  0  0  0
 21 77  1  0  0  0  0
 21 78  1  0  0  0  0
 22 79  1  0  0  0  0
 22 80  1  0  0  0  0
 22 81  1  0  0  0  0
 37 82  1  0  0  0  0
 37 83  1  0  0  0  0
 38 84  1  0  0  0  0
 38 85  1  0  0  0  0
 38 86  1  0  0  0  0
 50 87  1  0  0  0  0
 50 88  1  0  0  0  0
 51 89  1  0  0  0  0
 51 90  1  0  0  0  0
 51 91  1  0  0  0  0
 52 92  1  0  0  0  0
 52 93  1  0  0  0  0
 53 94  1  0  0  0  0
 53 95  1  0  0  0  0
 53 96  1  0  0  0  0
 54 97  1  0  0  0  0
 59 98  1  0  0  0  0
 64 99  1  0  0  0  0
 64100  1  0  0  0  0
 64101  1  0  0  0  0
 65102  1  0  0  0  0
 66103  1  0  0  0  0
M  END
