
  xtb     02012217343D
 energy: -294.279929563454 gnorm: 0.000807487768 xtb: 6.4.1 (unknown)
173191  0     0  0            999 V2000
    0.2697    5.7481    9.3016 C   0  0  0  0  0  0  0  0  0  0  0  0
   -0.3178    5.4891   10.5200 C   0  0  0  0  0  0  0  0  0  0  0  0
   -1.0771    4.2867   10.8618 C   0  0  0  0  0  0  0  0  0  0  0  0
   -1.3050    3.3187   10.1583 O   0  0  0  0  0  0  0  0  0  0  0  0
   -1.5278    4.4729   12.2581 C   0  0  0  0  0  0  0  0  0  0  0  0
   -2.2843    3.6211   13.0356 C   0  0  0  0  0  0  0  0  0  0  0  0
   -2.5910    4.0131   14.3335 C   0  0  0  0  0  0  0  0  0  0  0  0
   -3.5319    3.0005   15.3575 Cl  0  0  0  0  0  0  0  0  0  0  0  0
   -2.1275    5.2431   14.8036 C   0  0  0  0  0  0  0  0  0  0  0  0
   -2.4264    5.6154   16.0546 F   0  0  0  0  0  0  0  0  0  0  0  0
   -1.3663    6.1032   14.0262 C   0  0  0  0  0  0  0  0  0  0  0  0
   -1.0625    5.7110   12.7325 C   0  0  0  0  0  0  0  0  0  0  0  0
   -0.3004    6.3679   11.6696 C   0  0  0  0  0  0  0  0  0  0  0  0
    0.3030    7.5954   11.7806 C   0  0  0  0  0  0  0  0  0  0  0  0
    1.0415    8.2488   10.7727 C   0  0  0  0  0  0  0  0  0  0  0  0
    1.6572    8.8488   10.0102 N   0  0  0  0  0  0  0  0  0  0  0  0
    0.2662    8.3902   12.9455 C   0  0  0  0  0  0  0  0  0  0  0  0
    0.2698    9.0903   13.8554 N   0  0  0  0  0  0  0  0  0  0  0  0
    0.2998    4.9963    8.1263 C   0  0  0  0  0  0  0  0  0  0  0  0
    0.9369    5.4693    6.9644 C   0  0  0  0  0  0  0  0  0  0  0  0
    0.8249    4.6036    5.9061 C   0  0  0  0  0  0  0  0  0  0  0  0
    1.2859    4.5576    4.4663 C   0  0  0  0  0  0  0  0  0  0  0  0
    0.6960    5.6331    3.5724 C   0  0  0  0  0  0  0  0  0  0  0  0
   -0.4193    6.3670    3.9468 C   0  0  0  0  0  0  0  0  0  0  0  0
   -0.9611    7.3014    3.0822 C   0  0  0  0  0  0  0  0  0  0  0  0
   -0.4150    7.5126    1.8237 C   0  0  0  0  0  0  0  0  0  0  0  0
   -0.9793    8.5559    0.9034 C   0  0  0  0  0  0  0  0  0  0  0  0
   -0.2635    9.8924    1.1099 C   0  0  0  0  0  0  0  0  0  0  0  0
    0.6965    6.7663    1.4520 C   0  0  0  0  0  0  0  0  0  0  0  0
    1.2465    5.8373    2.3130 C   0  0  0  0  0  0  0  0  0  0  0  0
    2.8038    4.5972    4.4462 C   0  0  0  0  0  0  0  0  0  0  0  0
    3.5668    3.4463    4.3211 C   0  0  0  0  0  0  0  0  0  0  0  0
    4.9480    3.5189    4.3387 C   0  0  0  0  0  0  0  0  0  0  0  0
    5.5982    4.7350    4.4934 C   0  0  0  0  0  0  0  0  0  0  0  0
    7.0971    4.8142    4.4659 C   0  0  0  0  0  0  0  0  0  0  0  0
    7.5940    5.0063    3.0315 C   0  0  0  0  0  0  0  0  0  0  0  0
    4.8274    5.8835    4.6267 C   0  0  0  0  0  0  0  0  0  0  0  0
    3.4481    5.8177    4.6058 C   0  0  0  0  0  0  0  0  0  0  0  0
    0.7048    3.2311    4.0457 C   0  0  0  0  0  0  0  0  0  0  0  0
    0.0438    2.6091    5.1040 C   0  0  0  0  0  0  0  0  0  0  0  0
    0.1151    3.4353    6.2463 C   0  0  0  0  0  0  0  0  0  0  0  0
   -0.4298    3.4134    7.8649 S   0  0  0  0  0  0  0  0  0  0  0  0
   -0.6682    1.0911    4.6817 S   0  0  0  0  0  0  0  0  0  0  0  0
   -0.1003    1.2897    3.0535 C   0  0  0  0  0  0  0  0  0  0  0  0
    0.6117    2.4805    2.8789 C   0  0  0  0  0  0  0  0  0  0  0  0
    1.2019    2.6771    1.2609 S   0  0  0  0  0  0  0  0  0  0  0  0
    0.5136    1.1277    0.8146 C   0  0  0  0  0  0  0  0  0  0  0  0
    0.6046    0.5819   -0.4579 C   0  0  0  0  0  0  0  0  0  0  0  0
    1.2338    1.3014   -1.5526 C   0  0  0  0  0  0  0  0  0  0  0  0
    0.6991    1.6048   -2.7703 C   0  0  0  0  0  0  0  0  0  0  0  0
    1.5759    2.3422   -3.5916 C   0  0  0  0  0  0  0  0  0  0  0  0
    2.7760    2.6012   -3.0063 C   0  0  0  0  0  0  0  0  0  0  0  0
    3.9577    3.3022   -3.5815 C   0  0  0  0  0  0  0  0  0  0  0  0
    5.0592    2.3091   -3.9581 C   0  0  0  0  0  0  0  0  0  0  0  0
    2.8462    1.9366   -1.4071 S   0  0  0  0  0  0  0  0  0  0  0  0
    0.0441   -0.6930   -0.6432 C   0  0  0  0  0  0  0  0  0  0  0  0
   -0.6187   -1.3372    0.4317 C   0  0  0  0  0  0  0  0  0  0  0  0
   -0.7706   -0.7612    1.6846 C   0  0  0  0  0  0  0  0  0  0  0  0
   -1.5274   -1.4479    2.7194 C   0  0  0  0  0  0  0  0  0  0  0  0
   -1.3396   -2.7105    3.1987 C   0  0  0  0  0  0  0  0  0  0  0  0
   -2.2877   -3.0761    4.1766 C   0  0  0  0  0  0  0  0  0  0  0  0
   -3.2118   -2.1095    4.4235 C   0  0  0  0  0  0  0  0  0  0  0  0
   -4.3220   -2.1115    5.4157 C   0  0  0  0  0  0  0  0  0  0  0  0
   -3.9839   -1.2208    6.6136 C   0  0  0  0  0  0  0  0  0  0  0  0
   -2.9234   -0.7082    3.4458 S   0  0  0  0  0  0  0  0  0  0  0  0
   -0.1730    0.4944    1.8830 C   0  0  0  0  0  0  0  0  0  0  0  0
   -1.2391   -2.9220    0.0089 S   0  0  0  0  0  0  0  0  0  0  0  0
   -0.5955   -2.7519   -1.5940 C   0  0  0  0  0  0  0  0  0  0  0  0
   -0.5753   -3.5585   -2.7280 C   0  0  0  0  0  0  0  0  0  0  0  0
    0.0908   -2.9354   -3.7813 C   0  0  0  0  0  0  0  0  0  0  0  0
    0.6937   -1.3612   -3.3915 S   0  0  0  0  0  0  0  0  0  0  0  0
    0.0423   -1.5241   -1.7903 C   0  0  0  0  0  0  0  0  0  0  0  0
    0.0771   -3.7859   -4.9093 C   0  0  0  0  0  0  0  0  0  0  0  0
    0.5879   -3.7426   -6.5395 S   0  0  0  0  0  0  0  0  0  0  0  0
   -0.0832   -5.3521   -6.7863 C   0  0  0  0  0  0  0  0  0  0  0  0
   -0.6682   -5.8542   -5.6115 C   0  0  0  0  0  0  0  0  0  0  0  0
   -0.5786   -4.9795   -4.5565 C   0  0  0  0  0  0  0  0  0  0  0  0
   -1.0341   -4.9426   -3.1147 C   0  0  0  0  0  0  0  0  0  0  0  0
   -2.5348   -5.1500   -3.0590 C   0  0  0  0  0  0  0  0  0  0  0  0
   -3.4190   -4.0882   -2.9475 C   0  0  0  0  0  0  0  0  0  0  0  0
   -4.7836   -4.3152   -2.9244 C   0  0  0  0  0  0  0  0  0  0  0  0
   -5.2960   -5.6006   -3.0259 C   0  0  0  0  0  0  0  0  0  0  0  0
   -6.7746   -5.8497   -2.9520 C   0  0  0  0  0  0  0  0  0  0  0  0
   -7.1981   -6.1157   -1.5059 C   0  0  0  0  0  0  0  0  0  0  0  0
   -4.4044   -6.6594   -3.1495 C   0  0  0  0  0  0  0  0  0  0  0  0
   -3.0414   -6.4394   -3.1672 C   0  0  0  0  0  0  0  0  0  0  0  0
   -0.3092   -5.9244   -2.2086 C   0  0  0  0  0  0  0  0  0  0  0  0
   -0.8041   -6.1549   -0.9309 C   0  0  0  0  0  0  0  0  0  0  0  0
   -0.1375   -6.9997   -0.0650 C   0  0  0  0  0  0  0  0  0  0  0  0
    1.0391   -7.6312   -0.4487 C   0  0  0  0  0  0  0  0  0  0  0  0
    1.7357   -8.5877    0.4754 C   0  0  0  0  0  0  0  0  0  0  0  0
    1.2139  -10.0102    0.2624 C   0  0  0  0  0  0  0  0  0  0  0  0
    1.5302   -7.3920   -1.7248 C   0  0  0  0  0  0  0  0  0  0  0  0
    0.8701   -6.5434   -2.5952 C   0  0  0  0  0  0  0  0  0  0  0  0
   -0.0745   -6.0892   -7.9743 C   0  0  0  0  0  0  0  0  0  0  0  0
    0.4115   -5.7743   -9.2207 C   0  0  0  0  0  0  0  0  0  0  0  0
    1.0524   -4.5107   -9.5949 C   0  0  0  0  0  0  0  0  0  0  0  0
    1.2962   -3.5571   -8.8758 O   0  0  0  0  0  0  0  0  0  0  0  0
    1.3499   -4.6145  -11.0357 C   0  0  0  0  0  0  0  0  0  0  0  0
    1.9365   -3.6790  -11.8643 C   0  0  0  0  0  0  0  0  0  0  0  0
    2.1204   -3.9785  -13.2098 C   0  0  0  0  0  0  0  0  0  0  0  0
    2.7460   -3.0165  -14.1658 C   0  0  0  0  0  0  0  0  0  0  0  0
    1.6953   -5.2317  -13.6537 C   0  0  0  0  0  0  0  0  0  0  0  0
    1.8676   -5.5312  -14.9551 F   0  0  0  0  0  0  0  0  0  0  0  0
    1.1051   -6.1879  -12.8424 C   0  0  0  0  0  0  0  0  0  0  0  0
    0.9293   -5.8701  -11.5054 C   0  0  0  0  0  0  0  0  0  0  0  0
    0.3502   -6.6228  -10.3930 C   0  0  0  0  0  0  0  0  0  0  0  0
   -0.1418   -7.9001  -10.4792 C   0  0  0  0  0  0  0  0  0  0  0  0
   -0.6903   -8.6488   -9.4175 C   0  0  0  0  0  0  0  0  0  0  0  0
   -1.1452   -9.3286   -8.6104 N   0  0  0  0  0  0  0  0  0  0  0  0
   -0.1620   -8.6594  -11.6681 C   0  0  0  0  0  0  0  0  0  0  0  0
   -0.2067   -9.3328  -12.5967 N   0  0  0  0  0  0  0  0  0  0  0  0
    0.7941    6.6916    9.2109 H   0  0  0  0  0  0  0  0  0  0  0  0
   -2.6275    2.6772   12.6434 H   0  0  0  0  0  0  0  0  0  0  0  0
   -1.0419    7.0381   14.4527 H   0  0  0  0  0  0  0  0  0  0  0  0
    1.4384    6.4203    6.9416 H   0  0  0  0  0  0  0  0  0  0  0  0
   -0.8686    6.2129    4.9169 H   0  0  0  0  0  0  0  0  0  0  0  0
   -1.8267    7.8701    3.3906 H   0  0  0  0  0  0  0  0  0  0  0  0
   -0.8562    8.2386   -0.1340 H   0  0  0  0  0  0  0  0  0  0  0  0
   -2.0458    8.6849    1.0979 H   0  0  0  0  0  0  0  0  0  0  0  0
   -0.3862   10.2325    2.1357 H   0  0  0  0  0  0  0  0  0  0  0  0
    0.8004    9.7865    0.9099 H   0  0  0  0  0  0  0  0  0  0  0  0
   -0.6694   10.6487    0.4422 H   0  0  0  0  0  0  0  0  0  0  0  0
    1.1345    6.9105    0.4749 H   0  0  0  0  0  0  0  0  0  0  0  0
    2.1126    5.2674    2.0090 H   0  0  0  0  0  0  0  0  0  0  0  0
    3.0867    2.4855    4.2072 H   0  0  0  0  0  0  0  0  0  0  0  0
    5.5281    2.6130    4.2343 H   0  0  0  0  0  0  0  0  0  0  0  0
    7.4351    5.6516    5.0793 H   0  0  0  0  0  0  0  0  0  0  0  0
    7.5242    3.8962    4.8746 H   0  0  0  0  0  0  0  0  0  0  0  0
    8.6797    5.0646    3.0096 H   0  0  0  0  0  0  0  0  0  0  0  0
    7.2773    4.1739    2.4070 H   0  0  0  0  0  0  0  0  0  0  0  0
    7.1878    5.9233    2.6105 H   0  0  0  0  0  0  0  0  0  0  0  0
    5.3134    6.8405    4.7515 H   0  0  0  0  0  0  0  0  0  0  0  0
    2.8634    6.7207    4.7039 H   0  0  0  0  0  0  0  0  0  0  0  0
   -0.3030    1.3384   -3.0551 H   0  0  0  0  0  0  0  0  0  0  0  0
    1.3198    2.6710   -4.5829 H   0  0  0  0  0  0  0  0  0  0  0  0
    4.3521    4.0168   -2.8550 H   0  0  0  0  0  0  0  0  0  0  0  0
    3.6408    3.8538   -4.4690 H   0  0  0  0  0  0  0  0  0  0  0  0
    5.3895    1.7626   -3.0776 H   0  0  0  0  0  0  0  0  0  0  0  0
    5.9112    2.8340   -4.3826 H   0  0  0  0  0  0  0  0  0  0  0  0
    4.6893    1.5944   -4.6897 H   0  0  0  0  0  0  0  0  0  0  0  0
   -0.5296   -3.3439    2.8834 H   0  0  0  0  0  0  0  0  0  0  0  0
   -2.2826   -4.0276    4.6779 H   0  0  0  0  0  0  0  0  0  0  0  0
   -4.4920   -3.1360    5.7531 H   0  0  0  0  0  0  0  0  0  0  0  0
   -5.2390   -1.7479    4.9458 H   0  0  0  0  0  0  0  0  0  0  0  0
   -3.0775   -1.5711    7.1018 H   0  0  0  0  0  0  0  0  0  0  0  0
   -3.8237   -0.1954    6.2881 H   0  0  0  0  0  0  0  0  0  0  0  0
   -4.7964   -1.2348    7.3352 H   0  0  0  0  0  0  0  0  0  0  0  0
   -1.1302   -6.8248   -5.5786 H   0  0  0  0  0  0  0  0  0  0  0  0
   -3.0464   -3.0769   -2.8756 H   0  0  0  0  0  0  0  0  0  0  0  0
   -5.4593   -3.4772   -2.8294 H   0  0  0  0  0  0  0  0  0  0  0  0
   -7.3167   -4.9816   -3.3322 H   0  0  0  0  0  0  0  0  0  0  0  0
   -7.0356   -6.7128   -3.5676 H   0  0  0  0  0  0  0  0  0  0  0  0
   -6.9562   -5.2611   -0.8778 H   0  0  0  0  0  0  0  0  0  0  0  0
   -8.2689   -6.2966   -1.4501 H   0  0  0  0  0  0  0  0  0  0  0  0
   -6.6774   -6.9863   -1.1134 H   0  0  0  0  0  0  0  0  0  0  0  0
   -4.7828   -7.6680   -3.2346 H   0  0  0  0  0  0  0  0  0  0  0  0
   -2.3611   -7.2739   -3.2552 H   0  0  0  0  0  0  0  0  0  0  0  0
   -1.7181   -5.6723   -0.6162 H   0  0  0  0  0  0  0  0  0  0  0  0
   -0.5360   -7.1681    0.9252 H   0  0  0  0  0  0  0  0  0  0  0  0
    2.8111   -8.5675    0.2879 H   0  0  0  0  0  0  0  0  0  0  0  0
    1.5633   -8.2927    1.5124 H   0  0  0  0  0  0  0  0  0  0  0  0
    0.1440  -10.0531    0.4537 H   0  0  0  0  0  0  0  0  0  0  0  0
    1.3908  -10.3285   -0.7625 H   0  0  0  0  0  0  0  0  0  0  0  0
    1.7154  -10.7039    0.9331 H   0  0  0  0  0  0  0  0  0  0  0  0
    2.4451   -7.8712   -2.0429 H   0  0  0  0  0  0  0  0  0  0  0  0
    1.2771   -6.3670   -3.5800 H   0  0  0  0  0  0  0  0  0  0  0  0
   -0.5440   -7.0599   -7.8694 H   0  0  0  0  0  0  0  0  0  0  0  0
    2.2453   -2.7254  -11.4638 H   0  0  0  0  0  0  0  0  0  0  0  0
    2.9753   -2.0761  -13.6733 H   0  0  0  0  0  0  0  0  0  0  0  0
    3.6640   -3.4377  -14.5747 H   0  0  0  0  0  0  0  0  0  0  0  0
    2.0754   -2.8287  -15.0035 H   0  0  0  0  0  0  0  0  0  0  0  0
    0.8059   -7.1297  -13.2714 H   0  0  0  0  0  0  0  0  0  0  0  0
  1  2  2  0  0  0  0
  2  3  1  0  0  0  0
  3  4  2  0  0  0  0
  3  5  1  0  0  0  0
  5  6  2  0  0  0  0
  6  7  1  0  0  0  0
  7  8  1  0  0  0  0
  7  9  2  0  0  0  0
  9 10  1  0  0  0  0
  9 11  1  0  0  0  0
 11 12  2  0  0  0  0
 12 13  1  0  0  0  0
 13 14  2  0  0  0  0
 14 15  1  0  0  0  0
 15 16  3  0  0  0  0
 14 17  1  0  0  0  0
 17 18  3  0  0  0  0
  1 19  1  0  0  0  0
 19 20  2  0  0  0  0
 20 21  1  0  0  0  0
 21 22  1  0  0  0  0
 22 23  1  0  0  0  0
 23 24  2  0  0  0  0
 24 25  1  0  0  0  0
 25 26  2  0  0  0  0
 26 27  1  0  0  0  0
 27 28  1  0  0  0  0
 26 29  1  0  0  0  0
 29 30  2  0  0  0  0
 22 31  1  0  0  0  0
 31 32  2  0  0  0  0
 32 33  1  0  0  0  0
 33 34  2  0  0  0  0
 34 35  1  0  0  0  0
 35 36  1  0  0  0  0
 34 37  1  0  0  0  0
 37 38  2  0  0  0  0
 22 39  1  0  0  0  0
 39 40  2  0  0  0  0
 40 41  1  0  0  0  0
 41 42  1  0  0  0  0
 40 43  1  0  0  0  0
 43 44  1  0  0  0  0
 44 45  2  0  0  0  0
 45 46  1  0  0  0  0
 46 47  1  0  0  0  0
 47 48  2  0  0  0  0
 48 49  1  0  0  0  0
 49 50  2  0  0  0  0
 50 51  1  0  0  0  0
 51 52  2  0  0  0  0
 52 53  1  0  0  0  0
 53 54  1  0  0  0  0
 52 55  1  0  0  0  0
 48 56  1  0  0  0  0
 56 57  2  0  0  0  0
 57 58  1  0  0  0  0
 58 59  1  0  0  0  0
 59 60  2  0  0  0  0
 60 61  1  0  0  0  0
 61 62  2  0  0  0  0
 62 63  1  0  0  0  0
 63 64  1  0  0  0  0
 62 65  1  0  0  0  0
 58 66  2  0  0  0  0
 57 67  1  0  0  0  0
 67 68  1  0  0  0  0
 68 69  1  0  0  0  0
 69 70  2  0  0  0  0
 70 71  1  0  0  0  0
 71 72  1  0  0  0  0
 70 73  1  0  0  0  0
 73 74  1  0  0  0  0
 74 75  1  0  0  0  0
 75 76  2  0  0  0  0
 76 77  1  0  0  0  0
 77 78  1  0  0  0  0
 78 79  1  0  0  0  0
 79 80  2  0  0  0  0
 80 81  1  0  0  0  0
 81 82  2  0  0  0  0
 82 83  1  0  0  0  0
 83 84  1  0  0  0  0
 82 85  1  0  0  0  0
 85 86  2  0  0  0  0
 78 87  1  0  0  0  0
 87 88  2  0  0  0  0
 88 89  1  0  0  0  0
 89 90  2  0  0  0  0
 90 91  1  0  0  0  0
 91 92  1  0  0  0  0
 90 93  1  0  0  0  0
 93 94  2  0  0  0  0
 75 95  1  0  0  0  0
 95 96  2  0  0  0  0
 96 97  1  0  0  0  0
 97 98  2  0  0  0  0
 97 99  1  0  0  0  0
 99100  2  0  0  0  0
100101  1  0  0  0  0
101102  1  0  0  0  0
101103  2  0  0  0  0
103104  1  0  0  0  0
103105  1  0  0  0  0
105106  2  0  0  0  0
106107  1  0  0  0  0
107108  2  0  0  0  0
108109  1  0  0  0  0
109110  3  0  0  0  0
108111  1  0  0  0  0
111112  3  0  0  0  0
 13  2  1  0  0  0  0
 42 19  1  0  0  0  0
 66 44  1  0  0  0  0
 72 68  2  0  0  0  0
 77 73  2  0  0  0  0
 86 79  1  0  0  0  0
 94 87  1  0  0  0  0
107 96  1  0  0  0  0
 12  5  1  0  0  0  0
 41 21  2  0  0  0  0
 66 47  1  0  0  0  0
 78 69  1  0  0  0  0
106 99  1  0  0  0  0
 30 23  1  0  0  0  0
 38 31  1  0  0  0  0
 45 39  1  0  0  0  0
 55 49  1  0  0  0  0
 72 56  1  0  0  0  0
 65 59  1  0  0  0  0
  1113  1  0  0  0  0
  6114  1  0  0  0  0
 11115  1  0  0  0  0
 20116  1  0  0  0  0
 24117  1  0  0  0  0
 25118  1  0  0  0  0
 27119  1  0  0  0  0
 27120  1  0  0  0  0
 28121  1  0  0  0  0
 28122  1  0  0  0  0
 28123  1  0  0  0  0
 29124  1  0  0  0  0
 30125  1  0  0  0  0
 32126  1  0  0  0  0
 33127  1  0  0  0  0
 35128  1  0  0  0  0
 35129  1  0  0  0  0
 36130  1  0  0  0  0
 36131  1  0  0  0  0
 36132  1  0  0  0  0
 37133  1  0  0  0  0
 38134  1  0  0  0  0
 50135  1  0  0  0  0
 51136  1  0  0  0  0
 53137  1  0  0  0  0
 53138  1  0  0  0  0
 54139  1  0  0  0  0
 54140  1  0  0  0  0
 54141  1  0  0  0  0
 60142  1  0  0  0  0
 61143  1  0  0  0  0
 63144  1  0  0  0  0
 63145  1  0  0  0  0
 64146  1  0  0  0  0
 64147  1  0  0  0  0
 64148  1  0  0  0  0
 76149  1  0  0  0  0
 80150  1  0  0  0  0
 81151  1  0  0  0  0
 83152  1  0  0  0  0
 83153  1  0  0  0  0
 84154  1  0  0  0  0
 84155  1  0  0  0  0
 84156  1  0  0  0  0
 85157  1  0  0  0  0
 86158  1  0  0  0  0
 88159  1  0  0  0  0
 89160  1  0  0  0  0
 91161  1  0  0  0  0
 91162  1  0  0  0  0
 92163  1  0  0  0  0
 92164  1  0  0  0  0
 92165  1  0  0  0  0
 93166  1  0  0  0  0
 94167  1  0  0  0  0
 95168  1  0  0  0  0
100169  1  0  0  0  0
102170  1  0  0  0  0
102171  1  0  0  0  0
102172  1  0  0  0  0
105173  1  0  0  0  0
M  END
