105

C          0.17470       -5.01160        7.22060
C          0.45910       -4.76740        8.54470
C          0.61290       -3.40790        9.10300
O          0.35390       -2.34930        8.57170
C          1.26820       -3.60730       10.41950
C          1.66110       -2.64980       11.33110
C          2.27160       -3.07120       12.50720
Cl         2.77820       -1.92930       13.68970
C          2.47300       -4.43570       12.72540
F          3.06850       -4.83210       13.85680
C          2.08180       -5.40380       11.81310
C          1.46980       -4.98030       10.64480
C          0.93740       -5.72620        9.50850
C          0.80550       -7.08880        9.41590
C          1.27590       -7.99540       10.38610
N          1.65130       -8.77310       11.14220
C          0.13140       -7.72920        8.35610
N         -0.44810       -8.28740        7.53700
C         -0.43120       -4.10880        6.33670
C         -1.37190       -3.08270        6.53170
O         -2.16450       -2.81750        7.56950
C         -2.51150       -3.78720        8.54020
C         -3.11880       -5.05220        7.94620
C         -1.53880       -2.32130        5.35690
S         -2.52610       -0.92540        5.00530
C         -1.93830       -0.95560        3.38000
C         -2.11130       -0.25740        2.17110
C         -2.99980        0.76480        1.76290
C         -3.03950        1.14900        0.37520
N         -3.97410        2.05400        0.13230
S         -4.72970        2.40300        1.51850
N         -3.89990        1.40930        2.48790
C         -2.08650        0.60850       -0.51920
C         -1.77350        0.86810       -1.86630
S         -2.38010        1.78740       -3.19890
C         -1.05220        1.20360       -4.16730
C         -0.70090        1.42010       -5.51700
O         -1.55910        2.05610       -6.30820
C         -1.53810        1.89210       -7.71250
C         -2.95700        2.10460       -8.21740
C          0.49070        0.75680       -5.84420
S          1.06390       -0.24960       -4.50490
C         -0.19240        0.34310       -3.48200
C         -0.60970        0.14370       -2.16350
N         -0.20150       -0.57190       -1.06510
C         -1.11840       -0.32250       -0.06150
C         -1.24360       -0.87320        1.23170
N         -0.61190       -1.95290        1.81910
C         -1.02900       -1.99410        3.12710
C         -0.80290       -2.77760        4.26000
S          0.10560       -4.18930        4.65010
C         -0.18530       -3.16590        1.14850
C         -1.27630       -4.23510        1.19380
C          1.19780       -0.90760       -0.88510
C          2.07730        0.34100       -0.93800
C          1.30960        0.81940       -6.98490
C          1.50480        1.94080       -7.75300
C          1.23760        3.31290       -7.26820
O          0.69680        3.64270       -6.23360
C          1.89020        4.20400       -8.25610
C          1.95270        5.58190       -8.24610
C          2.63990        6.19950       -9.28770
O          2.80450        7.56820       -9.36870
C          1.80490        8.42230       -9.04680
O          0.69830        8.08180       -8.74180
C          2.29600        9.83830       -9.15010
C          3.25600        5.44550      -10.28440
C          3.19070        4.06210      -10.28330
C          2.49340        3.43210       -9.26360
C          2.23230        2.02100       -8.99590
C          2.52960        0.96810       -9.82340
C          2.12850       -0.36000       -9.57250
N          1.79700       -1.45090       -9.43440
C          3.22700        1.09220      -11.04110
N          3.79750        1.13760      -12.03630
H          0.54230       -5.92980        6.77630
H          1.49470       -1.60260       11.13530
H          2.26970       -6.44180       12.03550
H         -1.65220       -4.04310        9.17310
H         -3.24950       -3.26560        9.15550
H         -3.53440       -5.65660        8.74720
H         -2.37480       -5.64730        7.42140
H         -3.91520       -4.79270        7.25250
H         -1.17490        0.88800       -7.96880
H         -0.86390        2.62870       -8.16990
H         -3.30300        3.09380       -7.93210
H         -3.62490        1.36400       -7.78570
H         -2.97690        2.01620       -9.29960
H          0.03060       -2.94110        0.10610
H          0.71920       -3.53610        1.64070
H         -0.94890       -5.10940        0.63860
H         -1.48750       -4.53620        2.21570
H         -2.19130       -3.85670        0.74310
H          1.49490       -1.60480       -1.67490
H          1.32850       -1.37700        0.08820
H          3.11040        0.06360       -0.74870
H          2.02200        0.81880       -1.91170
H          1.76210        1.05460       -0.17980
H          1.91150       -0.06000       -7.18390
H          1.47520        6.14510       -7.46060
H          2.86160        9.97080      -10.06820
H          2.95770       10.04320       -8.31060
H          1.45180       10.51980       -9.11900
H          3.79140        5.96460      -11.06380
H          3.67910        3.50210      -11.06390
