
  xtb     02012217223D
 energy: -194.790110925604 gnorm: 0.000738934413 xtb: 6.4.1 (unknown)
100111  0     0  0            999 V2000
    2.0969   -8.0244    0.5748 C   0  0  0  0  0  0  0  0  0  0  0  0
    3.4059   -7.8558    0.9398 C   0  0  0  0  0  0  0  0  0  0  0  0
    4.4129   -8.8784    0.5798 C   0  0  0  0  0  0  0  0  0  0  0  0
    4.2116   -9.9994    0.1720 O   0  0  0  0  0  0  0  0  0  0  0  0
    5.7236   -8.2066    0.7690 C   0  0  0  0  0  0  0  0  0  0  0  0
    6.9855   -8.6793    0.4738 C   0  0  0  0  0  0  0  0  0  0  0  0
    8.0741   -7.8474    0.7112 C   0  0  0  0  0  0  0  0  0  0  0  0
    9.6737   -8.3761    0.3607 Cl  0  0  0  0  0  0  0  0  0  0  0  0
    7.8626   -6.5718    1.2375 C   0  0  0  0  0  0  0  0  0  0  0  0
    8.9156   -5.7716    1.4483 F   0  0  0  0  0  0  0  0  0  0  0  0
    6.5991   -6.0942    1.5508 C   0  0  0  0  0  0  0  0  0  0  0  0
    5.5180   -6.9253    1.3113 C   0  0  0  0  0  0  0  0  0  0  0  0
    4.0888   -6.7495    1.5628 C   0  0  0  0  0  0  0  0  0  0  0  0
    3.5478   -5.8672    2.4651 C   0  0  0  0  0  0  0  0  0  0  0  0
    4.2707   -4.8260    3.0772 C   0  0  0  0  0  0  0  0  0  0  0  0
    4.8069   -3.9406    3.5738 N   0  0  0  0  0  0  0  0  0  0  0  0
    2.2278   -5.9769    2.9480 C   0  0  0  0  0  0  0  0  0  0  0  0
    1.1790   -6.0684    3.4071 N   0  0  0  0  0  0  0  0  0  0  0  0
    1.0981   -7.0601    0.3904 C   0  0  0  0  0  0  0  0  0  0  0  0
   -0.2637   -7.3554    0.2024 C   0  0  0  0  0  0  0  0  0  0  0  0
   -0.6570   -8.6255    0.2760 O   0  0  0  0  0  0  0  0  0  0  0  0
   -2.0411   -8.9290    0.1554 C   0  0  0  0  0  0  0  0  0  0  0  0
   -2.1937  -10.4316    0.3141 C   0  0  0  0  0  0  0  0  0  0  0  0
   -1.0260   -6.1968   -0.0179 C   0  0  0  0  0  0  0  0  0  0  0  0
   -2.7375   -5.8858   -0.2646 S   0  0  0  0  0  0  0  0  0  0  0  0
   -2.3992   -4.1988   -0.3709 C   0  0  0  0  0  0  0  0  0  0  0  0
   -3.0941   -2.9865   -0.4760 C   0  0  0  0  0  0  0  0  0  0  0  0
   -4.4785   -2.7055   -0.4550 C   0  0  0  0  0  0  0  0  0  0  0  0
   -4.9042   -1.3396   -0.3513 C   0  0  0  0  0  0  0  0  0  0  0  0
   -6.2200   -1.2266   -0.2614 N   0  0  0  0  0  0  0  0  0  0  0  0
   -6.8679   -2.7082   -0.3098 S   0  0  0  0  0  0  0  0  0  0  0  0
   -5.4940   -3.5543   -0.4449 N   0  0  0  0  0  0  0  0  0  0  0  0
   -3.9327   -0.3163   -0.4131 C   0  0  0  0  0  0  0  0  0  0  0  0
   -4.0580    1.0809   -0.4356 C   0  0  0  0  0  0  0  0  0  0  0  0
   -5.2817    2.2892   -0.2975 S   0  0  0  0  0  0  0  0  0  0  0  0
   -4.0661    3.5331   -0.5477 C   0  0  0  0  0  0  0  0  0  0  0  0
   -4.0925    4.9391   -0.6237 C   0  0  0  0  0  0  0  0  0  0  0  0
   -5.1257    5.7809   -0.5215 O   0  0  0  0  0  0  0  0  0  0  0  0
   -6.3411    5.3268    0.0572 C   0  0  0  0  0  0  0  0  0  0  0  0
   -6.2152    5.1353    1.5626 C   0  0  0  0  0  0  0  0  0  0  0  0
   -2.8164    5.4723   -0.8503 C   0  0  0  0  0  0  0  0  0  0  0  0
   -1.6014    4.2172   -1.0199 S   0  0  0  0  0  0  0  0  0  0  0  0
   -2.7859    2.9991   -0.7391 C   0  0  0  0  0  0  0  0  0  0  0  0
   -2.7813    1.6032   -0.6599 C   0  0  0  0  0  0  0  0  0  0  0  0
   -1.8644    0.5884   -0.7428 N   0  0  0  0  0  0  0  0  0  0  0  0
   -2.5468   -0.6041   -0.5703 C   0  0  0  0  0  0  0  0  0  0  0  0
   -2.1156   -1.9517   -0.4572 C   0  0  0  0  0  0  0  0  0  0  0  0
   -0.8703   -2.5275   -0.2951 N   0  0  0  0  0  0  0  0  0  0  0  0
   -1.0400   -3.8858   -0.2450 C   0  0  0  0  0  0  0  0  0  0  0  0
   -0.2571   -5.0237   -0.0356 C   0  0  0  0  0  0  0  0  0  0  0  0
    1.4168   -5.3409    0.2228 S   0  0  0  0  0  0  0  0  0  0  0  0
    0.3755   -1.9379    0.1464 C   0  0  0  0  0  0  0  0  0  0  0  0
    1.4650   -2.0253   -0.9222 C   0  0  0  0  0  0  0  0  0  0  0  0
   -0.6201    0.8441   -1.4352 C   0  0  0  0  0  0  0  0  0  0  0  0
   -0.8605    1.0538   -2.9301 C   0  0  0  0  0  0  0  0  0  0  0  0
   -2.5509    6.8427   -1.0319 C   0  0  0  0  0  0  0  0  0  0  0  0
   -1.3557    7.4978   -1.0260 C   0  0  0  0  0  0  0  0  0  0  0  0
   -1.2253    8.8124   -1.7167 C   0  0  0  0  0  0  0  0  0  0  0  0
   -2.1318    9.5167   -2.0926 O   0  0  0  0  0  0  0  0  0  0  0  0
    0.2300    9.0086   -1.8731 C   0  0  0  0  0  0  0  0  0  0  0  0
    0.9201   10.0081   -2.5557 C   0  0  0  0  0  0  0  0  0  0  0  0
    0.2441   10.9846   -3.1806 O   0  0  0  0  0  0  0  0  0  0  0  0
    2.3179    9.9442   -2.5590 C   0  0  0  0  0  0  0  0  0  0  0  0
    2.9892    8.9230   -1.9140 C   0  0  0  0  0  0  0  0  0  0  0  0
    2.3062    7.9264   -1.2276 C   0  0  0  0  0  0  0  0  0  0  0  0
    0.9246    7.9792   -1.2095 C   0  0  0  0  0  0  0  0  0  0  0  0
   -0.0525    7.1163   -0.5466 C   0  0  0  0  0  0  0  0  0  0  0  0
    0.2009    6.3098    0.5349 C   0  0  0  0  0  0  0  0  0  0  0  0
   -0.8246    5.7830    1.3465 C   0  0  0  0  0  0  0  0  0  0  0  0
   -1.6354    5.3877    2.0575 N   0  0  0  0  0  0  0  0  0  0  0  0
    1.4894    5.9971    1.0065 C   0  0  0  0  0  0  0  0  0  0  0  0
    2.5156    5.6803    1.4134 N   0  0  0  0  0  0  0  0  0  0  0  0
    1.8070   -9.0357    0.3071 H   0  0  0  0  0  0  0  0  0  0  0  0
    7.1220   -9.6698    0.0700 H   0  0  0  0  0  0  0  0  0  0  0  0
    6.4974   -5.1001    1.9556 H   0  0  0  0  0  0  0  0  0  0  0  0
   -2.6034   -8.3997    0.9337 H   0  0  0  0  0  0  0  0  0  0  0  0
   -2.4082   -8.6033   -0.8257 H   0  0  0  0  0  0  0  0  0  0  0  0
   -3.2424  -10.7019    0.2373 H   0  0  0  0  0  0  0  0  0  0  0  0
   -1.8143  -10.7427    1.2833 H   0  0  0  0  0  0  0  0  0  0  0  0
   -1.6336  -10.9486   -0.4600 H   0  0  0  0  0  0  0  0  0  0  0  0
   -6.6775    4.4035   -0.4277 H   0  0  0  0  0  0  0  0  0  0  0  0
   -7.0537    6.1238   -0.1685 H   0  0  0  0  0  0  0  0  0  0  0  0
   -7.1780    4.8473    1.9737 H   0  0  0  0  0  0  0  0  0  0  0  0
   -5.4893    4.3601    1.7948 H   0  0  0  0  0  0  0  0  0  0  0  0
   -5.8903    6.0620    2.0289 H   0  0  0  0  0  0  0  0  0  0  0  0
    0.1885   -0.9103    0.4602 H   0  0  0  0  0  0  0  0  0  0  0  0
    0.7100   -2.4936    1.0296 H   0  0  0  0  0  0  0  0  0  0  0  0
    1.7646   -3.0597   -1.0669 H   0  0  0  0  0  0  0  0  0  0  0  0
    2.3355   -1.4591   -0.6036 H   0  0  0  0  0  0  0  0  0  0  0  0
    1.1231   -1.6402   -1.8805 H   0  0  0  0  0  0  0  0  0  0  0  0
   -0.1780    1.7453   -0.9999 H   0  0  0  0  0  0  0  0  0  0  0  0
    0.0627    0.0149   -1.3007 H   0  0  0  0  0  0  0  0  0  0  0  0
   -1.3270    0.1721   -3.3653 H   0  0  0  0  0  0  0  0  0  0  0  0
    0.0870    1.2327   -3.4304 H   0  0  0  0  0  0  0  0  0  0  0  0
   -1.5074    1.9102   -3.1014 H   0  0  0  0  0  0  0  0  0  0  0  0
   -3.4188    7.4421   -1.2893 H   0  0  0  0  0  0  0  0  0  0  0  0
    0.8499   11.6094   -3.5995 H   0  0  0  0  0  0  0  0  0  0  0  0
    2.8767   10.7116   -3.0784 H   0  0  0  0  0  0  0  0  0  0  0  0
    4.0680    8.9011   -1.9430 H   0  0  0  0  0  0  0  0  0  0  0  0
    2.8475    7.1355   -0.7355 H   0  0  0  0  0  0  0  0  0  0  0  0
  1  2  2  0  0  0  0
  2  3  1  0  0  0  0
  3  4  2  0  0  0  0
  3  5  1  0  0  0  0
  5  6  2  0  0  0  0
  6  7  1  0  0  0  0
  7  8  1  0  0  0  0
  7  9  2  0  0  0  0
  9 10  1  0  0  0  0
  9 11  1  0  0  0  0
 11 12  2  0  0  0  0
 12 13  1  0  0  0  0
 13 14  2  0  0  0  0
 14 15  1  0  0  0  0
 15 16  3  0  0  0  0
 14 17  1  0  0  0  0
 17 18  3  0  0  0  0
  1 19  1  0  0  0  0
 19 20  2  0  0  0  0
 20 21  1  0  0  0  0
 21 22  1  0  0  0  0
 22 23  1  0  0  0  0
 20 24  1  0  0  0  0
 24 25  1  0  0  0  0
 25 26  1  0  0  0  0
 26 27  1  0  0  0  0
 27 28  1  0  0  0  0
 28 29  1  0  0  0  0
 29 30  2  0  0  0  0
 30 31  1  0  0  0  0
 31 32  1  0  0  0  0
 29 33  1  0  0  0  0
 33 34  1  0  0  0  0
 34 35  1  0  0  0  0
 35 36  1  0  0  0  0
 36 37  1  0  0  0  0
 37 38  1  0  0  0  0
 38 39  1  0  0  0  0
 39 40  1  0  0  0  0
 37 41  2  0  0  0  0
 41 42  1  0  0  0  0
 42 43  1  0  0  0  0
 43 44  1  0  0  0  0
 44 45  1  0  0  0  0
 45 46  1  0  0  0  0
 46 47  1  0  0  0  0
 47 48  1  0  0  0  0
 48 49  1  0  0  0  0
 49 50  1  0  0  0  0
 50 51  1  0  0  0  0
 48 52  1  0  0  0  0
 52 53  1  0  0  0  0
 45 54  1  0  0  0  0
 54 55  1  0  0  0  0
 41 56  1  0  0  0  0
 56 57  2  0  0  0  0
 57 58  1  0  0  0  0
 58 59  2  0  0  0  0
 58 60  1  0  0  0  0
 60 61  2  0  0  0  0
 61 62  1  0  0  0  0
 61 63  1  0  0  0  0
 63 64  2  0  0  0  0
 64 65  1  0  0  0  0
 65 66  2  0  0  0  0
 66 67  1  0  0  0  0
 67 68  2  0  0  0  0
 68 69  1  0  0  0  0
 69 70  3  0  0  0  0
 68 71  1  0  0  0  0
 71 72  3  0  0  0  0
 13  2  1  0  0  0  0
 51 19  1  0  0  0  0
 67 57  1  0  0  0  0
 12  5  1  0  0  0  0
 50 24  2  0  0  0  0
 66 60  1  0  0  0  0
 49 26  2  0  0  0  0
 47 27  2  0  0  0  0
 32 28  2  0  0  0  0
 46 33  2  0  0  0  0
 44 34  2  0  0  0  0
 43 36  2  0  0  0  0
  1 73  1  0  0  0  0
  6 74  1  0  0  0  0
 11 75  1  0  0  0  0
 22 76  1  0  0  0  0
 22 77  1  0  0  0  0
 23 78  1  0  0  0  0
 23 79  1  0  0  0  0
 23 80  1  0  0  0  0
 39 81  1  0  0  0  0
 39 82  1  0  0  0  0
 40 83  1  0  0  0  0
 40 84  1  0  0  0  0
 40 85  1  0  0  0  0
 52 86  1  0  0  0  0
 52 87  1  0  0  0  0
 53 88  1  0  0  0  0
 53 89  1  0  0  0  0
 53 90  1  0  0  0  0
 54 91  1  0  0  0  0
 54 92  1  0  0  0  0
 55 93  1  0  0  0  0
 55 94  1  0  0  0  0
 55 95  1  0  0  0  0
 56 96  1  0  0  0  0
 62 97  1  0  0  0  0
 63 98  1  0  0  0  0
 64 99  1  0  0  0  0
 65100  1  0  0  0  0
M  END
