
  xtb     02012217553D
 energy: -194.949757141886 gnorm: 0.000764713286 xtb: 6.4.1 (unknown)
 99110  0     0  0            999 V2000
   -6.1459    4.0148   -1.1109 C   0  0  0  0  0  0  0  0  0  0  0  0
   -7.2594    4.4549   -0.4333 C   0  0  0  0  0  0  0  0  0  0  0  0
   -7.4168    4.3278    1.0307 C   0  0  0  0  0  0  0  0  0  0  0  0
   -6.5754    4.0200    1.8476 O   0  0  0  0  0  0  0  0  0  0  0  0
   -8.8635    4.5436    1.2793 C   0  0  0  0  0  0  0  0  0  0  0  0
   -9.5402    4.4917    2.4800 C   0  0  0  0  0  0  0  0  0  0  0  0
  -10.9123    4.7176    2.4733 C   0  0  0  0  0  0  0  0  0  0  0  0
  -11.8150    4.6731    3.9367 Cl  0  0  0  0  0  0  0  0  0  0  0  0
  -11.5586    4.9815    1.2639 C   0  0  0  0  0  0  0  0  0  0  0  0
  -12.8808    5.1898    1.2656 F   0  0  0  0  0  0  0  0  0  0  0  0
  -10.8853    5.0343    0.0530 C   0  0  0  0  0  0  0  0  0  0  0  0
   -9.5181    4.8122    0.0643 C   0  0  0  0  0  0  0  0  0  0  0  0
   -8.5325    4.8045   -1.0123 C   0  0  0  0  0  0  0  0  0  0  0  0
   -8.7436    5.1725   -2.3168 C   0  0  0  0  0  0  0  0  0  0  0  0
   -7.7040    5.2915   -3.2620 C   0  0  0  0  0  0  0  0  0  0  0  0
   -6.8820    5.4433   -4.0494 N   0  0  0  0  0  0  0  0  0  0  0  0
  -10.0014    5.5251   -2.8443 C   0  0  0  0  0  0  0  0  0  0  0  0
  -11.0061    5.8073   -3.3218 N   0  0  0  0  0  0  0  0  0  0  0  0
   -4.8785    3.8155   -0.5459 C   0  0  0  0  0  0  0  0  0  0  0  0
   -4.2008    4.4590    0.5028 C   0  0  0  0  0  0  0  0  0  0  0  0
   -4.4438    5.6183    1.1122 O   0  0  0  0  0  0  0  0  0  0  0  0
   -5.2420    6.6376    0.5406 C   0  0  0  0  0  0  0  0  0  0  0  0
   -4.7696    7.0772   -0.8399 C   0  0  0  0  0  0  0  0  0  0  0  0
   -3.0170    3.7692    0.8377 C   0  0  0  0  0  0  0  0  0  0  0  0
   -1.8139    4.0567    2.0695 S   0  0  0  0  0  0  0  0  0  0  0  0
   -0.9546    2.6665    1.5067 C   0  0  0  0  0  0  0  0  0  0  0  0
    0.1893    1.9191    1.8282 C   0  0  0  0  0  0  0  0  0  0  0  0
    1.0931    2.0337    2.9078 C   0  0  0  0  0  0  0  0  0  0  0  0
    2.1036    1.0307    3.0743 C   0  0  0  0  0  0  0  0  0  0  0  0
    2.8386    1.2269    4.1578 N   0  0  0  0  0  0  0  0  0  0  0  0
    2.3075    2.5636    4.9012 S   0  0  0  0  0  0  0  0  0  0  0  0
    1.1195    2.9416    3.8707 N   0  0  0  0  0  0  0  0  0  0  0  0
    2.2407    0.0328    2.0845 C   0  0  0  0  0  0  0  0  0  0  0  0
    3.2068   -0.9665    1.9138 C   0  0  0  0  0  0  0  0  0  0  0  0
    4.5945   -1.5928    2.7252 S   0  0  0  0  0  0  0  0  0  0  0  0
    4.8602   -2.6963    1.3758 C   0  0  0  0  0  0  0  0  0  0  0  0
    5.8105   -3.6774    1.0856 C   0  0  0  0  0  0  0  0  0  0  0  0
    6.8822   -4.0722    1.7754 O   0  0  0  0  0  0  0  0  0  0  0  0
    7.0571   -3.6595    3.1233 C   0  0  0  0  0  0  0  0  0  0  0  0
    6.1494   -4.4285    4.0739 C   0  0  0  0  0  0  0  0  0  0  0  0
    5.5648   -4.2980   -0.1671 C   0  0  0  0  0  0  0  0  0  0  0  0
    4.1598   -3.6209   -0.9737 S   0  0  0  0  0  0  0  0  0  0  0  0
    3.9014   -2.5550    0.3575 C   0  0  0  0  0  0  0  0  0  0  0  0
    2.9597   -1.5717    0.6768 C   0  0  0  0  0  0  0  0  0  0  0  0
    1.8661   -0.9947    0.0895 N   0  0  0  0  0  0  0  0  0  0  0  0
    1.3856   -0.0231    0.9437 C   0  0  0  0  0  0  0  0  0  0  0  0
    0.2717    0.8563    0.8832 C   0  0  0  0  0  0  0  0  0  0  0  0
   -0.8170    0.9421    0.0282 N   0  0  0  0  0  0  0  0  0  0  0  0
   -1.5571    2.0297    0.4155 C   0  0  0  0  0  0  0  0  0  0  0  0
   -2.7461    2.6576    0.0359 C   0  0  0  0  0  0  0  0  0  0  0  0
   -3.9426    2.4559   -1.1886 S   0  0  0  0  0  0  0  0  0  0  0  0
   -1.4941   -0.1016   -0.7131 C   0  0  0  0  0  0  0  0  0  0  0  0
   -2.2064   -1.0656    0.2334 C   0  0  0  0  0  0  0  0  0  0  0  0
    1.5968   -1.2322   -1.3110 C   0  0  0  0  0  0  0  0  0  0  0  0
    0.8562   -2.5486   -1.5431 C   0  0  0  0  0  0  0  0  0  0  0  0
    6.3706   -5.3398   -0.6188 C   0  0  0  0  0  0  0  0  0  0  0  0
    6.2963   -6.0823   -1.7760 C   0  0  0  0  0  0  0  0  0  0  0  0
    5.3275   -5.8814   -2.8489 C   0  0  0  0  0  0  0  0  0  0  0  0
    4.4243   -5.0617   -2.9009 O   0  0  0  0  0  0  0  0  0  0  0  0
    5.6538   -6.8804   -3.8869 C   0  0  0  0  0  0  0  0  0  0  0  0
    5.0315   -7.0945   -5.0994 C   0  0  0  0  0  0  0  0  0  0  0  0
    5.5431   -8.1110   -5.8921 C   0  0  0  0  0  0  0  0  0  0  0  0
    4.9690   -8.3592   -7.0821 F   0  0  0  0  0  0  0  0  0  0  0  0
    6.6260   -8.8834   -5.5018 C   0  0  0  0  0  0  0  0  0  0  0  0
    7.2414   -8.6559   -4.2792 C   0  0  0  0  0  0  0  0  0  0  0  0
    6.7531   -7.6471   -3.4623 C   0  0  0  0  0  0  0  0  0  0  0  0
    7.1695   -7.1772   -2.1390 C   0  0  0  0  0  0  0  0  0  0  0  0
    8.1900   -7.7144   -1.3964 C   0  0  0  0  0  0  0  0  0  0  0  0
    8.5806   -7.3031   -0.1046 C   0  0  0  0  0  0  0  0  0  0  0  0
    8.9621   -7.0487    0.9490 N   0  0  0  0  0  0  0  0  0  0  0  0
    8.9985   -8.7879   -1.8249 C   0  0  0  0  0  0  0  0  0  0  0  0
    9.6962   -9.6538   -2.1113 N   0  0  0  0  0  0  0  0  0  0  0  0
   -6.2646    3.6788   -2.1350 H   0  0  0  0  0  0  0  0  0  0  0  0
   -9.0157    4.2837    3.3989 H   0  0  0  0  0  0  0  0  0  0  0  0
  -11.4405    5.2364   -0.8487 H   0  0  0  0  0  0  0  0  0  0  0  0
   -6.2981    6.3418    0.5013 H   0  0  0  0  0  0  0  0  0  0  0  0
   -5.1402    7.4591    1.2547 H   0  0  0  0  0  0  0  0  0  0  0  0
   -5.2991    7.9815   -1.1252 H   0  0  0  0  0  0  0  0  0  0  0  0
   -4.9642    6.3168   -1.5930 H   0  0  0  0  0  0  0  0  0  0  0  0
   -3.7026    7.2867   -0.8190 H   0  0  0  0  0  0  0  0  0  0  0  0
    8.1047   -3.8875    3.3327 H   0  0  0  0  0  0  0  0  0  0  0  0
    6.8987   -2.5801    3.2186 H   0  0  0  0  0  0  0  0  0  0  0  0
    5.1031   -4.2192    3.8647 H   0  0  0  0  0  0  0  0  0  0  0  0
    6.3652   -4.1345    5.0964 H   0  0  0  0  0  0  0  0  0  0  0  0
    6.3234   -5.4962    3.9667 H   0  0  0  0  0  0  0  0  0  0  0  0
   -0.8046   -0.6442   -1.3497 H   0  0  0  0  0  0  0  0  0  0  0  0
   -2.2269    0.3946   -1.3547 H   0  0  0  0  0  0  0  0  0  0  0  0
   -1.4918   -1.5446    0.8999 H   0  0  0  0  0  0  0  0  0  0  0  0
   -2.9357   -0.5322    0.8385 H   0  0  0  0  0  0  0  0  0  0  0  0
   -2.7240   -1.8307   -0.3384 H   0  0  0  0  0  0  0  0  0  0  0  0
    1.0596   -0.3725   -1.7142 H   0  0  0  0  0  0  0  0  0  0  0  0
    2.5622   -1.2866   -1.8252 H   0  0  0  0  0  0  0  0  0  0  0  0
    0.5527   -2.6205   -2.5837 H   0  0  0  0  0  0  0  0  0  0  0  0
   -0.0225   -2.6317   -0.9091 H   0  0  0  0  0  0  0  0  0  0  0  0
    1.5141   -3.3852   -1.3256 H   0  0  0  0  0  0  0  0  0  0  0  0
    7.1654   -5.5800    0.0767 H   0  0  0  0  0  0  0  0  0  0  0  0
    4.1882   -6.5015   -5.4151 H   0  0  0  0  0  0  0  0  0  0  0  0
    6.9813   -9.6609   -6.1595 H   0  0  0  0  0  0  0  0  0  0  0  0
    8.0821   -9.2635   -3.9884 H   0  0  0  0  0  0  0  0  0  0  0  0
  1  2  2  0  0  0  0
  2  3  1  0  0  0  0
  3  4  2  0  0  0  0
  3  5  1  0  0  0  0
  5  6  2  0  0  0  0
  6  7  1  0  0  0  0
  7  8  1  0  0  0  0
  7  9  2  0  0  0  0
  9 10  1  0  0  0  0
  9 11  1  0  0  0  0
 11 12  2  0  0  0  0
 12 13  1  0  0  0  0
 13 14  2  0  0  0  0
 14 15  1  0  0  0  0
 15 16  3  0  0  0  0
 14 17  1  0  0  0  0
 17 18  3  0  0  0  0
  1 19  1  0  0  0  0
 19 20  2  0  0  0  0
 20 21  1  0  0  0  0
 21 22  1  0  0  0  0
 22 23  1  0  0  0  0
 20 24  1  0  0  0  0
 24 25  1  0  0  0  0
 25 26  1  0  0  0  0
 26 27  1  0  0  0  0
 27 28  1  0  0  0  0
 28 29  1  0  0  0  0
 29 30  2  0  0  0  0
 30 31  1  0  0  0  0
 31 32  1  0  0  0  0
 29 33  1  0  0  0  0
 33 34  1  0  0  0  0
 34 35  1  0  0  0  0
 35 36  1  0  0  0  0
 36 37  1  0  0  0  0
 37 38  1  0  0  0  0
 38 39  1  0  0  0  0
 39 40  1  0  0  0  0
 37 41  2  0  0  0  0
 41 42  1  0  0  0  0
 42 43  1  0  0  0  0
 43 44  1  0  0  0  0
 44 45  1  0  0  0  0
 45 46  1  0  0  0  0
 46 47  1  0  0  0  0
 47 48  1  0  0  0  0
 48 49  1  0  0  0  0
 49 50  1  0  0  0  0
 50 51  1  0  0  0  0
 48 52  1  0  0  0  0
 52 53  1  0  0  0  0
 45 54  1  0  0  0  0
 54 55  1  0  0  0  0
 41 56  1  0  0  0  0
 56 57  2  0  0  0  0
 57 58  1  0  0  0  0
 58 59  2  0  0  0  0
 58 60  1  0  0  0  0
 60 61  2  0  0  0  0
 61 62  1  0  0  0  0
 62 63  1  0  0  0  0
 62 64  2  0  0  0  0
 64 65  1  0  0  0  0
 65 66  2  0  0  0  0
 66 67  1  0  0  0  0
 67 68  2  0  0  0  0
 68 69  1  0  0  0  0
 69 70  3  0  0  0  0
 68 71  1  0  0  0  0
 71 72  3  0  0  0  0
 13  2  1  0  0  0  0
 51 19  1  0  0  0  0
 67 57  1  0  0  0  0
 12  5  1  0  0  0  0
 50 24  2  0  0  0  0
 66 60  1  0  0  0  0
 49 26  2  0  0  0  0
 47 27  2  0  0  0  0
 32 28  2  0  0  0  0
 46 33  2  0  0  0  0
 44 34  2  0  0  0  0
 43 36  2  0  0  0  0
  1 73  1  0  0  0  0
  6 74  1  0  0  0  0
 11 75  1  0  0  0  0
 22 76  1  0  0  0  0
 22 77  1  0  0  0  0
 23 78  1  0  0  0  0
 23 79  1  0  0  0  0
 23 80  1  0  0  0  0
 39 81  1  0  0  0  0
 39 82  1  0  0  0  0
 40 83  1  0  0  0  0
 40 84  1  0  0  0  0
 40 85  1  0  0  0  0
 52 86  1  0  0  0  0
 52 87  1  0  0  0  0
 53 88  1  0  0  0  0
 53 89  1  0  0  0  0
 53 90  1  0  0  0  0
 54 91  1  0  0  0  0
 54 92  1  0  0  0  0
 55 93  1  0  0  0  0
 55 94  1  0  0  0  0
 55 95  1  0  0  0  0
 56 96  1  0  0  0  0
 61 97  1  0  0  0  0
 64 98  1  0  0  0  0
 65 99  1  0  0  0  0
M  END
