99

C         -3.37920        5.68100        2.73530
C         -4.55150        5.12660        3.21250
C         -4.89830        3.70660        3.22760
O         -4.25880        2.76820        2.78570
C         -6.20270        3.60940        3.91580
C         -6.94350        2.47890        4.19000
C         -8.15260        2.63190        4.85830
Cl        -9.12790        1.26570        5.23320
C         -8.57250        3.91170        5.22600
F         -9.73680        4.05290        5.87070
C         -7.83140        5.05150        4.95140
C         -6.62630        4.89620        4.28550
C         -5.62140        5.86570        3.84730
C         -5.72720        7.22420        4.01970
C         -4.80320        8.18550        3.57070
N         -4.09870        9.02860        3.22990
C         -6.80330        7.85860        4.67570
N         -7.63930        8.44520        5.19940
C         -2.29250        5.10230        2.08220
C         -1.13670        5.80250        1.64070
O         -0.75600        7.07440        1.79790
C         -1.03670        7.88310        2.93720
C         -0.77930        7.17850        4.26130
C         -0.30820        4.98050        0.86820
S          1.21800        5.28460        0.06210
C          1.23800        3.62980       -0.44060
C          2.03870        2.74990       -1.18500
C          3.20720        2.96340       -1.95050
C          3.76310        1.86760       -2.69170
N          4.81840        2.22460       -3.40620
S          5.09320        3.80060       -3.16390
N          3.87670        4.08970       -2.13820
C          3.20640        0.57870       -2.52670
C          3.65110       -0.68170       -2.95000
S          4.92720       -1.36400       -3.89320
C          4.36030       -2.95370       -3.44970
C          4.83070       -4.24160       -3.74780
O          5.89040       -4.44270       -4.55130
C          6.99000       -5.21000       -4.05530
C          7.69320       -4.49290       -2.91170
C          4.05680       -5.23440       -3.13430
S          2.75200       -4.53510       -2.17930
C          3.23130       -2.93730       -2.62100
C          2.82110       -1.63370       -2.33810
N          1.87020       -1.00520       -1.57890
C          2.07260        0.35650       -1.69370
C          1.40420        1.47400       -1.13300
N          0.22240        1.59320       -0.42440
C          0.12930        2.89400       -0.00160
C         -0.76890        3.66630        0.73740
S         -2.24660        3.40240        1.58130
C         -1.00370        0.83240       -0.54850
C         -1.88280        1.39550       -1.66460
C          1.12080       -1.75220       -0.59210
C         -0.01580       -2.55700       -1.22210
C          4.15330       -6.62350       -3.34010
C          3.61590       -7.63430       -2.59340
C          3.37230       -8.96290       -3.20280
O          3.79330       -9.37240       -4.25940
C          2.46200       -9.65420       -2.25700
C          1.84130      -10.87830       -2.39740
C          1.00120      -11.31320       -1.37830
Cl         0.19360      -12.82720       -1.49400
C          0.81370      -10.50850       -0.25210
F         -0.00680      -10.92890        0.71810
C          1.44360       -9.28320       -0.09680
C          2.27730       -8.85300       -1.11540
C          3.10320       -7.65520       -1.24450
C          3.52790       -6.86520       -0.20550
C          3.02570       -6.95090        1.10720
N          2.62640       -6.95680        2.18350
C          4.58260       -5.94000       -0.33350
N          5.47510       -5.21980       -0.39690
H         -3.29560        6.74870        2.86850
H         -6.59120        1.50420        3.89250
H         -8.21620        6.00790        5.26490
H         -2.04900        8.30140        2.89290
H         -0.33440        8.71290        2.81710
H          0.23220        6.77850        4.28040
H         -1.47860        6.36180        4.42740
H         -0.88970        7.89610        5.06880
H          6.66480       -6.20450       -3.73400
H          7.64770       -5.30900       -4.92130
H          7.04990       -4.45580       -2.03480
H          7.94980       -3.47830       -3.20720
H          8.60280       -5.02740       -2.65380
H         -0.78350       -0.20540       -0.76400
H         -1.53240        0.89930        0.40670
H         -2.79120        0.80550       -1.74520
H         -2.15890        2.42530       -1.45520
H         -1.35570        1.36210       -2.61610
H          1.81350       -2.44950       -0.10710
H          0.76100       -1.06420        0.17350
H          0.38790       -3.36060       -1.83180
H         -0.64260       -1.93750       -1.85980
H         -0.63070       -2.99590       -0.44150
H          4.61500       -6.93050       -4.27430
H          2.00510      -11.48100       -3.27640
H          1.26000       -8.70590        0.79510
