100

C          2.09690       -8.02440        0.57480
C          3.40590       -7.85580        0.93980
C          4.41290       -8.87840        0.57980
O          4.21160       -9.99940        0.17200
C          5.72360       -8.20660        0.76900
C          6.98550       -8.67930        0.47380
C          8.07410       -7.84740        0.71120
Cl         9.67370       -8.37610        0.36070
C          7.86260       -6.57180        1.23750
F          8.91560       -5.77160        1.44830
C          6.59910       -6.09420        1.55080
C          5.51800       -6.92530        1.31130
C          4.08880       -6.74950        1.56280
C          3.54780       -5.86720        2.46510
C          4.27070       -4.82600        3.07720
N          4.80690       -3.94060        3.57380
C          2.22780       -5.97690        2.94800
N          1.17900       -6.06840        3.40710
C          1.09810       -7.06010        0.39040
C         -0.26370       -7.35540        0.20240
O         -0.65700       -8.62550        0.27600
C         -2.04110       -8.92900        0.15540
C         -2.19370      -10.43160        0.31410
C         -1.02600       -6.19680       -0.01790
S         -2.73750       -5.88580       -0.26460
C         -2.39920       -4.19880       -0.37090
C         -3.09410       -2.98650       -0.47600
C         -4.47850       -2.70550       -0.45500
C         -4.90420       -1.33960       -0.35130
N         -6.22000       -1.22660       -0.26140
S         -6.86790       -2.70820       -0.30980
N         -5.49400       -3.55430       -0.44490
C         -3.93270       -0.31630       -0.41310
C         -4.05800        1.08090       -0.43560
S         -5.28170        2.28920       -0.29750
C         -4.06610        3.53310       -0.54770
C         -4.09250        4.93910       -0.62370
O         -5.12570        5.78090       -0.52150
C         -6.34110        5.32680        0.05720
C         -6.21520        5.13530        1.56260
C         -2.81640        5.47230       -0.85030
S         -1.60140        4.21720       -1.01990
C         -2.78590        2.99910       -0.73910
C         -2.78130        1.60320       -0.65990
N         -1.86440        0.58840       -0.74280
C         -2.54680       -0.60410       -0.57030
C         -2.11560       -1.95170       -0.45720
N         -0.87030       -2.52750       -0.29510
C         -1.04000       -3.88580       -0.24500
C         -0.25710       -5.02370       -0.03560
S          1.41680       -5.34090        0.22280
C          0.37550       -1.93790        0.14640
C          1.46500       -2.02530       -0.92220
C         -0.62010        0.84410       -1.43520
C         -0.86050        1.05380       -2.93010
C         -2.55090        6.84270       -1.03190
C         -1.35570        7.49780       -1.02600
C         -1.22530        8.81240       -1.71670
O         -2.13180        9.51670       -2.09260
C          0.23000        9.00860       -1.87310
C          0.92010       10.00810       -2.55570
O          0.24410       10.98460       -3.18060
C          2.31790        9.94420       -2.55900
C          2.98920        8.92300       -1.91400
C          2.30620        7.92640       -1.22760
C          0.92460        7.97920       -1.20950
C         -0.05250        7.11630       -0.54660
C          0.20090        6.30980        0.53490
C         -0.82460        5.78300        1.34650
N         -1.63540        5.38770        2.05750
C          1.48940        5.99710        1.00650
N          2.51560        5.68030        1.41340
H          1.80700       -9.03570        0.30710
H          7.12200       -9.66980        0.07000
H          6.49740       -5.10010        1.95560
H         -2.60340       -8.39970        0.93370
H         -2.40820       -8.60330       -0.82570
H         -3.24240      -10.70190        0.23730
H         -1.81430      -10.74270        1.28330
H         -1.63360      -10.94860       -0.46000
H         -6.67750        4.40350       -0.42770
H         -7.05370        6.12380       -0.16850
H         -7.17800        4.84730        1.97370
H         -5.48930        4.36010        1.79480
H         -5.89030        6.06200        2.02890
H          0.18850       -0.91030        0.46020
H          0.71000       -2.49360        1.02960
H          1.76460       -3.05970       -1.06690
H          2.33550       -1.45910       -0.60360
H          1.12310       -1.64020       -1.88050
H         -0.17800        1.74530       -0.99990
H          0.06270        0.01490       -1.30070
H         -1.32700        0.17210       -3.36530
H          0.08700        1.23270       -3.43040
H         -1.50740        1.91020       -3.10140
H         -3.41880        7.44210       -1.28930
H          0.84990       11.60940       -3.59950
H          2.87670       10.71160       -3.07840
H          4.06800        8.90110       -1.94300
H          2.84750        7.13550       -0.73550
