99

C          3.92820       -1.51790        6.20980
C          4.06700       -0.29990        6.83870
C          3.35610        0.92290        6.48020
O          2.59240        1.10100        5.54540
C          3.74010        1.92870        7.49410
C          3.31800        3.23670        7.61010
C          3.81600        3.99790        8.66120
Cl         3.32980        5.63580        8.86570
C          4.71850        3.42120        9.55610
F          5.19240        4.15920       10.56770
C          5.14840        2.10730        9.44300
C          4.65060        1.35000        8.39520
C          4.89520       -0.03600        7.99360
C          5.78370       -0.88820        8.59920
C          6.55720       -0.54640        9.72800
N          7.21180       -0.33240       10.64660
C          6.08060       -2.20290        8.18270
N          6.39800       -3.27250        7.90830
C          3.18570       -1.87020        5.08770
C          3.17510       -3.20930        4.61440
O          3.82690       -4.12620        5.33110
C          4.06210       -5.41970        4.79260
C          5.17550       -5.40640        3.75410
C          2.42140       -3.34260        3.44750
S          2.01180       -4.69270        2.38970
C          1.09740       -3.61280        1.40320
C          0.28720       -3.64830        0.26410
C         -0.11950       -4.74670       -0.52390
C         -1.03790       -4.51910       -1.59600
N         -1.36400       -5.63480       -2.22940
S         -0.57810       -6.86660       -1.53380
N          0.20890       -6.02290       -0.39680
C         -1.44380       -3.19530       -1.87230
C         -2.24730       -2.70180       -2.90680
S         -3.15480       -3.28870       -4.25670
C         -3.53220       -1.62780       -4.66770
C         -4.26120       -1.07800       -5.72860
O         -4.82130       -1.93970       -6.58500
C         -5.08830       -1.68480       -7.96010
C         -3.91230       -1.06760       -8.70370
C         -4.29870        0.33950       -5.65020
S         -3.33980        0.93280       -4.28260
C         -2.98500       -0.68260       -3.79470
C         -2.24950       -1.30770       -2.78310
N         -1.48730       -0.93150       -1.71240
C         -0.99090       -2.07210       -1.11110
C         -0.16540       -2.31310        0.02620
N          0.33810       -1.51420        1.03530
C          1.10580       -2.29120        1.85810
C          1.85400       -2.12590        3.02810
S          2.22340       -0.80550        4.07570
C          0.12640       -0.13120        1.39610
C          1.30380        0.74970        0.97830
C         -1.28680        0.48070       -1.48090
C         -2.47630        1.10870       -0.75510
C         -5.06430        1.16830       -6.46980
C         -5.18850        2.54270       -6.51060
C         -4.42260        3.50500       -5.71700
O         -3.60020        3.26490       -4.85030
C         -4.82920        4.84200       -6.18870
C         -4.39990        6.09460       -5.78420
Cl        -3.22450        6.27140       -4.54650
C         -4.94130        7.22060       -6.40160
C         -5.88910        7.07650       -7.39820
C         -6.33040        5.82370       -7.81100
C         -5.79610        4.70230       -7.20150
C         -6.05250        3.27420       -7.40730
C         -6.97280        2.76940       -8.29380
C         -7.28060        1.40790       -8.47060
N         -7.59130        0.31760       -8.66640
C         -7.76360        3.55300       -9.15990
N         -8.43720        4.11770       -9.89860
H          4.46500       -2.35860        6.63220
H          2.61950        3.65490        6.90320
H          5.84620        1.72440       10.16940
H          4.36020       -6.01360        5.65960
H          3.13980       -5.83510        4.37290
H          4.89300       -4.80750        2.89160
H          5.37310       -6.42130        3.42310
H          6.08090       -4.99180        4.19030
H         -6.00270       -1.09400       -8.08960
H         -5.28850       -2.68600       -8.35210
H         -3.69220       -0.06300       -8.34880
H         -3.02470       -1.68330       -8.57380
H         -4.15300       -1.01470       -9.76130
H         -0.81330        0.21640        0.97740
H          0.03940       -0.09280        2.48670
H          1.06500        1.79310        1.16210
H          1.54760        0.62070       -0.07460
H          2.18340        0.49410        1.56260
H         -1.19440        0.95680       -2.46240
H         -0.35380        0.63860       -0.94870
H         -2.71680        0.57250        0.16110
H         -2.25360        2.14360       -0.51230
H         -3.35290        1.09060       -1.39680
H         -5.67860        0.63740       -7.18040
H         -4.61330        8.20090       -6.09450
H         -6.29790        7.95780       -7.86820
H         -7.07000        5.74730       -8.59000
