134

C         -1.40530       -6.16660       -3.87320
C         -0.59440       -7.25780       -4.08650
C          0.71130       -7.47770       -3.46390
O          1.28600       -6.76400       -2.66120
C          1.21190       -8.75780       -4.00770
C          2.40290       -9.39800       -3.73490
C          2.66320      -10.60390       -4.37570
Cl         4.12870      -11.45520       -4.08330
C          1.72030      -11.12270       -5.26530
F          1.97700      -12.28350       -5.88020
C          0.52100      -10.48360       -5.54260
C          0.26330       -9.28160       -4.90300
C         -0.87810       -8.36860       -4.97070
C         -1.99460       -8.56170       -5.74410
C         -2.18890       -9.67830       -6.58450
N         -2.41140      -10.55860       -7.28670
C         -3.10330       -7.69380       -5.82520
N         -4.04350       -7.04510       -5.94990
C         -1.21700       -5.04390       -3.06280
S          0.15510       -4.69400       -2.02810
C         -0.55690       -3.19650       -1.56870
C         -0.07170       -2.23800       -0.65930
C         -0.93040       -1.21120       -0.26210
O         -2.19630       -1.09300       -0.67180
C         -2.53030       -1.66940       -1.95880
C         -1.79770       -2.96920       -2.17790
C         -2.16230       -4.00970       -3.00390
C         -4.02590       -1.92810       -1.95600
C         -4.74890       -1.88450       -3.14060
C         -6.10040       -2.17300       -3.14050
C         -6.75930       -2.50840       -1.96440
C         -8.23670       -2.77340       -1.96240
C         -9.01080       -1.47170       -1.74410
C         -6.02850       -2.54620       -0.78430
C         -4.67460       -2.26750       -0.77810
C         -2.15770       -0.62670       -3.00780
C         -2.61650        0.67070       -2.80970
C         -2.29830        1.66900       -3.70790
C         -1.52020        1.39730       -4.82750
C         -1.13950        2.49520       -5.77770
C          0.12500        3.20600       -5.29060
C         -1.06530        0.10000       -5.01750
C         -1.37610       -0.90520       -4.11800
C         -0.31500       -0.36780        0.67100
S         -0.79570        1.07130        1.50140
C          0.77830        1.15720        2.24910
C          1.27610        2.15900        3.10060
S          0.47920        3.59330        3.62060
C          1.90750        4.07720        4.51420
C          2.92430        3.12160        4.38000
C          2.58560        2.04970        3.58180
C          3.45100        0.85020        3.29000
C          4.79780        1.21420        2.68300
C          5.04060        2.45060        2.10410
C          6.26460        2.71550        1.51570
C          7.26350        1.75260        1.47800
C          8.57260        2.02790        0.79740
C          8.50390        1.61300       -0.67390
C          7.00220        0.50620        2.03510
C          5.78480        0.23670        2.62800
C          3.60270        0.11500        4.61700
C          4.60910        0.47440        5.50490
C          4.71160       -0.15040        6.73220
C          3.81630       -1.14580        7.10500
C          3.90900       -1.78960        8.45770
C          3.14140       -0.96570        9.49380
C          2.80900       -1.49380        6.21600
C          2.69810       -0.86930        4.98700
O          2.87160       -0.05800        2.31670
C          1.62490        0.10950        1.88450
C          0.99570       -0.75470        0.97630
S          1.48920       -2.17120        0.11360
C          2.08630        5.24290        5.26270
C          1.23250        6.30060        5.48100
C         -0.12300        6.41930        4.94440
O         -0.72450        5.61950        4.24940
C         -0.63590        7.72290        5.41590
C         -1.86430        8.30050        5.17110
C         -2.12480        9.55030        5.72140
Cl        -3.63480       10.32950        5.45490
C         -1.14510       10.17340        6.49660
F         -1.40130       11.37710        7.02320
C          0.09130        9.59660        6.74670
C          0.34940        8.35130        6.19680
C          1.52650        7.48420        6.26030
C          2.68050        7.77410        6.94390
C          3.82300        6.95120        7.02040
N          4.79230        6.34450        7.13310
C          2.88460        8.95990        7.68050
N          3.11840        9.90100        8.29490
H         -2.34360       -6.14400       -4.41370
H          3.11110       -8.97100       -3.04300
H         -0.16130      -10.94070       -6.24040
H         -3.07750       -4.04050       -3.56830
H         -4.25370       -1.62150       -4.06410
H         -6.65110       -2.13930       -4.06930
H         -8.53490       -3.21400       -2.91550
H         -8.48580       -3.47790       -1.16650
H        -10.08140       -1.66180       -1.74360
H         -8.78420       -0.75990       -2.53470
H         -8.73650       -1.02340       -0.79180
H         -6.52290       -2.80440        0.14110
H         -4.11770       -2.30390        0.14580
H         -3.22230        0.88670       -1.94210
H         -2.66270        2.67240       -3.54190
H         -1.95330        3.21950       -5.85000
H         -0.96010        2.08100       -6.77160
H          0.95230        2.50290       -5.22360
H          0.40100        4.00300       -5.97690
H         -0.03830        3.63660       -4.30520
H         -0.45870       -0.13190       -5.88120
H         -1.01060       -1.90640       -4.29320
H          3.87890        3.24090        4.86040
H          4.27790        3.21560        2.11010
H          6.44280        3.68690        1.07710
H          8.80780        3.09190        0.86130
H          9.37070        1.47010        1.29110
H          7.72210        2.16820       -1.18740
H          8.28040        0.55190       -0.75790
H          9.45210        1.80920       -1.16860
H          7.76230       -0.26110        2.00520
H          5.59070       -0.73600        3.05420
H          5.32240        1.23700        5.22950
H          5.50270        0.13610        7.40980
H          4.95520       -1.86270        8.76110
H          3.49240       -2.79780        8.41850
H          2.09210       -0.89180        9.21690
H          3.21010       -1.42990       10.47470
H          3.55000        0.04040        9.55590
H          2.10080       -2.26390        6.48570
H          1.90750       -1.16090        4.31140
H          3.06450        5.30370        5.72350
H         -2.60020        7.79370        4.56760
H          0.80120       10.13380        7.35400
