
  xtb     02012218093D
 energy: -234.206008739898 gnorm: 0.000960426327 xtb: 6.4.1 (unknown)
135148  0     0  0            999 V2000
   -3.0895   -6.4825    4.2858 C   0  0  0  0  0  0  0  0  0  0  0  0
   -2.7294   -7.6293    4.9468 C   0  0  0  0  0  0  0  0  0  0  0  0
   -1.3895   -8.2412    5.0676 C   0  0  0  0  0  0  0  0  0  0  0  0
   -0.3110   -7.8016    4.7282 O   0  0  0  0  0  0  0  0  0  0  0  0
   -1.6113   -9.5620    5.6979 C   0  0  0  0  0  0  0  0  0  0  0  0
   -0.6733  -10.5343    5.9795 C   0  0  0  0  0  0  0  0  0  0  0  0
   -1.1066  -11.7161    6.5675 C   0  0  0  0  0  0  0  0  0  0  0  0
    0.0068  -12.9713    6.9435 Cl  0  0  0  0  0  0  0  0  0  0  0  0
   -2.4647  -11.8798    6.8512 C   0  0  0  0  0  0  0  0  0  0  0  0
   -2.8773  -13.0230    7.4111 F   0  0  0  0  0  0  0  0  0  0  0  0
   -3.4103  -10.9048    6.5751 C   0  0  0  0  0  0  0  0  0  0  0  0
   -2.9746   -9.7258    5.9896 C   0  0  0  0  0  0  0  0  0  0  0  0
   -3.6894   -8.5192    5.5811 C   0  0  0  0  0  0  0  0  0  0  0  0
   -5.0166   -8.2785    5.8244 C   0  0  0  0  0  0  0  0  0  0  0  0
   -5.7221   -7.0931    5.5240 C   0  0  0  0  0  0  0  0  0  0  0  0
   -6.3731   -6.1642    5.3438 N   0  0  0  0  0  0  0  0  0  0  0  0
   -5.8796   -9.1981    6.4595 C   0  0  0  0  0  0  0  0  0  0  0  0
   -6.6362   -9.8979    6.9643 N   0  0  0  0  0  0  0  0  0  0  0  0
   -2.3295   -5.4979    3.6329 C   0  0  0  0  0  0  0  0  0  0  0  0
   -0.9628   -5.2824    3.5169 C   0  0  0  0  0  0  0  0  0  0  0  0
   -0.6784   -4.1498    2.7721 C   0  0  0  0  0  0  0  0  0  0  0  0
    0.8088   -3.3887    2.2794 S   0  0  0  0  0  0  0  0  0  0  0  0
   -0.1094   -2.1861    1.4421 C   0  0  0  0  0  0  0  0  0  0  0  0
    0.2070   -1.0458    0.6415 C   0  0  0  0  0  0  0  0  0  0  0  0
    1.4348   -0.5185    0.2507 C   0  0  0  0  0  0  0  0  0  0  0  0
    1.4122    0.5903   -0.5626 C   0  0  0  0  0  0  0  0  0  0  0  0
    2.5923    1.3423   -1.1531 C   0  0  0  0  0  0  0  0  0  0  0  0
    3.4236    2.0924   -0.1262 C   0  0  0  0  0  0  0  0  0  0  0  0
    2.9960    2.2737    1.1803 C   0  0  0  0  0  0  0  0  0  0  0  0
    3.7701    2.9910    2.0755 C   0  0  0  0  0  0  0  0  0  0  0  0
    4.9803    3.5486    1.6883 C   0  0  0  0  0  0  0  0  0  0  0  0
    5.7980    4.3604    2.6508 C   0  0  0  0  0  0  0  0  0  0  0  0
    5.4085    5.8378    2.5685 C   0  0  0  0  0  0  0  0  0  0  0  0
    5.3942    3.3783    0.3726 C   0  0  0  0  0  0  0  0  0  0  0  0
    4.6273    2.6621   -0.5250 C   0  0  0  0  0  0  0  0  0  0  0  0
    3.4356    0.3559   -1.9406 C   0  0  0  0  0  0  0  0  0  0  0  0
    3.1819    0.1050   -3.2813 C   0  0  0  0  0  0  0  0  0  0  0  0
    3.9232   -0.8376   -3.9699 C   0  0  0  0  0  0  0  0  0  0  0  0
    4.9245   -1.5611   -3.3368 C   0  0  0  0  0  0  0  0  0  0  0  0
    5.7557   -2.5537   -4.0967 C   0  0  0  0  0  0  0  0  0  0  0  0
    6.9918   -1.8731   -4.6882 C   0  0  0  0  0  0  0  0  0  0  0  0
    5.1693   -1.3107   -1.9926 C   0  0  0  0  0  0  0  0  0  0  0  0
    4.4341   -0.3676   -1.3006 C   0  0  0  0  0  0  0  0  0  0  0  0
    1.8846    2.3638   -2.0056 C   0  0  0  0  0  0  0  0  0  0  0  0
    0.5022    2.2336   -1.8630 C   0  0  0  0  0  0  0  0  0  0  0  0
    0.1839    1.1462   -0.9954 C   0  0  0  0  0  0  0  0  0  0  0  0
   -1.0450    0.6243   -0.5959 C   0  0  0  0  0  0  0  0  0  0  0  0
   -1.0219   -0.4700    0.2357 C   0  0  0  0  0  0  0  0  0  0  0  0
   -2.1987   -1.2466    0.7998 C   0  0  0  0  0  0  0  0  0  0  0  0
   -3.0137   -0.4793    1.8281 C   0  0  0  0  0  0  0  0  0  0  0  0
   -4.2197   -1.0168    2.2626 C   0  0  0  0  0  0  0  0  0  0  0  0
   -4.9650   -0.3743    3.2311 C   0  0  0  0  0  0  0  0  0  0  0  0
   -4.5272    0.8198    3.7913 C   0  0  0  0  0  0  0  0  0  0  0  0
   -5.3212    1.4947    4.8717 C   0  0  0  0  0  0  0  0  0  0  0  0
   -4.9274    0.9462    6.2448 C   0  0  0  0  0  0  0  0  0  0  0  0
   -3.3163    1.3447    3.3619 C   0  0  0  0  0  0  0  0  0  0  0  0
   -2.5626    0.7030    2.3950 C   0  0  0  0  0  0  0  0  0  0  0  0
   -3.0644   -1.7323   -0.3479 C   0  0  0  0  0  0  0  0  0  0  0  0
   -2.8355   -2.9609   -0.9500 C   0  0  0  0  0  0  0  0  0  0  0  0
   -3.6186   -3.3779   -2.0109 C   0  0  0  0  0  0  0  0  0  0  0  0
   -4.6417   -2.5782   -2.5008 C   0  0  0  0  0  0  0  0  0  0  0  0
   -5.4687   -3.0151   -3.6750 C   0  0  0  0  0  0  0  0  0  0  0  0
   -4.8665   -2.4888   -4.9793 C   0  0  0  0  0  0  0  0  0  0  0  0
   -4.8529   -1.3402   -1.9069 C   0  0  0  0  0  0  0  0  0  0  0  0
   -4.0756   -0.9198   -0.8453 C   0  0  0  0  0  0  0  0  0  0  0  0
   -1.4832   -2.3496    1.5318 C   0  0  0  0  0  0  0  0  0  0  0  0
   -1.8182   -3.4629    2.2963 C   0  0  0  0  0  0  0  0  0  0  0  0
   -3.2613   -4.2426    2.7972 S   0  0  0  0  0  0  0  0  0  0  0  0
   -0.3617    3.3841   -2.7771 S   0  0  0  0  0  0  0  0  0  0  0  0
    1.1577    4.0612   -3.3836 C   0  0  0  0  0  0  0  0  0  0  0  0
    2.2577    3.3910   -2.8513 C   0  0  0  0  0  0  0  0  0  0  0  0
    1.0304    5.1363   -4.2763 C   0  0  0  0  0  0  0  0  0  0  0  0
    1.9587    5.8500   -4.9939 C   0  0  0  0  0  0  0  0  0  0  0  0
    3.4162    5.6309   -5.0923 C   0  0  0  0  0  0  0  0  0  0  0  0
    4.1202    4.8478   -4.4892 O   0  0  0  0  0  0  0  0  0  0  0  0
    3.8934    6.5827   -6.1208 C   0  0  0  0  0  0  0  0  0  0  0  0
    5.1785    6.7380   -6.5992 C   0  0  0  0  0  0  0  0  0  0  0  0
    5.4038    7.6930   -7.5827 C   0  0  0  0  0  0  0  0  0  0  0  0
    6.9796    7.9388   -8.2262 Cl  0  0  0  0  0  0  0  0  0  0  0  0
    4.3320    8.4571   -8.0504 C   0  0  0  0  0  0  0  0  0  0  0  0
    4.5536    9.3719   -9.0019 F   0  0  0  0  0  0  0  0  0  0  0  0
    3.0401    8.3078   -7.5707 C   0  0  0  0  0  0  0  0  0  0  0  0
    2.8186    7.3545   -6.5883 C   0  0  0  0  0  0  0  0  0  0  0  0
    1.6072    6.9496   -5.8784 C   0  0  0  0  0  0  0  0  0  0  0  0
    0.3853    7.5547   -6.0207 C   0  0  0  0  0  0  0  0  0  0  0  0
    0.1352    8.6257   -6.9061 C   0  0  0  0  0  0  0  0  0  0  0  0
   -0.1416    9.4973   -7.5997 N   0  0  0  0  0  0  0  0  0  0  0  0
   -0.7970    7.2437   -5.3151 C   0  0  0  0  0  0  0  0  0  0  0  0
   -1.8050    7.0756   -4.7900 N   0  0  0  0  0  0  0  0  0  0  0  0
   -4.1546   -6.2903    4.2274 H   0  0  0  0  0  0  0  0  0  0  0  0
    0.3677  -10.3769    5.7463 H   0  0  0  0  0  0  0  0  0  0  0  0
   -4.4419  -11.0985    6.8188 H   0  0  0  0  0  0  0  0  0  0  0  0
   -0.2299   -5.9338    3.9553 H   0  0  0  0  0  0  0  0  0  0  0  0
    2.3595   -0.9712    0.5734 H   0  0  0  0  0  0  0  0  0  0  0  0
    2.0573    1.8511    1.5080 H   0  0  0  0  0  0  0  0  0  0  0  0
    3.4264    3.1159    3.0926 H   0  0  0  0  0  0  0  0  0  0  0  0
    6.8588    4.2552    2.4151 H   0  0  0  0  0  0  0  0  0  0  0  0
    5.6364    4.0018    3.6693 H   0  0  0  0  0  0  0  0  0  0  0  0
    5.5734    6.2170    1.5625 H   0  0  0  0  0  0  0  0  0  0  0  0
    6.0017    6.4270    3.2639 H   0  0  0  0  0  0  0  0  0  0  0  0
    4.3564    5.9660    2.8134 H   0  0  0  0  0  0  0  0  0  0  0  0
    6.3299    3.8099    0.0478 H   0  0  0  0  0  0  0  0  0  0  0  0
    4.9683    2.5337   -1.5416 H   0  0  0  0  0  0  0  0  0  0  0  0
    2.4031    0.6493   -3.7954 H   0  0  0  0  0  0  0  0  0  0  0  0
    3.7158   -1.0162   -5.0153 H   0  0  0  0  0  0  0  0  0  0  0  0
    6.0724   -3.3585   -3.4302 H   0  0  0  0  0  0  0  0  0  0  0  0
    5.1645   -2.9907   -4.9040 H   0  0  0  0  0  0  0  0  0  0  0  0
    6.6961   -1.0737   -5.3638 H   0  0  0  0  0  0  0  0  0  0  0  0
    7.6020   -1.4436   -3.8969 H   0  0  0  0  0  0  0  0  0  0  0  0
    7.5934   -2.5910   -5.2406 H   0  0  0  0  0  0  0  0  0  0  0  0
    5.9436   -1.8633   -1.4797 H   0  0  0  0  0  0  0  0  0  0  0  0
    4.6458   -0.1834   -0.2571 H   0  0  0  0  0  0  0  0  0  0  0  0
   -1.9698    1.0648   -0.9346 H   0  0  0  0  0  0  0  0  0  0  0  0
   -4.5803   -1.9395    1.8311 H   0  0  0  0  0  0  0  0  0  0  0  0
   -5.9010   -0.8054    3.5546 H   0  0  0  0  0  0  0  0  0  0  0  0
   -6.3869    1.3224    4.7091 H   0  0  0  0  0  0  0  0  0  0  0  0
   -5.1404    2.5711    4.8479 H   0  0  0  0  0  0  0  0  0  0  0  0
   -5.1126   -0.1245    6.2917 H   0  0  0  0  0  0  0  0  0  0  0  0
   -3.8699    1.1193    6.4326 H   0  0  0  0  0  0  0  0  0  0  0  0
   -5.5037    1.4331    7.0278 H   0  0  0  0  0  0  0  0  0  0  0  0
   -2.9552    2.2702    3.7874 H   0  0  0  0  0  0  0  0  0  0  0  0
   -1.6220    1.1312    2.0802 H   0  0  0  0  0  0  0  0  0  0  0  0
   -2.0434   -3.6016   -0.5897 H   0  0  0  0  0  0  0  0  0  0  0  0
   -3.4324   -4.3424   -2.4614 H   0  0  0  0  0  0  0  0  0  0  0  0
   -6.4870   -2.6356   -3.5711 H   0  0  0  0  0  0  0  0  0  0  0  0
   -5.5121   -4.1052   -3.7125 H   0  0  0  0  0  0  0  0  0  0  0  0
   -3.8542   -2.8656   -5.1077 H   0  0  0  0  0  0  0  0  0  0  0  0
   -5.4659   -2.8054   -5.8295 H   0  0  0  0  0  0  0  0  0  0  0  0
   -4.8274   -1.4019   -4.9670 H   0  0  0  0  0  0  0  0  0  0  0  0
   -5.6409   -0.6995   -2.2760 H   0  0  0  0  0  0  0  0  0  0  0  0
   -4.2666    0.0402   -0.3878 H   0  0  0  0  0  0  0  0  0  0  0  0
    3.2670    3.6602   -3.0996 H   0  0  0  0  0  0  0  0  0  0  0  0
   -0.0013    5.4303   -4.4290 H   0  0  0  0  0  0  0  0  0  0  0  0
    5.9835    6.1306   -6.2173 H   0  0  0  0  0  0  0  0  0  0  0  0
    2.2610    8.9304   -7.9782 H   0  0  0  0  0  0  0  0  0  0  0  0
  1  2  2  0  0  0  0
  2  3  1  0  0  0  0
  3  4  2  0  0  0  0
  3  5  1  0  0  0  0
  5  6  2  0  0  0  0
  6  7  1  0  0  0  0
  7  8  1  0  0  0  0
  7  9  2  0  0  0  0
  9 10  1  0  0  0  0
  9 11  1  0  0  0  0
 11 12  2  0  0  0  0
 12 13  1  0  0  0  0
 13 14  2  0  0  0  0
 14 15  1  0  0  0  0
 15 16  3  0  0  0  0
 14 17  1  0  0  0  0
 17 18  3  0  0  0  0
  1 19  1  0  0  0  0
 19 20  2  0  0  0  0
 20 21  1  0  0  0  0
 21 22  1  0  0  0  0
 22 23  1  0  0  0  0
 23 24  1  0  0  0  0
 24 25  2  0  0  0  0
 25 26  1  0  0  0  0
 26 27  1  0  0  0  0
 27 28  1  0  0  0  0
 28 29  2  0  0  0  0
 29 30  1  0  0  0  0
 30 31  2  0  0  0  0
 31 32  1  0  0  0  0
 32 33  1  0  0  0  0
 31 34  1  0  0  0  0
 34 35  2  0  0  0  0
 27 36  1  0  0  0  0
 36 37  2  0  0  0  0
 37 38  1  0  0  0  0
 38 39  2  0  0  0  0
 39 40  1  0  0  0  0
 40 41  1  0  0  0  0
 39 42  1  0  0  0  0
 42 43  2  0  0  0  0
 27 44  1  0  0  0  0
 44 45  2  0  0  0  0
 45 46  1  0  0  0  0
 46 47  1  0  0  0  0
 47 48  2  0  0  0  0
 48 49  1  0  0  0  0
 49 50  1  0  0  0  0
 50 51  2  0  0  0  0
 51 52  1  0  0  0  0
 52 53  2  0  0  0  0
 53 54  1  0  0  0  0
 54 55  1  0  0  0  0
 53 56  1  0  0  0  0
 56 57  2  0  0  0  0
 49 58  1  0  0  0  0
 58 59  2  0  0  0  0
 59 60  1  0  0  0  0
 60 61  2  0  0  0  0
 61 62  1  0  0  0  0
 62 63  1  0  0  0  0
 61 64  1  0  0  0  0
 64 65  2  0  0  0  0
 49 66  1  0  0  0  0
 66 67  1  0  0  0  0
 67 68  1  0  0  0  0
 45 69  1  0  0  0  0
 69 70  1  0  0  0  0
 70 71  2  0  0  0  0
 70 72  1  0  0  0  0
 72 73  2  0  0  0  0
 73 74  1  0  0  0  0
 74 75  2  0  0  0  0
 74 76  1  0  0  0  0
 76 77  2  0  0  0  0
 77 78  1  0  0  0  0
 78 79  1  0  0  0  0
 78 80  2  0  0  0  0
 80 81  1  0  0  0  0
 80 82  1  0  0  0  0
 82 83  2  0  0  0  0
 83 84  1  0  0  0  0
 84 85  2  0  0  0  0
 85 86  1  0  0  0  0
 86 87  3  0  0  0  0
 85 88  1  0  0  0  0
 88 89  3  0  0  0  0
 13  2  1  0  0  0  0
 68 19  1  0  0  0  0
 84 73  1  0  0  0  0
 12  5  1  0  0  0  0
 67 21  2  0  0  0  0
 83 76  1  0  0  0  0
 66 23  2  0  0  0  0
 48 24  1  0  0  0  0
 57 50  1  0  0  0  0
 65 58  1  0  0  0  0
 46 26  2  0  0  0  0
 35 28  1  0  0  0  0
 43 36  1  0  0  0  0
 71 44  1  0  0  0  0
  1 90  1  0  0  0  0
  6 91  1  0  0  0  0
 11 92  1  0  0  0  0
 20 93  1  0  0  0  0
 25 94  1  0  0  0  0
 29 95  1  0  0  0  0
 30 96  1  0  0  0  0
 32 97  1  0  0  0  0
 32 98  1  0  0  0  0
 33 99  1  0  0  0  0
 33100  1  0  0  0  0
 33101  1  0  0  0  0
 34102  1  0  0  0  0
 35103  1  0  0  0  0
 37104  1  0  0  0  0
 38105  1  0  0  0  0
 40106  1  0  0  0  0
 40107  1  0  0  0  0
 41108  1  0  0  0  0
 41109  1  0  0  0  0
 41110  1  0  0  0  0
 42111  1  0  0  0  0
 43112  1  0  0  0  0
 47113  1  0  0  0  0
 51114  1  0  0  0  0
 52115  1  0  0  0  0
 54116  1  0  0  0  0
 54117  1  0  0  0  0
 55118  1  0  0  0  0
 55119  1  0  0  0  0
 55120  1  0  0  0  0
 56121  1  0  0  0  0
 57122  1  0  0  0  0
 59123  1  0  0  0  0
 60124  1  0  0  0  0
 62125  1  0  0  0  0
 62126  1  0  0  0  0
 63127  1  0  0  0  0
 63128  1  0  0  0  0
 63129  1  0  0  0  0
 64130  1  0  0  0  0
 65131  1  0  0  0  0
 71132  1  0  0  0  0
 72133  1  0  0  0  0
 77134  1  0  0  0  0
 82135  1  0  0  0  0
M  END
