
  xtb     02012222273D
 energy: -179.600479161412 gnorm: 0.000561898317 xtb: 6.4.1 (unknown)
 96106  0     0  0            999 V2000
   -0.2989    6.7512    3.7059 C   0  0  0  0  0  0  0  0  0  0  0  0
   -0.9423    6.5876    4.9118 C   0  0  0  0  0  0  0  0  0  0  0  0
   -1.3403    5.3159    5.5138 C   0  0  0  0  0  0  0  0  0  0  0  0
   -1.1966    4.1930    5.0621 O   0  0  0  0  0  0  0  0  0  0  0  0
   -1.9694    5.6554    6.8071 C   0  0  0  0  0  0  0  0  0  0  0  0
   -2.5052    4.8016    7.7488 C   0  0  0  0  0  0  0  0  0  0  0  0
   -3.0521    5.3534    8.9012 C   0  0  0  0  0  0  0  0  0  0  0  0
   -3.7378    4.3477   10.1166 Cl  0  0  0  0  0  0  0  0  0  0  0  0
   -3.0416    6.7399    9.0664 C   0  0  0  0  0  0  0  0  0  0  0  0
   -3.5696    7.2651   10.1781 F   0  0  0  0  0  0  0  0  0  0  0  0
   -2.5048    7.6028    8.1226 C   0  0  0  0  0  0  0  0  0  0  0  0
   -1.9601    7.0506    6.9742 C   0  0  0  0  0  0  0  0  0  0  0  0
   -1.3310    7.6618    5.8033 C   0  0  0  0  0  0  0  0  0  0  0  0
   -1.1702    9.0107    5.6124 C   0  0  0  0  0  0  0  0  0  0  0  0
   -0.5851    9.6216    4.4839 C   0  0  0  0  0  0  0  0  0  0  0  0
   -0.1261   10.1947    3.5997 N   0  0  0  0  0  0  0  0  0  0  0  0
   -1.5836    9.9929    6.5376 C   0  0  0  0  0  0  0  0  0  0  0  0
   -1.8933   10.8413    7.2458 N   0  0  0  0  0  0  0  0  0  0  0  0
    0.1138    5.8190    2.7527 C   0  0  0  0  0  0  0  0  0  0  0  0
    0.7707    6.1813    1.5607 C   0  0  0  0  0  0  0  0  0  0  0  0
    1.1768    7.5652    1.1739 C   0  0  0  0  0  0  0  0  0  0  0  0
    2.5116    7.9396    1.8246 C   0  0  0  0  0  0  0  0  0  0  0  0
    1.0556    5.0689    0.7828 C   0  0  0  0  0  0  0  0  0  0  0  0
    1.8260    4.8875   -0.7833 S   0  0  0  0  0  0  0  0  0  0  0  0
    1.5578    3.1826   -0.6813 C   0  0  0  0  0  0  0  0  0  0  0  0
    1.7381    2.0320   -1.4606 C   0  0  0  0  0  0  0  0  0  0  0  0
    2.1888    1.8751   -2.7904 C   0  0  0  0  0  0  0  0  0  0  0  0
    2.1065    0.5810   -3.4009 C   0  0  0  0  0  0  0  0  0  0  0  0
    2.4974    0.5925   -4.6657 N   0  0  0  0  0  0  0  0  0  0  0  0
    2.9364    2.1007   -5.0533 S   0  0  0  0  0  0  0  0  0  0  0  0
    2.6433    2.7983   -3.6231 N   0  0  0  0  0  0  0  0  0  0  0  0
    1.7013   -0.5189   -2.6132 C   0  0  0  0  0  0  0  0  0  0  0  0
    1.6575   -1.8908   -2.9001 C   0  0  0  0  0  0  0  0  0  0  0  0
    1.9192   -2.9540   -4.2360 S   0  0  0  0  0  0  0  0  0  0  0  0
    1.6056   -4.3153   -3.1850 C   0  0  0  0  0  0  0  0  0  0  0  0
    1.5938   -5.7018   -3.4157 C   0  0  0  0  0  0  0  0  0  0  0  0
    1.9797   -6.2733   -4.7417 C   0  0  0  0  0  0  0  0  0  0  0  0
    1.0063   -5.8753   -5.8518 C   0  0  0  0  0  0  0  0  0  0  0  0
    1.3222   -6.4002   -2.2489 C   0  0  0  0  0  0  0  0  0  0  0  0
    1.0996   -5.3206   -0.8673 S   0  0  0  0  0  0  0  0  0  0  0  0
    1.3296   -3.9375   -1.8669 C   0  0  0  0  0  0  0  0  0  0  0  0
    1.3396   -2.5482   -1.7068 C   0  0  0  0  0  0  0  0  0  0  0  0
    1.1626   -1.6338   -0.7027 N   0  0  0  0  0  0  0  0  0  0  0  0
    1.3517   -0.3733   -1.2401 C   0  0  0  0  0  0  0  0  0  0  0  0
    1.2439    0.9335   -0.6967 C   0  0  0  0  0  0  0  0  0  0  0  0
    0.7473    1.4186    0.5015 N   0  0  0  0  0  0  0  0  0  0  0  0
    0.9277    2.7782    0.5018 C   0  0  0  0  0  0  0  0  0  0  0  0
    0.6273    3.8514    1.3433 C   0  0  0  0  0  0  0  0  0  0  0  0
   -0.1342    4.0745    2.8712 S   0  0  0  0  0  0  0  0  0  0  0  0
   -0.2783    0.8703    1.3643 C   0  0  0  0  0  0  0  0  0  0  0  0
   -1.6290    0.8434    0.6526 C   0  0  0  0  0  0  0  0  0  0  0  0
    1.1685   -2.0710    0.6750 C   0  0  0  0  0  0  0  0  0  0  0  0
   -0.1840   -2.6328    1.1100 C   0  0  0  0  0  0  0  0  0  0  0  0
    1.2537   -7.8029   -2.0312 C   0  0  0  0  0  0  0  0  0  0  0  0
    0.7790   -8.7792   -2.8696 C   0  0  0  0  0  0  0  0  0  0  0  0
    0.0215   -8.5992   -4.0364 C   0  0  0  0  0  0  0  0  0  0  0  0
   -0.6583   -8.4093   -4.9403 N   0  0  0  0  0  0  0  0  0  0  0  0
    1.0405  -10.0619   -2.2549 C   0  0  0  0  0  0  0  0  0  0  0  0
    0.7622  -11.3076   -2.7451 C   0  0  0  0  0  0  0  0  0  0  0  0
    0.1661  -11.5216   -4.0017 C   0  0  0  0  0  0  0  0  0  0  0  0
   -0.3024  -11.7500   -5.0234 N   0  0  0  0  0  0  0  0  0  0  0  0
    1.0867  -12.4614   -2.0020 C   0  0  0  0  0  0  0  0  0  0  0  0
    1.3473  -13.4008   -1.3984 N   0  0  0  0  0  0  0  0  0  0  0  0
    1.6444   -9.8873   -1.0722 O   0  0  0  0  0  0  0  0  0  0  0  0
    1.7775   -8.4897   -0.7832 C   0  0  0  0  0  0  0  0  0  0  0  0
    3.2568   -8.1794   -0.5496 C   0  0  0  0  0  0  0  0  0  0  0  0
    0.9447   -8.2144    0.4737 C   0  0  0  0  0  0  0  0  0  0  0  0
   -0.0652    7.7711    3.4334 H   0  0  0  0  0  0  0  0  0  0  0  0
   -2.4984    3.7349    7.5917 H   0  0  0  0  0  0  0  0  0  0  0  0
   -2.5304    8.6628    8.3147 H   0  0  0  0  0  0  0  0  0  0  0  0
    1.2890    7.5970    0.0884 H   0  0  0  0  0  0  0  0  0  0  0  0
    0.4173    8.2938    1.4605 H   0  0  0  0  0  0  0  0  0  0  0  0
    2.4341    7.9080    2.9088 H   0  0  0  0  0  0  0  0  0  0  0  0
    2.7949    8.9454    1.5287 H   0  0  0  0  0  0  0  0  0  0  0  0
    3.2917    7.2497    1.5114 H   0  0  0  0  0  0  0  0  0  0  0  0
    2.0496   -7.3595   -4.6862 H   0  0  0  0  0  0  0  0  0  0  0  0
    2.9708   -5.8807   -4.9910 H   0  0  0  0  0  0  0  0  0  0  0  0
    0.9502   -4.7941   -5.9442 H   0  0  0  0  0  0  0  0  0  0  0  0
    1.3489   -6.2868   -6.7968 H   0  0  0  0  0  0  0  0  0  0  0  0
    0.0133   -6.2673   -5.6500 H   0  0  0  0  0  0  0  0  0  0  0  0
   -0.3362    1.5247    2.2374 H   0  0  0  0  0  0  0  0  0  0  0  0
   -0.0134   -0.1234    1.7109 H   0  0  0  0  0  0  0  0  0  0  0  0
   -1.5834    0.2188   -0.2376 H   0  0  0  0  0  0  0  0  0  0  0  0
   -2.3917    0.4539    1.3210 H   0  0  0  0  0  0  0  0  0  0  0  0
   -1.9150    1.8485    0.3516 H   0  0  0  0  0  0  0  0  0  0  0  0
    1.4948   -1.2430    1.3053 H   0  0  0  0  0  0  0  0  0  0  0  0
    1.9202   -2.8641    0.7654 H   0  0  0  0  0  0  0  0  0  0  0  0
   -0.4036   -3.5428    0.5582 H   0  0  0  0  0  0  0  0  0  0  0  0
   -0.9879   -1.9258    0.9272 H   0  0  0  0  0  0  0  0  0  0  0  0
   -0.1586   -2.8736    2.1692 H   0  0  0  0  0  0  0  0  0  0  0  0
    3.8383   -8.4330   -1.4337 H   0  0  0  0  0  0  0  0  0  0  0  0
    3.3855   -7.1234   -0.3296 H   0  0  0  0  0  0  0  0  0  0  0  0
    3.6196   -8.7693    0.2873 H   0  0  0  0  0  0  0  0  0  0  0  0
    1.2038   -8.9599    1.2216 H   0  0  0  0  0  0  0  0  0  0  0  0
   -0.1170   -8.2991    0.2513 H   0  0  0  0  0  0  0  0  0  0  0  0
    1.1505   -7.2266    0.8722 H   0  0  0  0  0  0  0  0  0  0  0  0
  1  2  2  0  0  0  0
  2  3  1  0  0  0  0
  3  4  2  0  0  0  0
  3  5  1  0  0  0  0
  5  6  2  0  0  0  0
  6  7  1  0  0  0  0
  7  8  1  0  0  0  0
  7  9  2  0  0  0  0
  9 10  1  0  0  0  0
  9 11  1  0  0  0  0
 11 12  2  0  0  0  0
 12 13  1  0  0  0  0
 13 14  2  0  0  0  0
 14 15  1  0  0  0  0
 15 16  3  0  0  0  0
 14 17  1  0  0  0  0
 17 18  3  0  0  0  0
  1 19  1  0  0  0  0
 19 20  2  0  0  0  0
 20 21  1  0  0  0  0
 21 22  1  0  0  0  0
 20 23  1  0  0  0  0
 23 24  1  0  0  0  0
 24 25  1  0  0  0  0
 25 26  1  0  0  0  0
 26 27  1  0  0  0  0
 27 28  1  0  0  0  0
 28 29  2  0  0  0  0
 29 30  1  0  0  0  0
 30 31  1  0  0  0  0
 28 32  1  0  0  0  0
 32 33  1  0  0  0  0
 33 34  1  0  0  0  0
 34 35  1  0  0  0  0
 35 36  1  0  0  0  0
 36 37  1  0  0  0  0
 37 38  1  0  0  0  0
 36 39  2  0  0  0  0
 39 40  1  0  0  0  0
 40 41  1  0  0  0  0
 41 42  1  0  0  0  0
 42 43  1  0  0  0  0
 43 44  1  0  0  0  0
 44 45  1  0  0  0  0
 45 46  1  0  0  0  0
 46 47  1  0  0  0  0
 47 48  1  0  0  0  0
 48 49  1  0  0  0  0
 46 50  1  0  0  0  0
 50 51  1  0  0  0  0
 43 52  1  0  0  0  0
 52 53  1  0  0  0  0
 39 54  1  0  0  0  0
 54 55  2  0  0  0  0
 55 56  1  0  0  0  0
 56 57  3  0  0  0  0
 55 58  1  0  0  0  0
 58 59  2  0  0  0  0
 59 60  1  0  0  0  0
 60 61  3  0  0  0  0
 59 62  1  0  0  0  0
 62 63  3  0  0  0  0
 58 64  1  0  0  0  0
 64 65  1  0  0  0  0
 65 66  1  0  0  0  0
 65 67  1  0  0  0  0
 13  2  1  0  0  0  0
 49 19  1  0  0  0  0
 65 54  1  0  0  0  0
 12  5  1  0  0  0  0
 48 23  2  0  0  0  0
 47 25  2  0  0  0  0
 45 26  2  0  0  0  0
 31 27  2  0  0  0  0
 44 32  2  0  0  0  0
 42 33  2  0  0  0  0
 41 35  2  0  0  0  0
  1 68  1  0  0  0  0
  6 69  1  0  0  0  0
 11 70  1  0  0  0  0
 21 71  1  0  0  0  0
 21 72  1  0  0  0  0
 22 73  1  0  0  0  0
 22 74  1  0  0  0  0
 22 75  1  0  0  0  0
 37 76  1  0  0  0  0
 37 77  1  0  0  0  0
 38 78  1  0  0  0  0
 38 79  1  0  0  0  0
 38 80  1  0  0  0  0
 50 81  1  0  0  0  0
 50 82  1  0  0  0  0
 51 83  1  0  0  0  0
 51 84  1  0  0  0  0
 51 85  1  0  0  0  0
 52 86  1  0  0  0  0
 52 87  1  0  0  0  0
 53 88  1  0  0  0  0
 53 89  1  0  0  0  0
 53 90  1  0  0  0  0
 66 91  1  0  0  0  0
 66 92  1  0  0  0  0
 66 93  1  0  0  0  0
 67 94  1  0  0  0  0
 67 95  1  0  0  0  0
 67 96  1  0  0  0  0
M  END
