92

C          1.49700       -7.00920        1.54430
C          0.91320       -8.01390        2.27270
C         -0.49780       -8.00320        2.71310
O         -1.38490       -7.25080        2.37230
C         -0.58120       -9.04210        3.76700
C         -1.67280       -9.38900        4.53590
C         -1.51680      -10.38930        5.48860
Cl        -2.83770      -10.87060        6.47950
C         -0.27180      -11.00400        5.63970
F         -0.12790      -11.96080        6.56440
C          0.82990      -10.65940        4.87170
C          0.67010       -9.66280        3.92240
C          1.60880       -9.06890        2.97560
C          2.88700       -9.49670        2.72700
C          3.51280      -10.55440        3.41790
N          4.06950      -11.40320        3.95360
C          3.71590       -8.96060        1.71900
N          4.42710       -8.58380        0.90020
C          0.82280       -6.06880        0.74240
C         -0.29320       -6.20570       -0.07900
C         -0.96030       -7.50280       -0.38810
C         -1.08990       -7.74890       -1.89030
C         -0.63060       -4.98300       -0.67320
S         -1.94330       -4.49500       -1.72370
C         -1.37300       -2.86690       -1.65250
C         -1.70900       -1.60090       -2.15040
C         -2.70310       -1.20450       -3.07180
C         -2.76690        0.17030       -3.47080
N         -3.70960        0.39220       -4.37320
S         -4.45550       -1.00890       -4.69040
N         -3.60410       -1.95310       -3.68840
C         -1.91000        1.10130       -2.84310
C         -1.87420        2.50070       -2.91090
S         -2.66840        3.79120       -3.74480
C         -1.75390        4.93570       -2.78710
C         -1.76040        6.33220       -2.73180
C         -2.59360        7.18260       -3.63390
C         -1.79230        7.60980       -4.86600
C         -0.87130        6.80350       -1.77080
S         -0.02840        5.49890       -0.94160
C         -0.87430        4.32590       -1.88240
C         -0.94010        2.93020       -1.96260
N         -0.36960        1.85190       -1.34430
C         -0.94820        0.70730       -1.86730
C         -0.77020       -0.67720       -1.60490
N          0.14270       -1.38600       -0.84060
C         -0.22460       -2.70550       -0.86960
C          0.20920       -3.91440       -0.32070
S          1.49240       -4.43520        0.70210
C          1.47900       -1.02720       -0.41760
C          2.33270       -0.56040       -1.59360
C          0.38790        2.04590       -0.12820
C         -0.38990        1.57640        1.09830
C         -0.64340        8.15080       -1.43060
C          0.18440        8.65040       -0.47930
S          1.23450        7.76280        0.60300
C          1.77780        9.27700        1.39920
O          2.55890        9.30870        2.30460
N          1.15410       10.33770        0.81390
C          1.43190       11.69410        1.25800
C          2.72760       12.21860        0.65410
C          0.27400       10.08730       -0.22690
O         -0.33210       10.95390       -0.81500
H          2.56590       -6.85800        1.64520
H         -2.62130       -8.89460        4.39910
H          1.76600      -11.16630        5.04160
H         -0.38900       -8.31590        0.06270
H         -1.95140       -7.49870        0.07390
H         -0.11370       -7.70110       -2.36820
H         -1.74260       -7.01640       -2.35610
H         -1.50870       -8.73720       -2.06090
H         -3.46000        6.60000       -3.95300
H         -2.94870        8.06630       -3.10210
H         -1.45060        6.73540       -5.41480
H         -2.41370        8.21100       -5.52420
H         -0.92470        8.19670       -4.57360
H          1.92070       -1.93040        0.01080
H          1.44590       -0.28110        0.37690
H          3.32630       -0.29240       -1.24510
H          1.88870        0.30040       -2.08800
H          2.42680       -1.35980       -2.32500
H          0.57310        3.11960       -0.04620
H          1.36030        1.55850       -0.20080
H         -0.65530        0.52460        1.02080
H          0.20750        1.72470        1.99360
H         -1.30770        2.15120        1.19690
H         -1.20320        8.89540       -1.98380
H          0.58230       12.30180        0.93770
H          1.49660       11.68300        2.34850
H          2.90200       13.23530        0.99380
H          3.56480       11.59770        0.96430
H          2.66580       12.21790       -0.43180
