97

C          2.77440        7.42420        3.96210
C          1.83660        7.96260        4.81540
C          0.49640        7.43710        5.06920
O         -0.02800        6.44940        4.58460
C         -0.12010        8.35020        6.05480
C         -1.37860        8.28240        6.61540
C         -1.74210        9.25850        7.53570
Cl        -3.29550        9.23420        8.27420
C         -0.83080       10.26530        7.85980
F         -1.18590       11.20150        8.74820
C          0.43530       10.33880        7.29840
C          0.79540        9.36510        6.38070
C          2.02680        9.15160        5.61970
C          3.13970        9.95170        5.68690
C          4.33550        9.76790        4.96240
N          5.34040        9.69100        4.41010
C          3.24200       11.09320        6.50970
N          3.39310       12.03020        7.15520
C          2.73400        6.28850        3.15370
C          3.81150        5.88870        2.33880
C          5.09720        6.62890        2.16870
C          4.94520        7.75430        1.14130
C          3.51930        4.72110        1.65110
S          4.45000        3.75190        0.52240
C          3.12180        2.64920        0.42600
C          2.79700        1.43390       -0.18710
C          3.57880        0.57100       -0.98660
C          3.03230       -0.69500       -1.37310
N          3.88870       -1.42470       -2.07060
S          5.26360       -0.58600       -2.23180
N          4.81990        0.73920       -1.41480
C          1.69710       -0.99480       -1.02480
C          0.90040       -2.10440       -1.33840
S          1.03190       -3.62960       -2.13720
C         -0.65840       -3.93950       -1.79720
C         -1.51730       -5.00950       -2.09930
C         -1.09120       -6.29640       -2.71970
C          0.26910       -6.78770       -2.23430
C         -2.80420       -4.75790       -1.63640
S         -2.92200       -3.22770       -0.76690
C         -1.26750       -2.88860       -1.09720
C         -0.37610       -1.84400       -0.83210
N         -0.39320       -0.63090       -0.19860
C          0.87890       -0.08700       -0.29000
C          1.46860        1.10160        0.21940
N          1.02210        2.08980        1.07800
C          2.02080        3.01710        1.20970
C          2.23940        4.19990        1.91940
S          1.36590        5.17740        3.03660
C         -0.07390        2.09650        2.02140
C          0.05510        0.96180        3.03450
C         -1.66300       -0.00130        0.08980
C         -1.93780        1.16250       -0.85940
C         -3.98050       -5.54110       -1.65050
C         -4.40700       -6.40490       -2.61660
C         -3.94500       -6.43080       -4.02950
O         -3.10960       -5.72270       -4.55060
C         -4.81420       -7.41470       -4.69080
C         -5.73880       -7.90070       -3.77440
S         -6.84070       -9.05450       -4.43550
C         -6.06160       -8.89170       -5.97820
C         -6.26300       -9.48190       -7.23920
C         -5.36400       -9.01310       -8.14540
S         -4.25320       -7.85170       -7.50470
C         -4.99970       -7.97670       -5.95840
C         -5.54030       -7.31230       -2.48210
C         -6.26650       -7.61580       -1.35710
C         -6.04490       -7.08940       -0.07120
N         -5.90880       -6.70600        1.00300
C         -7.33330       -8.53640       -1.41340
N         -8.20450       -9.28250       -1.45200
H          3.71160        7.95960        3.89850
H         -2.05980        7.49150        6.34510
H          1.08820       11.14340        7.59430
H          5.43820        7.04820        3.11630
H          5.85190        5.92380        1.81500
H          5.89210        8.27280        1.02260
H          4.19710        8.47390        1.46530
H          4.64430        7.34900        0.17810
H         -1.84970       -7.05350       -2.50470
H         -1.06970       -6.16330       -3.80620
H          0.44880       -7.78940       -2.61670
H          0.29930       -6.82300       -1.14740
H          1.07040       -6.14340       -2.58410
H         -1.02980        2.06700        1.49930
H         -0.02570        3.05320        2.54680
H          0.09110       -0.00760        2.54240
H          0.96910        1.08310        3.61120
H         -0.78850        0.97970        3.71890
H         -2.42800       -0.76840       -0.05200
H         -1.71220        0.30790        1.13350
H         -1.15260        1.91300       -0.80270
H         -1.98760        0.80170       -1.88410
H         -2.88800        1.62690       -0.61020
H         -4.62610       -5.39470       -0.79150
H         -7.02540      -10.20610       -7.45720
H         -5.28150       -9.28470       -9.17920
