100

C          6.51590        3.81370       -3.88260
C          7.03390        4.80010       -3.07480
C          6.79340        4.95860       -1.64100
O          6.12930        4.24630       -0.90850
C          7.53110        6.17360       -1.23560
C          7.61100        6.75030        0.01500
C          8.36970        7.90600        0.15940
Cl         8.51170        8.67790        1.68970
C          9.01990        8.44020       -0.95490
F          9.74720        9.55410       -0.81000
C          8.94450        7.86370       -2.21400
C          8.18790        6.71140       -2.35560
C          7.90390        5.87050       -3.51840
C          8.39300        6.08590       -4.78200
C          8.13760        5.28600       -5.91510
N          7.97620        4.69150       -6.88540
C          9.24090        7.15980       -5.12740
N          9.93180        8.00720       -5.47650
C          5.65490        2.75210       -3.59940
C          5.19010        1.86350       -4.58850
C          5.50810        1.93360       -6.04590
C          4.58430        2.92770       -6.75580
C          4.32070        0.92470       -4.05400
S          3.40780       -0.38670       -4.77730
C          2.74410       -0.74320       -3.22140
C          1.83970       -1.64220       -2.63590
C          1.15530       -2.78090       -3.12160
C          0.36890       -3.56950       -2.21030
N         -0.15110       -4.63860       -2.79120
S          0.29680       -4.65280       -4.34520
N          1.17600       -3.29470       -4.34090
C          0.17780       -3.10730       -0.88710
C         -0.64920       -3.53490        0.16470
S         -1.74370       -4.81930        0.53020
C         -2.09840       -4.06480        2.07010
C         -2.98770       -4.37790        3.10590
C         -3.79430       -5.62900        3.18220
C         -2.99110       -6.87790        2.82640
C         -2.93300       -3.41620        4.11450
S         -1.71890       -2.17300        3.79910
C         -1.36950       -2.88100        2.27130
C         -0.54930       -2.57740        1.18410
N          0.32140       -1.58120        0.81490
C          0.79500       -1.90770       -0.44230
C          1.74860       -1.27290       -1.26560
N          2.62460       -0.23860       -1.00650
C          3.21330        0.09870       -2.20060
C          4.11560        1.05540       -2.66800
S          5.00170        2.37340       -2.00220
C          3.29440        0.03250        0.25100
C          4.71130       -0.54000        0.25830
C          0.16260       -0.24540        1.35690
C         -1.22630        0.31360        1.04970
C         -3.63290       -3.31740        5.33100
C         -4.94420       -3.65950        5.54580
C         -5.96600       -3.72640        4.48090
O         -5.80250       -3.67800        3.28080
C         -7.26650       -3.73800        5.19280
C         -8.53600       -3.73710        4.65340
C         -9.61080       -3.71980        5.53680
C        -11.01740       -3.74510        5.00400
F        -11.52140       -4.99440        4.98250
F        -11.10870       -3.28060        3.75120
F        -11.86230       -3.01450        5.74750
C         -9.41200       -3.70830        6.91350
C         -8.13180       -3.70680        7.44870
C         -7.05080       -3.72060        6.58110
C         -5.60900       -3.71130        6.82780
C         -4.99780       -3.83130        8.04830
C         -3.60080       -3.93140        8.22270
N         -2.47640       -4.04500        8.42410
C         -5.68780       -3.91350        9.27520
N         -6.19850       -3.97580       10.30110
H          6.80370        3.86190       -4.92370
H          7.09670        6.31410        0.85630
H          9.47170        8.32920       -3.03040
H          6.54680        2.22380       -6.20950
H          5.35840        0.94100       -6.47550
H          4.70670        3.92780       -6.34680
H          4.82250        2.95780       -7.81490
H          3.54530        2.62860       -6.63870
H         -4.64510       -5.53050        2.50120
H         -4.19510       -5.73160        4.19280
H         -2.69410       -6.87340        1.78170
H         -3.59900       -7.76140        3.00350
H         -2.09770       -6.94510        3.44350
H          2.73290       -0.43650        1.05750
H          3.33480        1.11540        0.40490
H          5.15560       -0.38660        1.23760
H          5.33590       -0.04830       -0.48150
H          4.68830       -1.60720        0.04760
H          0.31600       -0.29170        2.43940
H          0.90270        0.41540        0.91180
H         -1.30030        1.32800        1.43100
H         -2.00380       -0.28630        1.51400
H         -1.39450        0.33120       -0.02510
H         -3.08790       -2.85240        6.14500
H         -8.68070       -3.74300        3.58400
H        -10.26690       -3.69120        7.57220
H         -7.99960       -3.68670        8.51790
