
  xtb     02012218303D
 energy: -198.332675293036 gnorm: 0.000675817837 xtb: 6.4.1 (unknown)
112123  0     0  0            999 V2000
    4.1634   -6.3720   -4.7317 C   0  0  0  0  0  0  0  0  0  0  0  0
    5.4322   -6.2019   -4.2467 C   0  0  0  0  0  0  0  0  0  0  0  0
    6.5848   -6.2526   -5.1744 C   0  0  0  0  0  0  0  0  0  0  0  0
    6.5890   -6.6452   -6.3190 O   0  0  0  0  0  0  0  0  0  0  0  0
    7.7131   -5.6580   -4.4158 C   0  0  0  0  0  0  0  0  0  0  0  0
    8.9890   -5.3675   -4.8530 C   0  0  0  0  0  0  0  0  0  0  0  0
    9.8748   -4.7777   -3.9581 C   0  0  0  0  0  0  0  0  0  0  0  0
   11.4790   -4.3865   -4.4423 Cl  0  0  0  0  0  0  0  0  0  0  0  0
    9.4540   -4.5005   -2.6560 C   0  0  0  0  0  0  0  0  0  0  0  0
   10.3092   -3.9189   -1.8053 F   0  0  0  0  0  0  0  0  0  0  0  0
    8.1780   -4.8015   -2.2044 C   0  0  0  0  0  0  0  0  0  0  0  0
    7.2987   -5.3870   -3.0992 C   0  0  0  0  0  0  0  0  0  0  0  0
    5.9248   -5.8571   -2.9355 C   0  0  0  0  0  0  0  0  0  0  0  0
    5.3371   -6.1809   -1.7381 C   0  0  0  0  0  0  0  0  0  0  0  0
    5.8800   -5.8571   -0.4807 C   0  0  0  0  0  0  0  0  0  0  0  0
    6.2595   -5.5850    0.5684 N   0  0  0  0  0  0  0  0  0  0  0  0
    4.1618   -6.9551   -1.6469 C   0  0  0  0  0  0  0  0  0  0  0  0
    3.2403   -7.6308   -1.5338 N   0  0  0  0  0  0  0  0  0  0  0  0
    2.9424   -5.9327   -4.1946 C   0  0  0  0  0  0  0  0  0  0  0  0
    1.6665   -6.3115   -4.6111 C   0  0  0  0  0  0  0  0  0  0  0  0
    1.3741   -7.3236   -5.6687 C   0  0  0  0  0  0  0  0  0  0  0  0
    1.2510   -6.6475   -7.0372 C   0  0  0  0  0  0  0  0  0  0  0  0
    0.6755   -5.6198   -3.9171 C   0  0  0  0  0  0  0  0  0  0  0  0
   -1.0713   -5.6996   -3.9679 S   0  0  0  0  0  0  0  0  0  0  0  0
   -1.1375   -4.5047   -2.7227 C   0  0  0  0  0  0  0  0  0  0  0  0
   -2.0926   -3.8760   -1.9130 C   0  0  0  0  0  0  0  0  0  0  0  0
   -3.4835   -4.0834   -1.7731 C   0  0  0  0  0  0  0  0  0  0  0  0
   -4.1733   -3.4569   -0.6802 C   0  0  0  0  0  0  0  0  0  0  0  0
   -5.4491   -3.8051   -0.6240 N   0  0  0  0  0  0  0  0  0  0  0  0
   -5.7595   -4.8235   -1.8424 S   0  0  0  0  0  0  0  0  0  0  0  0
   -4.2752   -4.8653   -2.4892 N   0  0  0  0  0  0  0  0  0  0  0  0
   -3.4716   -2.5470    0.1414 C   0  0  0  0  0  0  0  0  0  0  0  0
   -3.8826   -1.7437    1.2189 C   0  0  0  0  0  0  0  0  0  0  0  0
   -5.2921   -1.4516    2.1822 S   0  0  0  0  0  0  0  0  0  0  0  0
   -4.4073   -0.2343    3.0696 C   0  0  0  0  0  0  0  0  0  0  0  0
   -4.7568    0.6107    4.1486 C   0  0  0  0  0  0  0  0  0  0  0  0
   -6.1286    0.6087    4.7445 C   0  0  0  0  0  0  0  0  0  0  0  0
   -7.1105    1.3583    3.8421 C   0  0  0  0  0  0  0  0  0  0  0  0
   -3.7089    1.4092    4.5171 C   0  0  0  0  0  0  0  0  0  0  0  0
   -2.2785    1.1304    3.5484 S   0  0  0  0  0  0  0  0  0  0  0  0
   -3.0980   -0.0769    2.6286 C   0  0  0  0  0  0  0  0  0  0  0  0
   -2.7934   -0.9439    1.5699 C   0  0  0  0  0  0  0  0  0  0  0  0
   -1.7171   -1.2278    0.7716 N   0  0  0  0  0  0  0  0  0  0  0  0
   -2.1045   -2.2360   -0.0987 C   0  0  0  0  0  0  0  0  0  0  0  0
   -1.3787   -3.0077   -1.0379 C   0  0  0  0  0  0  0  0  0  0  0  0
   -0.0266   -3.1421   -1.2860 N   0  0  0  0  0  0  0  0  0  0  0  0
    0.1220   -4.0489   -2.3046 C   0  0  0  0  0  0  0  0  0  0  0  0
    1.1585   -4.6905   -2.9804 C   0  0  0  0  0  0  0  0  0  0  0  0
    2.8810   -4.6729   -2.9580 S   0  0  0  0  0  0  0  0  0  0  0  0
    1.1028   -2.8034   -0.4466 C   0  0  0  0  0  0  0  0  0  0  0  0
    2.0430   -1.8016   -1.1163 C   0  0  0  0  0  0  0  0  0  0  0  0
   -0.7113   -0.2072    0.5686 C   0  0  0  0  0  0  0  0  0  0  0  0
   -1.3131    1.0453   -0.0694 C   0  0  0  0  0  0  0  0  0  0  0  0
   -3.7067    2.4232    5.6282 C   0  0  0  0  0  0  0  0  0  0  0  0
   -4.6310    3.5531    5.2845 C   0  0  0  0  0  0  0  0  0  0  0  0
   -4.2164    4.5941    4.5557 C   0  0  0  0  0  0  0  0  0  0  0  0
   -2.8637    4.7081    4.0752 C   0  0  0  0  0  0  0  0  0  0  0  0
   -2.5424    5.4942    2.9876 C   0  0  0  0  0  0  0  0  0  0  0  0
   -1.1485    5.7120    2.6026 C   0  0  0  0  0  0  0  0  0  0  0  0
   -0.1976    5.1313    3.0927 O   0  0  0  0  0  0  0  0  0  0  0  0
   -0.9208    6.6656    1.6155 N   0  0  0  0  0  0  0  0  0  0  0  0
    0.4751    6.9150    1.2694 C   0  0  0  0  0  0  0  0  0  0  0  0
    1.0747    8.0196    2.1288 C   0  0  0  0  0  0  0  0  0  0  0  0
   -1.8943    7.4115    1.0176 C   0  0  0  0  0  0  0  0  0  0  0  0
   -1.5110    8.6264   -0.0324 S   0  0  0  0  0  0  0  0  0  0  0  0
   -3.1947    7.1042    1.2944 N   0  0  0  0  0  0  0  0  0  0  0  0
   -3.5950    6.1014    2.1690 C   0  0  0  0  0  0  0  0  0  0  0  0
   -4.7689    5.7861    2.2122 O   0  0  0  0  0  0  0  0  0  0  0  0
   -4.2564    7.7939    0.5684 C   0  0  0  0  0  0  0  0  0  0  0  0
   -4.5239    7.1396   -0.7803 C   0  0  0  0  0  0  0  0  0  0  0  0
   -1.8175    3.9526    4.8269 C   0  0  0  0  0  0  0  0  0  0  0  0
   -2.3425    3.0448    5.9402 C   0  0  0  0  0  0  0  0  0  0  0  0
    4.1128   -6.8215   -5.7181 H   0  0  0  0  0  0  0  0  0  0  0  0
    9.2899   -5.5942   -5.8633 H   0  0  0  0  0  0  0  0  0  0  0  0
    7.9094   -4.5644   -1.1875 H   0  0  0  0  0  0  0  0  0  0  0  0
    2.1582   -8.0801   -5.6957 H   0  0  0  0  0  0  0  0  0  0  0  0
    0.4294   -7.8139   -5.4258 H   0  0  0  0  0  0  0  0  0  0  0  0
    0.4526   -5.9093   -7.0229 H   0  0  0  0  0  0  0  0  0  0  0  0
    1.0237   -7.3893   -7.7979 H   0  0  0  0  0  0  0  0  0  0  0  0
    2.1794   -6.1483   -7.3054 H   0  0  0  0  0  0  0  0  0  0  0  0
   -6.1114    1.0617    5.7365 H   0  0  0  0  0  0  0  0  0  0  0  0
   -6.4601   -0.4275    4.8458 H   0  0  0  0  0  0  0  0  0  0  0  0
   -6.7756    2.3797    3.6740 H   0  0  0  0  0  0  0  0  0  0  0  0
   -8.0969    1.3821    4.2984 H   0  0  0  0  0  0  0  0  0  0  0  0
   -7.1881    0.8600    2.8790 H   0  0  0  0  0  0  0  0  0  0  0  0
    0.7333   -2.4357    0.5111 H   0  0  0  0  0  0  0  0  0  0  0  0
    1.6614   -3.7264   -0.2519 H   0  0  0  0  0  0  0  0  0  0  0  0
    2.8119   -1.4967   -0.4122 H   0  0  0  0  0  0  0  0  0  0  0  0
    1.5126   -0.9174   -1.4632 H   0  0  0  0  0  0  0  0  0  0  0  0
    2.5270   -2.2572   -1.9757 H   0  0  0  0  0  0  0  0  0  0  0  0
    0.0657   -0.5869   -0.0838 H   0  0  0  0  0  0  0  0  0  0  0  0
   -0.2784    0.0448    1.5419 H   0  0  0  0  0  0  0  0  0  0  0  0
   -0.5307    1.7816   -0.2323 H   0  0  0  0  0  0  0  0  0  0  0  0
   -1.7689    0.7987   -1.0264 H   0  0  0  0  0  0  0  0  0  0  0  0
   -2.0713    1.4854    0.5726 H   0  0  0  0  0  0  0  0  0  0  0  0
   -4.0740    1.9182    6.5309 H   0  0  0  0  0  0  0  0  0  0  0  0
   -5.6529    3.4997    5.6261 H   0  0  0  0  0  0  0  0  0  0  0  0
   -4.9175    5.3678    4.2855 H   0  0  0  0  0  0  0  0  0  0  0  0
    0.5181    7.1868    0.2137 H   0  0  0  0  0  0  0  0  0  0  0  0
    1.0115    5.9792    1.4351 H   0  0  0  0  0  0  0  0  0  0  0  0
    0.5392    8.9533    1.9756 H   0  0  0  0  0  0  0  0  0  0  0  0
    1.0248    7.7460    3.1800 H   0  0  0  0  0  0  0  0  0  0  0  0
    2.1151    8.1665    1.8543 H   0  0  0  0  0  0  0  0  0  0  0  0
   -5.1501    7.7427    1.1921 H   0  0  0  0  0  0  0  0  0  0  0  0
   -3.9544    8.8341    0.4371 H   0  0  0  0  0  0  0  0  0  0  0  0
   -5.3276    7.6673   -1.2851 H   0  0  0  0  0  0  0  0  0  0  0  0
   -3.6349    7.1795   -1.4055 H   0  0  0  0  0  0  0  0  0  0  0  0
   -4.8183    6.1021   -0.6412 H   0  0  0  0  0  0  0  0  0  0  0  0
   -1.2380    3.3745    4.1033 H   0  0  0  0  0  0  0  0  0  0  0  0
   -1.1001    4.6643    5.2451 H   0  0  0  0  0  0  0  0  0  0  0  0
   -1.6090    2.2604    6.1320 H   0  0  0  0  0  0  0  0  0  0  0  0
   -2.4576    3.6271    6.8575 H   0  0  0  0  0  0  0  0  0  0  0  0
  1  2  2  0  0  0  0
  2  3  1  0  0  0  0
  3  4  2  0  0  0  0
  3  5  1  0  0  0  0
  5  6  2  0  0  0  0
  6  7  1  0  0  0  0
  7  8  1  0  0  0  0
  7  9  2  0  0  0  0
  9 10  1  0  0  0  0
  9 11  1  0  0  0  0
 11 12  2  0  0  0  0
 12 13  1  0  0  0  0
 13 14  2  0  0  0  0
 14 15  1  0  0  0  0
 15 16  3  0  0  0  0
 14 17  1  0  0  0  0
 17 18  3  0  0  0  0
  1 19  1  0  0  0  0
 19 20  2  0  0  0  0
 20 21  1  0  0  0  0
 21 22  1  0  0  0  0
 20 23  1  0  0  0  0
 23 24  1  0  0  0  0
 24 25  1  0  0  0  0
 25 26  1  0  0  0  0
 26 27  1  0  0  0  0
 27 28  1  0  0  0  0
 28 29  2  0  0  0  0
 29 30  1  0  0  0  0
 30 31  1  0  0  0  0
 28 32  1  0  0  0  0
 32 33  1  0  0  0  0
 33 34  1  0  0  0  0
 34 35  1  0  0  0  0
 35 36  1  0  0  0  0
 36 37  1  0  0  0  0
 37 38  1  0  0  0  0
 36 39  2  0  0  0  0
 39 40  1  0  0  0  0
 40 41  1  0  0  0  0
 41 42  1  0  0  0  0
 42 43  1  0  0  0  0
 43 44  1  0  0  0  0
 44 45  1  0  0  0  0
 45 46  1  0  0  0  0
 46 47  1  0  0  0  0
 47 48  1  0  0  0  0
 48 49  1  0  0  0  0
 46 50  1  0  0  0  0
 50 51  1  0  0  0  0
 43 52  1  0  0  0  0
 52 53  1  0  0  0  0
 39 54  1  0  0  0  0
 54 55  1  0  0  0  0
 55 56  2  0  0  0  0
 56 57  1  0  0  0  0
 57 58  2  0  0  0  0
 58 59  1  0  0  0  0
 59 60  2  0  0  0  0
 59 61  1  0  0  0  0
 61 62  1  0  0  0  0
 62 63  1  0  0  0  0
 61 64  1  0  0  0  0
 64 65  2  0  0  0  0
 64 66  1  0  0  0  0
 66 67  1  0  0  0  0
 67 68  2  0  0  0  0
 66 69  1  0  0  0  0
 69 70  1  0  0  0  0
 57 71  1  0  0  0  0
 71 72  1  0  0  0  0
 13  2  1  0  0  0  0
 49 19  1  0  0  0  0
 72 54  1  0  0  0  0
 12  5  1  0  0  0  0
 48 23  2  0  0  0  0
 67 58  1  0  0  0  0
 47 25  2  0  0  0  0
 45 26  2  0  0  0  0
 31 27  2  0  0  0  0
 44 32  2  0  0  0  0
 42 33  2  0  0  0  0
 41 35  2  0  0  0  0
  1 73  1  0  0  0  0
  6 74  1  0  0  0  0
 11 75  1  0  0  0  0
 21 76  1  0  0  0  0
 21 77  1  0  0  0  0
 22 78  1  0  0  0  0
 22 79  1  0  0  0  0
 22 80  1  0  0  0  0
 37 81  1  0  0  0  0
 37 82  1  0  0  0  0
 38 83  1  0  0  0  0
 38 84  1  0  0  0  0
 38 85  1  0  0  0  0
 50 86  1  0  0  0  0
 50 87  1  0  0  0  0
 51 88  1  0  0  0  0
 51 89  1  0  0  0  0
 51 90  1  0  0  0  0
 52 91  1  0  0  0  0
 52 92  1  0  0  0  0
 53 93  1  0  0  0  0
 53 94  1  0  0  0  0
 53 95  1  0  0  0  0
 54 96  1  0  0  0  0
 55 97  1  0  0  0  0
 56 98  1  0  0  0  0
 62 99  1  0  0  0  0
 62100  1  0  0  0  0
 63101  1  0  0  0  0
 63102  1  0  0  0  0
 63103  1  0  0  0  0
 69104  1  0  0  0  0
 69105  1  0  0  0  0
 70106  1  0  0  0  0
 70107  1  0  0  0  0
 70108  1  0  0  0  0
 71109  1  0  0  0  0
 71110  1  0  0  0  0
 72111  1  0  0  0  0
 72112  1  0  0  0  0
M  END
