
  xtb     02012219203D
 energy: -190.698105182565 gnorm: 0.000985816803 xtb: 6.4.1 (unknown)
 97108  0     0  0            999 V2000
    4.8053    6.0662    1.6749 C   0  0  0  0  0  0  0  0  0  0  0  0
    4.7787    6.9420    0.6138 C   0  0  0  0  0  0  0  0  0  0  0  0
    3.8657    6.8895   -0.5272 C   0  0  0  0  0  0  0  0  0  0  0  0
    3.0105    6.0548   -0.7655 O   0  0  0  0  0  0  0  0  0  0  0  0
    4.1827    8.0713   -1.3570 C   0  0  0  0  0  0  0  0  0  0  0  0
    3.5865    8.4787   -2.5324 C   0  0  0  0  0  0  0  0  0  0  0  0
    4.0539    9.6383   -3.1399 C   0  0  0  0  0  0  0  0  0  0  0  0
    3.3547   10.2050   -4.6055 Cl  0  0  0  0  0  0  0  0  0  0  0  0
    5.1018   10.3458   -2.5474 C   0  0  0  0  0  0  0  0  0  0  0  0
    5.5460   11.4625   -3.1361 F   0  0  0  0  0  0  0  0  0  0  0  0
    5.7061    9.9400   -1.3671 C   0  0  0  0  0  0  0  0  0  0  0  0
    5.2381    8.7842   -0.7627 C   0  0  0  0  0  0  0  0  0  0  0  0
    5.6418    8.0957    0.4631 C   0  0  0  0  0  0  0  0  0  0  0  0
    6.6673    8.4893    1.2852 C   0  0  0  0  0  0  0  0  0  0  0  0
    7.0830    7.8301    2.4606 C   0  0  0  0  0  0  0  0  0  0  0  0
    7.4806    7.3539    3.4279 N   0  0  0  0  0  0  0  0  0  0  0  0
    7.4691    9.6277    1.0564 C   0  0  0  0  0  0  0  0  0  0  0  0
    8.1573   10.5374    0.9295 N   0  0  0  0  0  0  0  0  0  0  0  0
    4.0476    4.9256    1.9439 C   0  0  0  0  0  0  0  0  0  0  0  0
    4.1971    4.1714    3.1233 C   0  0  0  0  0  0  0  0  0  0  0  0
    5.1153    4.4944    4.2558 C   0  0  0  0  0  0  0  0  0  0  0  0
    4.4864    5.5336    5.1883 C   0  0  0  0  0  0  0  0  0  0  0  0
    3.3302    3.0893    3.1440 C   0  0  0  0  0  0  0  0  0  0  0  0
    3.0479    1.8325    4.3342 S   0  0  0  0  0  0  0  0  0  0  0  0
    1.8567    1.1540    3.2822 C   0  0  0  0  0  0  0  0  0  0  0  0
    0.9497    0.0894    3.2618 C   0  0  0  0  0  0  0  0  0  0  0  0
    0.6261   -0.8575    4.2584 C   0  0  0  0  0  0  0  0  0  0  0  0
   -0.4329   -1.7869    4.0075 C   0  0  0  0  0  0  0  0  0  0  0  0
   -0.6650   -2.5821    5.0400 N   0  0  0  0  0  0  0  0  0  0  0  0
    0.3672   -2.1960    6.2252 S   0  0  0  0  0  0  0  0  0  0  0  0
    1.1474   -0.9976    5.4671 N   0  0  0  0  0  0  0  0  0  0  0  0
   -1.0471   -1.7895    2.7357 C   0  0  0  0  0  0  0  0  0  0  0  0
   -2.0022   -2.6578    2.1932 C   0  0  0  0  0  0  0  0  0  0  0  0
   -2.9376   -4.0302    2.6666 S   0  0  0  0  0  0  0  0  0  0  0  0
   -3.5576   -4.1352    1.0349 C   0  0  0  0  0  0  0  0  0  0  0  0
   -4.4375   -5.0277    0.4185 C   0  0  0  0  0  0  0  0  0  0  0  0
   -5.0415   -6.2066    1.1023 C   0  0  0  0  0  0  0  0  0  0  0  0
   -4.2683   -7.4823    0.7583 C   0  0  0  0  0  0  0  0  0  0  0  0
   -4.5849   -4.7422   -0.9355 C   0  0  0  0  0  0  0  0  0  0  0  0
   -3.6775   -3.3057   -1.4122 S   0  0  0  0  0  0  0  0  0  0  0  0
   -3.0561   -3.1373    0.1865 C   0  0  0  0  0  0  0  0  0  0  0  0
   -2.1693   -2.2896    0.8524 C   0  0  0  0  0  0  0  0  0  0  0  0
   -1.3807   -1.2104    0.5587 N   0  0  0  0  0  0  0  0  0  0  0  0
   -0.6740   -0.8771    1.7040 C   0  0  0  0  0  0  0  0  0  0  0  0
    0.2711    0.1409    2.0057 C   0  0  0  0  0  0  0  0  0  0  0  0
    0.7427    1.2394    1.3090 N   0  0  0  0  0  0  0  0  0  0  0  0
    1.6922    1.8539    2.0799 C   0  0  0  0  0  0  0  0  0  0  0  0
    2.5256    2.9727    1.9951 C   0  0  0  0  0  0  0  0  0  0  0  0
    2.8183    4.2474    0.8729 S   0  0  0  0  0  0  0  0  0  0  0  0
    0.1978    1.9378    0.1662 C   0  0  0  0  0  0  0  0  0  0  0  0
   -1.2215    2.4305    0.4375 C   0  0  0  0  0  0  0  0  0  0  0  0
   -1.1366   -0.8797   -0.8284 C   0  0  0  0  0  0  0  0  0  0  0  0
    0.2444   -1.3466   -1.2804 C   0  0  0  0  0  0  0  0  0  0  0  0
   -5.4007   -5.4331   -1.8518 C   0  0  0  0  0  0  0  0  0  0  0  0
   -5.3454   -5.4323   -3.2158 C   0  0  0  0  0  0  0  0  0  0  0  0
   -6.5421   -5.8072   -4.0075 C   0  0  0  0  0  0  0  0  0  0  0  0
   -7.5462   -6.3456   -3.6031 O   0  0  0  0  0  0  0  0  0  0  0  0
   -6.2568   -5.3240   -5.3789 C   0  0  0  0  0  0  0  0  0  0  0  0
   -7.0811   -5.3174   -6.4850 C   0  0  0  0  0  0  0  0  0  0  0  0
   -6.5913   -4.7797   -7.6695 C   0  0  0  0  0  0  0  0  0  0  0  0
   -7.5889   -4.7525   -9.0673 Cl  0  0  0  0  0  0  0  0  0  0  0  0
   -5.2931   -4.2610   -7.7279 C   0  0  0  0  0  0  0  0  0  0  0  0
   -4.7089   -3.5865   -9.1950 Cl  0  0  0  0  0  0  0  0  0  0  0  0
   -4.4595   -4.2806   -6.6148 C   0  0  0  0  0  0  0  0  0  0  0  0
   -4.9460   -4.8155   -5.4350 C   0  0  0  0  0  0  0  0  0  0  0  0
   -4.3112   -5.0151   -4.1347 C   0  0  0  0  0  0  0  0  0  0  0  0
   -2.9593   -5.0727   -3.9112 C   0  0  0  0  0  0  0  0  0  0  0  0
   -1.9859   -4.6828   -4.8507 C   0  0  0  0  0  0  0  0  0  0  0  0
   -1.1485   -4.3458   -5.5604 N   0  0  0  0  0  0  0  0  0  0  0  0
   -2.3998   -5.6064   -2.7312 C   0  0  0  0  0  0  0  0  0  0  0  0
   -1.9154   -6.0902   -1.8096 N   0  0  0  0  0  0  0  0  0  0  0  0
    5.5270    6.2890    2.4486 H   0  0  0  0  0  0  0  0  0  0  0  0
    2.7788    7.9109   -2.9656 H   0  0  0  0  0  0  0  0  0  0  0  0
    6.5099   10.5341   -0.9643 H   0  0  0  0  0  0  0  0  0  0  0  0
    5.2976    3.5767    4.8183 H   0  0  0  0  0  0  0  0  0  0  0  0
    6.0733    4.8676    3.8909 H   0  0  0  0  0  0  0  0  0  0  0  0
    3.5504    5.1587    5.5957 H   0  0  0  0  0  0  0  0  0  0  0  0
    5.1642    5.7474    6.0095 H   0  0  0  0  0  0  0  0  0  0  0  0
    4.2871    6.4603    4.6552 H   0  0  0  0  0  0  0  0  0  0  0  0
   -6.0849   -6.3210    0.8004 H   0  0  0  0  0  0  0  0  0  0  0  0
   -5.0066   -6.0391    2.1804 H   0  0  0  0  0  0  0  0  0  0  0  0
   -3.2264   -7.3820    1.0507 H   0  0  0  0  0  0  0  0  0  0  0  0
   -4.3044   -7.6736   -0.3115 H   0  0  0  0  0  0  0  0  0  0  0  0
   -4.6993   -8.3309    1.2826 H   0  0  0  0  0  0  0  0  0  0  0  0
    0.8476    2.7981   -0.0111 H   0  0  0  0  0  0  0  0  0  0  0  0
    0.2473    1.3115   -0.7245 H   0  0  0  0  0  0  0  0  0  0  0  0
   -1.2156    3.1397    1.2617 H   0  0  0  0  0  0  0  0  0  0  0  0
   -1.6139    2.9305   -0.4436 H   0  0  0  0  0  0  0  0  0  0  0  0
   -1.8835    1.6090    0.7025 H   0  0  0  0  0  0  0  0  0  0  0  0
   -1.2810    0.1860   -1.0011 H   0  0  0  0  0  0  0  0  0  0  0  0
   -1.8993   -1.4035   -1.4099 H   0  0  0  0  0  0  0  0  0  0  0  0
    1.0302   -0.8951   -0.6789 H   0  0  0  0  0  0  0  0  0  0  0  0
    0.3204   -2.4274   -1.1843 H   0  0  0  0  0  0  0  0  0  0  0  0
    0.4015   -1.0831   -2.3227 H   0  0  0  0  0  0  0  0  0  0  0  0
   -6.2361   -5.9806   -1.4253 H   0  0  0  0  0  0  0  0  0  0  0  0
   -8.0794   -5.7216   -6.4307 H   0  0  0  0  0  0  0  0  0  0  0  0
   -3.4641   -3.8732   -6.6901 H   0  0  0  0  0  0  0  0  0  0  0  0
  1  2  2  0  0  0  0
  2  3  1  0  0  0  0
  3  4  2  0  0  0  0
  3  5  1  0  0  0  0
  5  6  2  0  0  0  0
  6  7  1  0  0  0  0
  7  8  1  0  0  0  0
  7  9  2  0  0  0  0
  9 10  1  0  0  0  0
  9 11  1  0  0  0  0
 11 12  2  0  0  0  0
 12 13  1  0  0  0  0
 13 14  2  0  0  0  0
 14 15  1  0  0  0  0
 15 16  3  0  0  0  0
 14 17  1  0  0  0  0
 17 18  3  0  0  0  0
  1 19  1  0  0  0  0
 19 20  2  0  0  0  0
 20 21  1  0  0  0  0
 21 22  1  0  0  0  0
 20 23  1  0  0  0  0
 23 24  1  0  0  0  0
 24 25  1  0  0  0  0
 25 26  1  0  0  0  0
 26 27  1  0  0  0  0
 27 28  1  0  0  0  0
 28 29  2  0  0  0  0
 29 30  1  0  0  0  0
 30 31  1  0  0  0  0
 28 32  1  0  0  0  0
 32 33  1  0  0  0  0
 33 34  1  0  0  0  0
 34 35  1  0  0  0  0
 35 36  1  0  0  0  0
 36 37  1  0  0  0  0
 37 38  1  0  0  0  0
 36 39  2  0  0  0  0
 39 40  1  0  0  0  0
 40 41  1  0  0  0  0
 41 42  1  0  0  0  0
 42 43  1  0  0  0  0
 43 44  1  0  0  0  0
 44 45  1  0  0  0  0
 45 46  1  0  0  0  0
 46 47  1  0  0  0  0
 47 48  1  0  0  0  0
 48 49  1  0  0  0  0
 46 50  1  0  0  0  0
 50 51  1  0  0  0  0
 43 52  1  0  0  0  0
 52 53  1  0  0  0  0
 39 54  1  0  0  0  0
 54 55  2  0  0  0  0
 55 56  1  0  0  0  0
 56 57  2  0  0  0  0
 56 58  1  0  0  0  0
 58 59  2  0  0  0  0
 59 60  1  0  0  0  0
 60 61  1  0  0  0  0
 60 62  2  0  0  0  0
 62 63  1  0  0  0  0
 62 64  1  0  0  0  0
 64 65  2  0  0  0  0
 65 66  1  0  0  0  0
 66 67  2  0  0  0  0
 67 68  1  0  0  0  0
 68 69  3  0  0  0  0
 67 70  1  0  0  0  0
 70 71  3  0  0  0  0
 13  2  1  0  0  0  0
 49 19  1  0  0  0  0
 66 55  1  0  0  0  0
 12  5  1  0  0  0  0
 48 23  2  0  0  0  0
 65 58  1  0  0  0  0
 47 25  2  0  0  0  0
 45 26  2  0  0  0  0
 31 27  2  0  0  0  0
 44 32  2  0  0  0  0
 42 33  2  0  0  0  0
 41 35  2  0  0  0  0
  1 72  1  0  0  0  0
  6 73  1  0  0  0  0
 11 74  1  0  0  0  0
 21 75  1  0  0  0  0
 21 76  1  0  0  0  0
 22 77  1  0  0  0  0
 22 78  1  0  0  0  0
 22 79  1  0  0  0  0
 37 80  1  0  0  0  0
 37 81  1  0  0  0  0
 38 82  1  0  0  0  0
 38 83  1  0  0  0  0
 38 84  1  0  0  0  0
 50 85  1  0  0  0  0
 50 86  1  0  0  0  0
 51 87  1  0  0  0  0
 51 88  1  0  0  0  0
 51 89  1  0  0  0  0
 52 90  1  0  0  0  0
 52 91  1  0  0  0  0
 53 92  1  0  0  0  0
 53 93  1  0  0  0  0
 53 94  1  0  0  0  0
 54 95  1  0  0  0  0
 59 96  1  0  0  0  0
 64 97  1  0  0  0  0
M  END
