
  xtb     02012219083D
 energy: -186.176435223710 gnorm: 0.000488820511 xtb: 6.4.1 (unknown)
 97108  0     0  0            999 V2000
   -8.1696   -1.4677   -2.8140 C   0  0  0  0  0  0  0  0  0  0  0  0
   -7.9682   -1.3272   -4.1582 C   0  0  0  0  0  0  0  0  0  0  0  0
   -9.0825   -0.8708   -5.0234 C   0  0  0  0  0  0  0  0  0  0  0  0
  -10.2548   -0.8073   -4.7338 O   0  0  0  0  0  0  0  0  0  0  0  0
   -8.4347   -0.4495   -6.2894 C   0  0  0  0  0  0  0  0  0  0  0  0
   -9.0044    0.1597   -7.3887 C   0  0  0  0  0  0  0  0  0  0  0  0
   -8.1816    0.4938   -8.4586 C   0  0  0  0  0  0  0  0  0  0  0  0
   -8.8285    1.2581   -9.8571 Cl  0  0  0  0  0  0  0  0  0  0  0  0
   -6.8164    0.2055   -8.3919 C   0  0  0  0  0  0  0  0  0  0  0  0
   -6.0289    0.5455   -9.4194 F   0  0  0  0  0  0  0  0  0  0  0  0
   -6.2382   -0.4189   -7.2975 C   0  0  0  0  0  0  0  0  0  0  0  0
   -7.0613   -0.7491   -6.2341 C   0  0  0  0  0  0  0  0  0  0  0  0
   -6.7822   -1.4359   -4.9754 C   0  0  0  0  0  0  0  0  0  0  0  0
   -5.7146   -2.2662   -4.7473 C   0  0  0  0  0  0  0  0  0  0  0  0
   -5.6611   -3.1679   -3.6638 C   0  0  0  0  0  0  0  0  0  0  0  0
   -5.6108   -3.9509   -2.8256 N   0  0  0  0  0  0  0  0  0  0  0  0
   -4.6015   -2.3711   -5.6032 C   0  0  0  0  0  0  0  0  0  0  0  0
   -3.6557   -2.4668   -6.2468 N   0  0  0  0  0  0  0  0  0  0  0  0
   -7.2284   -1.4421   -1.7680 C   0  0  0  0  0  0  0  0  0  0  0  0
   -7.4444   -1.8244   -0.4462 C   0  0  0  0  0  0  0  0  0  0  0  0
   -8.7133   -2.4012    0.0878 C   0  0  0  0  0  0  0  0  0  0  0  0
   -9.6210   -1.2916    0.6265 C   0  0  0  0  0  0  0  0  0  0  0  0
   -6.3140   -1.6005    0.3411 C   0  0  0  0  0  0  0  0  0  0  0  0
   -5.9705   -1.9249    2.0248 S   0  0  0  0  0  0  0  0  0  0  0  0
   -4.3718   -1.3152    1.7897 C   0  0  0  0  0  0  0  0  0  0  0  0
   -3.1690   -1.2041    2.4999 C   0  0  0  0  0  0  0  0  0  0  0  0
   -2.7938   -1.6714    3.7804 C   0  0  0  0  0  0  0  0  0  0  0  0
   -1.4086   -1.6356    4.1540 C   0  0  0  0  0  0  0  0  0  0  0  0
   -1.1922   -2.1822    5.3397 N   0  0  0  0  0  0  0  0  0  0  0  0
   -2.6067   -2.6896    5.9390 S   0  0  0  0  0  0  0  0  0  0  0  0
   -3.5522   -2.2361    4.7063 N   0  0  0  0  0  0  0  0  0  0  0  0
   -0.4820   -1.0090    3.2900 C   0  0  0  0  0  0  0  0  0  0  0  0
    0.8925   -0.7611    3.4126 C   0  0  0  0  0  0  0  0  0  0  0  0
    2.1990   -1.1193    4.4874 S   0  0  0  0  0  0  0  0  0  0  0  0
    3.2711   -0.2078    3.4387 C   0  0  0  0  0  0  0  0  0  0  0  0
    4.6285    0.0703    3.5012 C   0  0  0  0  0  0  0  0  0  0  0  0
    5.5170   -0.4689    4.5735 C   0  0  0  0  0  0  0  0  0  0  0  0
    6.1982   -1.7606    4.1116 C   0  0  0  0  0  0  0  0  0  0  0  0
    5.0423    0.8503    2.4039 C   0  0  0  0  0  0  0  0  0  0  0  0
    3.7071    1.2264    1.3109 S   0  0  0  0  0  0  0  0  0  0  0  0
    2.6246    0.3455    2.3185 C   0  0  0  0  0  0  0  0  0  0  0  0
    1.2683    0.0158    2.3086 C   0  0  0  0  0  0  0  0  0  0  0  0
    0.1847    0.2413    1.4992 N   0  0  0  0  0  0  0  0  0  0  0  0
   -0.8965   -0.4077    2.0655 C   0  0  0  0  0  0  0  0  0  0  0  0
   -2.2175   -0.6338    1.6064 C   0  0  0  0  0  0  0  0  0  0  0  0
   -2.8207   -0.4468    0.3777 N   0  0  0  0  0  0  0  0  0  0  0  0
   -4.1225   -0.8599    0.4863 C   0  0  0  0  0  0  0  0  0  0  0  0
   -5.2306   -1.0292   -0.3446 C   0  0  0  0  0  0  0  0  0  0  0  0
   -5.6180   -0.7582   -2.0007 S   0  0  0  0  0  0  0  0  0  0  0  0
   -2.2228   -0.2743   -0.9292 C   0  0  0  0  0  0  0  0  0  0  0  0
   -2.6274    1.0481   -1.5794 C   0  0  0  0  0  0  0  0  0  0  0  0
    0.1967    1.4030    0.6352 C   0  0  0  0  0  0  0  0  0  0  0  0
    0.2568    2.6932    1.4526 C   0  0  0  0  0  0  0  0  0  0  0  0
    6.3641    1.2637    2.2259 C   0  0  0  0  0  0  0  0  0  0  0  0
    6.9553    1.9946    1.2216 C   0  0  0  0  0  0  0  0  0  0  0  0
    6.2900    2.5257    0.0308 C   0  0  0  0  0  0  0  0  0  0  0  0
    5.1081    2.4532   -0.2612 O   0  0  0  0  0  0  0  0  0  0  0  0
    7.3413    3.1853   -0.7655 C   0  0  0  0  0  0  0  0  0  0  0  0
    7.2323    3.8269   -1.9841 C   0  0  0  0  0  0  0  0  0  0  0  0
    8.3744    4.3735   -2.5477 C   0  0  0  0  0  0  0  0  0  0  0  0
    9.5867    4.2639   -1.8801 C   0  0  0  0  0  0  0  0  0  0  0  0
   11.1400    5.0183   -2.6734 Br  0  0  0  0  0  0  0  0  0  0  0  0
    9.7123    3.6223   -0.6528 C   0  0  0  0  0  0  0  0  0  0  0  0
    8.5702    3.0774   -0.0916 C   0  0  0  0  0  0  0  0  0  0  0  0
    8.3578    2.3499    1.1627 C   0  0  0  0  0  0  0  0  0  0  0  0
    9.3302    2.0879    2.0935 C   0  0  0  0  0  0  0  0  0  0  0  0
   10.6791    2.4816    1.9621 C   0  0  0  0  0  0  0  0  0  0  0  0
   11.7891    2.7703    1.9188 N   0  0  0  0  0  0  0  0  0  0  0  0
    9.1422    1.4062    3.3139 C   0  0  0  0  0  0  0  0  0  0  0  0
    9.0724    0.8614    4.3234 N   0  0  0  0  0  0  0  0  0  0  0  0
   -9.2114   -1.5072   -2.5128 H   0  0  0  0  0  0  0  0  0  0  0  0
  -10.0617    0.3694   -7.4158 H   0  0  0  0  0  0  0  0  0  0  0  0
   -5.1782   -0.6160   -7.3028 H   0  0  0  0  0  0  0  0  0  0  0  0
   -9.2314   -2.9622   -0.6897 H   0  0  0  0  0  0  0  0  0  0  0  0
   -8.4653   -3.0862    0.9008 H   0  0  0  0  0  0  0  0  0  0  0  0
   -9.8925   -0.5970   -0.1651 H   0  0  0  0  0  0  0  0  0  0  0  0
  -10.5300   -1.7235    1.0358 H   0  0  0  0  0  0  0  0  0  0  0  0
   -9.1148   -0.7385    1.4141 H   0  0  0  0  0  0  0  0  0  0  0  0
    4.9022   -0.6850    5.4494 H   0  0  0  0  0  0  0  0  0  0  0  0
    6.2770    0.2592    4.8605 H   0  0  0  0  0  0  0  0  0  0  0  0
    6.8295   -2.1476    4.9061 H   0  0  0  0  0  0  0  0  0  0  0  0
    5.4532   -2.5116    3.8591 H   0  0  0  0  0  0  0  0  0  0  0  0
    6.8179   -1.5786    3.2367 H   0  0  0  0  0  0  0  0  0  0  0  0
   -1.1404   -0.3692   -0.8388 H   0  0  0  0  0  0  0  0  0  0  0  0
   -2.5727   -1.0957   -1.5653 H   0  0  0  0  0  0  0  0  0  0  0  0
   -2.4311    1.8968   -0.9277 H   0  0  0  0  0  0  0  0  0  0  0  0
   -3.6894    1.0441   -1.8092 H   0  0  0  0  0  0  0  0  0  0  0  0
   -2.0773    1.1817   -2.5064 H   0  0  0  0  0  0  0  0  0  0  0  0
    1.0764    1.3347   -0.0115 H   0  0  0  0  0  0  0  0  0  0  0  0
   -0.6995    1.4185    0.0271 H   0  0  0  0  0  0  0  0  0  0  0  0
    1.1697    2.7388    2.0397 H   0  0  0  0  0  0  0  0  0  0  0  0
   -0.5959    2.7549    2.1261 H   0  0  0  0  0  0  0  0  0  0  0  0
    0.2373    3.5479    0.7825 H   0  0  0  0  0  0  0  0  0  0  0  0
    7.0229    0.9369    3.0186 H   0  0  0  0  0  0  0  0  0  0  0  0
    6.2760    3.8954   -2.4789 H   0  0  0  0  0  0  0  0  0  0  0  0
    8.3300    4.8816   -3.4985 H   0  0  0  0  0  0  0  0  0  0  0  0
   10.6758    3.5619   -0.1739 H   0  0  0  0  0  0  0  0  0  0  0  0
  1  2  2  0  0  0  0
  2  3  1  0  0  0  0
  3  4  2  0  0  0  0
  3  5  1  0  0  0  0
  5  6  2  0  0  0  0
  6  7  1  0  0  0  0
  7  8  1  0  0  0  0
  7  9  2  0  0  0  0
  9 10  1  0  0  0  0
  9 11  1  0  0  0  0
 11 12  2  0  0  0  0
 12 13  1  0  0  0  0
 13 14  2  0  0  0  0
 14 15  1  0  0  0  0
 15 16  3  0  0  0  0
 14 17  1  0  0  0  0
 17 18  3  0  0  0  0
  1 19  1  0  0  0  0
 19 20  2  0  0  0  0
 20 21  1  0  0  0  0
 21 22  1  0  0  0  0
 20 23  1  0  0  0  0
 23 24  1  0  0  0  0
 24 25  1  0  0  0  0
 25 26  1  0  0  0  0
 26 27  1  0  0  0  0
 27 28  1  0  0  0  0
 28 29  2  0  0  0  0
 29 30  1  0  0  0  0
 30 31  1  0  0  0  0
 28 32  1  0  0  0  0
 32 33  1  0  0  0  0
 33 34  1  0  0  0  0
 34 35  1  0  0  0  0
 35 36  1  0  0  0  0
 36 37  1  0  0  0  0
 37 38  1  0  0  0  0
 36 39  2  0  0  0  0
 39 40  1  0  0  0  0
 40 41  1  0  0  0  0
 41 42  1  0  0  0  0
 42 43  1  0  0  0  0
 43 44  1  0  0  0  0
 44 45  1  0  0  0  0
 45 46  1  0  0  0  0
 46 47  1  0  0  0  0
 47 48  1  0  0  0  0
 48 49  1  0  0  0  0
 46 50  1  0  0  0  0
 50 51  1  0  0  0  0
 43 52  1  0  0  0  0
 52 53  1  0  0  0  0
 39 54  1  0  0  0  0
 54 55  2  0  0  0  0
 55 56  1  0  0  0  0
 56 57  2  0  0  0  0
 56 58  1  0  0  0  0
 58 59  2  0  0  0  0
 59 60  1  0  0  0  0
 60 61  2  0  0  0  0
 61 62  1  0  0  0  0
 61 63  1  0  0  0  0
 63 64  2  0  0  0  0
 64 65  1  0  0  0  0
 65 66  2  0  0  0  0
 66 67  1  0  0  0  0
 67 68  3  0  0  0  0
 66 69  1  0  0  0  0
 69 70  3  0  0  0  0
 13  2  1  0  0  0  0
 49 19  1  0  0  0  0
 65 55  1  0  0  0  0
 12  5  1  0  0  0  0
 48 23  2  0  0  0  0
 64 58  1  0  0  0  0
 47 25  2  0  0  0  0
 45 26  2  0  0  0  0
 31 27  2  0  0  0  0
 44 32  2  0  0  0  0
 42 33  2  0  0  0  0
 41 35  2  0  0  0  0
  1 71  1  0  0  0  0
  6 72  1  0  0  0  0
 11 73  1  0  0  0  0
 21 74  1  0  0  0  0
 21 75  1  0  0  0  0
 22 76  1  0  0  0  0
 22 77  1  0  0  0  0
 22 78  1  0  0  0  0
 37 79  1  0  0  0  0
 37 80  1  0  0  0  0
 38 81  1  0  0  0  0
 38 82  1  0  0  0  0
 38 83  1  0  0  0  0
 50 84  1  0  0  0  0
 50 85  1  0  0  0  0
 51 86  1  0  0  0  0
 51 87  1  0  0  0  0
 51 88  1  0  0  0  0
 52 89  1  0  0  0  0
 52 90  1  0  0  0  0
 53 91  1  0  0  0  0
 53 92  1  0  0  0  0
 53 93  1  0  0  0  0
 54 94  1  0  0  0  0
 59 95  1  0  0  0  0
 60 96  1  0  0  0  0
 63 97  1  0  0  0  0
M  END
