
  xtb     02012223113D
 energy: -200.653664266180 gnorm: 0.000619450471 xtb: 6.4.1 (unknown)
103115  0     0  0            999 V2000
   -1.6770    8.0082    0.2437 C   0  0  0  0  0  0  0  0  0  0  0  0
   -2.4642    8.0603   -0.8846 C   0  0  0  0  0  0  0  0  0  0  0  0
   -2.6711    6.9784   -1.8464 C   0  0  0  0  0  0  0  0  0  0  0  0
   -2.2264    5.8444   -1.8090 O   0  0  0  0  0  0  0  0  0  0  0  0
   -3.5450    7.5326   -2.9020 C   0  0  0  0  0  0  0  0  0  0  0  0
   -4.0119    6.9109   -4.0414 C   0  0  0  0  0  0  0  0  0  0  0  0
   -4.8248    7.6392   -4.9019 C   0  0  0  0  0  0  0  0  0  0  0  0
   -5.4381    6.9280   -6.3431 Cl  0  0  0  0  0  0  0  0  0  0  0  0
   -5.1411    8.9623   -4.5871 C   0  0  0  0  0  0  0  0  0  0  0  0
   -5.9238    9.6585   -5.4201 F   0  0  0  0  0  0  0  0  0  0  0  0
   -4.6756    9.5917   -3.4425 C   0  0  0  0  0  0  0  0  0  0  0  0
   -3.8632    8.8646   -2.5872 C   0  0  0  0  0  0  0  0  0  0  0  0
   -3.2114    9.2200   -1.3266 C   0  0  0  0  0  0  0  0  0  0  0  0
   -3.3199   10.4368   -0.7022 C   0  0  0  0  0  0  0  0  0  0  0  0
   -4.0779   11.5162   -1.2038 C   0  0  0  0  0  0  0  0  0  0  0  0
   -4.6750   12.4331   -1.5504 N   0  0  0  0  0  0  0  0  0  0  0  0
   -2.7097   10.7980    0.5168 C   0  0  0  0  0  0  0  0  0  0  0  0
   -2.2501   11.1708    1.5019 N   0  0  0  0  0  0  0  0  0  0  0  0
   -0.9108    6.9731    0.7811 C   0  0  0  0  0  0  0  0  0  0  0  0
   -0.1312    7.1230    1.9453 C   0  0  0  0  0  0  0  0  0  0  0  0
    0.0346    8.3845    2.7270 C   0  0  0  0  0  0  0  0  0  0  0  0
    1.0998    9.2827    2.0914 C   0  0  0  0  0  0  0  0  0  0  0  0
    0.5331    5.9477    2.2621 C   0  0  0  0  0  0  0  0  0  0  0  0
    1.6427    5.5232    3.5543 S   0  0  0  0  0  0  0  0  0  0  0  0
    1.7435    3.9242    2.9024 C   0  0  0  0  0  0  0  0  0  0  0  0
    2.4048    2.7134    3.1509 C   0  0  0  0  0  0  0  0  0  0  0  0
    3.4093    2.3640    4.0822 C   0  0  0  0  0  0  0  0  0  0  0  0
    3.9849    1.0506    4.0241 C   0  0  0  0  0  0  0  0  0  0  0  0
    4.9540    0.8847    4.9095 N   0  0  0  0  0  0  0  0  0  0  0  0
    5.1257    2.2582    5.7484 S   0  0  0  0  0  0  0  0  0  0  0  0
    3.9691    3.1193    5.0134 N   0  0  0  0  0  0  0  0  0  0  0  0
    3.4325    0.1003    3.1347 C   0  0  0  0  0  0  0  0  0  0  0  0
    3.6419   -1.2778    3.0040 C   0  0  0  0  0  0  0  0  0  0  0  0
    4.6587   -2.5106    3.6631 S   0  0  0  0  0  0  0  0  0  0  0  0
    3.7586   -3.6999    2.7396 C   0  0  0  0  0  0  0  0  0  0  0  0
    3.8600   -5.0798    2.6504 C   0  0  0  0  0  0  0  0  0  0  0  0
    4.9172   -5.8603    3.3597 C   0  0  0  0  0  0  0  0  0  0  0  0
    6.1200   -6.1006    2.4427 C   0  0  0  0  0  0  0  0  0  0  0  0
    2.8885   -5.6100    1.7790 C   0  0  0  0  0  0  0  0  0  0  0  0
    1.8620   -4.3521    1.0857 S   0  0  0  0  0  0  0  0  0  0  0  0
    2.7287   -3.1451    1.9569 C   0  0  0  0  0  0  0  0  0  0  0  0
    2.6786   -1.7571    2.1037 C   0  0  0  0  0  0  0  0  0  0  0  0
    1.9066   -0.7188    1.6546 N   0  0  0  0  0  0  0  0  0  0  0  0
    2.3622    0.4367    2.2541 C   0  0  0  0  0  0  0  0  0  0  0  0
    1.9506    1.7898    2.1638 C   0  0  0  0  0  0  0  0  0  0  0  0
    1.0840    2.4438    1.3071 N   0  0  0  0  0  0  0  0  0  0  0  0
    0.9571    3.7325    1.7586 C   0  0  0  0  0  0  0  0  0  0  0  0
    0.2699    4.8854    1.3773 C   0  0  0  0  0  0  0  0  0  0  0  0
   -0.8011    5.3428    0.1105 S   0  0  0  0  0  0  0  0  0  0  0  0
    0.8121    2.1834   -0.0912 C   0  0  0  0  0  0  0  0  0  0  0  0
    1.8476    2.8667   -0.9837 C   0  0  0  0  0  0  0  0  0  0  0  0
    0.6576   -0.9812    0.9735 C   0  0  0  0  0  0  0  0  0  0  0  0
    0.8666   -1.3728   -0.4897 C   0  0  0  0  0  0  0  0  0  0  0  0
    2.7638   -6.9762    1.5229 C   0  0  0  0  0  0  0  0  0  0  0  0
    1.8860   -7.6687    0.7190 C   0  0  0  0  0  0  0  0  0  0  0  0
    0.8354   -7.0829   -0.1122 C   0  0  0  0  0  0  0  0  0  0  0  0
    0.5576   -5.9018   -0.2450 O   0  0  0  0  0  0  0  0  0  0  0  0
    0.1583   -8.2100   -0.7779 C   0  0  0  0  0  0  0  0  0  0  0  0
   -0.8917   -8.1812   -1.6483 C   0  0  0  0  0  0  0  0  0  0  0  0
   -1.3878   -9.3997   -2.1631 C   0  0  0  0  0  0  0  0  0  0  0  0
   -2.4693   -9.4296   -3.0642 C   0  0  0  0  0  0  0  0  0  0  0  0
   -2.9292  -10.6227   -3.5472 C   0  0  0  0  0  0  0  0  0  0  0  0
   -3.9586  -10.6489   -4.4055 F   0  0  0  0  0  0  0  0  0  0  0  0
   -2.3294  -11.8342   -3.1506 C   0  0  0  0  0  0  0  0  0  0  0  0
   -2.8012  -12.9888   -3.6400 F   0  0  0  0  0  0  0  0  0  0  0  0
   -1.2782  -11.8368   -2.2769 C   0  0  0  0  0  0  0  0  0  0  0  0
   -0.7799  -10.6239   -1.7611 C   0  0  0  0  0  0  0  0  0  0  0  0
    0.3077  -10.6187   -0.8566 C   0  0  0  0  0  0  0  0  0  0  0  0
    0.7728   -9.4263   -0.3696 C   0  0  0  0  0  0  0  0  0  0  0  0
    1.8543   -9.1082    0.5625 C   0  0  0  0  0  0  0  0  0  0  0  0
    2.6680  -10.0352    1.1653 C   0  0  0  0  0  0  0  0  0  0  0  0
    3.7103   -9.7550    2.0720 C   0  0  0  0  0  0  0  0  0  0  0  0
    4.5744   -9.6090    2.8160 N   0  0  0  0  0  0  0  0  0  0  0  0
    2.5695  -11.4264    0.9552 C   0  0  0  0  0  0  0  0  0  0  0  0
    2.5468  -12.5676    0.8305 N   0  0  0  0  0  0  0  0  0  0  0  0
   -1.6256    8.9209    0.8212 H   0  0  0  0  0  0  0  0  0  0  0  0
   -3.7507    5.8871   -4.2565 H   0  0  0  0  0  0  0  0  0  0  0  0
   -4.9584   10.6157   -3.2616 H   0  0  0  0  0  0  0  0  0  0  0  0
   -0.9067    8.9318    2.7948 H   0  0  0  0  0  0  0  0  0  0  0  0
    0.3502    8.1200    3.7381 H   0  0  0  0  0  0  0  0  0  0  0  0
    0.8157    9.5615    1.0794 H   0  0  0  0  0  0  0  0  0  0  0  0
    2.0565    8.7669    2.0546 H   0  0  0  0  0  0  0  0  0  0  0  0
    1.2138   10.1889    2.6790 H   0  0  0  0  0  0  0  0  0  0  0  0
    5.2415   -5.2834    4.2281 H   0  0  0  0  0  0  0  0  0  0  0  0
    4.5325   -6.8190    3.7101 H   0  0  0  0  0  0  0  0  0  0  0  0
    6.5408   -5.1531    2.1145 H   0  0  0  0  0  0  0  0  0  0  0  0
    6.8843   -6.6562    2.9782 H   0  0  0  0  0  0  0  0  0  0  0  0
    5.8279   -6.6742    1.5663 H   0  0  0  0  0  0  0  0  0  0  0  0
    0.8284    1.1185   -0.2856 H   0  0  0  0  0  0  0  0  0  0  0  0
   -0.1839    2.5766   -0.3143 H   0  0  0  0  0  0  0  0  0  0  0  0
    1.6269    2.6537   -2.0257 H   0  0  0  0  0  0  0  0  0  0  0  0
    1.8289    3.9439   -0.8422 H   0  0  0  0  0  0  0  0  0  0  0  0
    2.8466    2.5014   -0.7535 H   0  0  0  0  0  0  0  0  0  0  0  0
    0.1698   -1.8169    1.4873 H   0  0  0  0  0  0  0  0  0  0  0  0
    0.0112   -0.1086    1.0777 H   0  0  0  0  0  0  0  0  0  0  0  0
    1.5379   -0.6842   -0.9985 H   0  0  0  0  0  0  0  0  0  0  0  0
    1.2956   -2.3686   -0.5532 H   0  0  0  0  0  0  0  0  0  0  0  0
   -0.0888   -1.3820   -1.0063 H   0  0  0  0  0  0  0  0  0  0  0  0
    3.4847   -7.5780    2.0588 H   0  0  0  0  0  0  0  0  0  0  0  0
   -1.3386   -7.2426   -1.9390 H   0  0  0  0  0  0  0  0  0  0  0  0
   -2.9394   -8.5104   -3.3771 H   0  0  0  0  0  0  0  0  0  0  0  0
   -0.8311  -12.7738   -1.9836 H   0  0  0  0  0  0  0  0  0  0  0  0
    0.7431  -11.5631   -0.5734 H   0  0  0  0  0  0  0  0  0  0  0  0
  1  2  2  0  0  0  0
  2  3  1  0  0  0  0
  3  4  2  0  0  0  0
  3  5  1  0  0  0  0
  5  6  2  0  0  0  0
  6  7  1  0  0  0  0
  7  8  1  0  0  0  0
  7  9  2  0  0  0  0
  9 10  1  0  0  0  0
  9 11  1  0  0  0  0
 11 12  2  0  0  0  0
 12 13  1  0  0  0  0
 13 14  2  0  0  0  0
 14 15  1  0  0  0  0
 15 16  3  0  0  0  0
 14 17  1  0  0  0  0
 17 18  3  0  0  0  0
  1 19  1  0  0  0  0
 19 20  2  0  0  0  0
 20 21  1  0  0  0  0
 21 22  1  0  0  0  0
 20 23  1  0  0  0  0
 23 24  1  0  0  0  0
 24 25  1  0  0  0  0
 25 26  1  0  0  0  0
 26 27  1  0  0  0  0
 27 28  1  0  0  0  0
 28 29  2  0  0  0  0
 29 30  1  0  0  0  0
 30 31  1  0  0  0  0
 28 32  1  0  0  0  0
 32 33  1  0  0  0  0
 33 34  1  0  0  0  0
 34 35  1  0  0  0  0
 35 36  1  0  0  0  0
 36 37  1  0  0  0  0
 37 38  1  0  0  0  0
 36 39  2  0  0  0  0
 39 40  1  0  0  0  0
 40 41  1  0  0  0  0
 41 42  1  0  0  0  0
 42 43  1  0  0  0  0
 43 44  1  0  0  0  0
 44 45  1  0  0  0  0
 45 46  1  0  0  0  0
 46 47  1  0  0  0  0
 47 48  1  0  0  0  0
 48 49  1  0  0  0  0
 46 50  1  0  0  0  0
 50 51  1  0  0  0  0
 43 52  1  0  0  0  0
 52 53  1  0  0  0  0
 39 54  1  0  0  0  0
 54 55  2  0  0  0  0
 55 56  1  0  0  0  0
 56 57  2  0  0  0  0
 56 58  1  0  0  0  0
 58 59  2  0  0  0  0
 59 60  1  0  0  0  0
 60 61  2  0  0  0  0
 61 62  1  0  0  0  0
 62 63  1  0  0  0  0
 62 64  2  0  0  0  0
 64 65  1  0  0  0  0
 64 66  1  0  0  0  0
 66 67  2  0  0  0  0
 67 68  1  0  0  0  0
 68 69  2  0  0  0  0
 69 70  1  0  0  0  0
 70 71  2  0  0  0  0
 71 72  1  0  0  0  0
 72 73  3  0  0  0  0
 71 74  1  0  0  0  0
 74 75  3  0  0  0  0
 13  2  1  0  0  0  0
 49 19  1  0  0  0  0
 70 55  1  0  0  0  0
 12  5  1  0  0  0  0
 48 23  2  0  0  0  0
 69 58  1  0  0  0  0
 47 25  2  0  0  0  0
 67 60  1  0  0  0  0
 45 26  2  0  0  0  0
 31 27  2  0  0  0  0
 44 32  2  0  0  0  0
 42 33  2  0  0  0  0
 41 35  2  0  0  0  0
  1 76  1  0  0  0  0
  6 77  1  0  0  0  0
 11 78  1  0  0  0  0
 21 79  1  0  0  0  0
 21 80  1  0  0  0  0
 22 81  1  0  0  0  0
 22 82  1  0  0  0  0
 22 83  1  0  0  0  0
 37 84  1  0  0  0  0
 37 85  1  0  0  0  0
 38 86  1  0  0  0  0
 38 87  1  0  0  0  0
 38 88  1  0  0  0  0
 50 89  1  0  0  0  0
 50 90  1  0  0  0  0
 51 91  1  0  0  0  0
 51 92  1  0  0  0  0
 51 93  1  0  0  0  0
 52 94  1  0  0  0  0
 52 95  1  0  0  0  0
 53 96  1  0  0  0  0
 53 97  1  0  0  0  0
 53 98  1  0  0  0  0
 54 99  1  0  0  0  0
 59100  1  0  0  0  0
 61101  1  0  0  0  0
 66102  1  0  0  0  0
 68103  1  0  0  0  0
M  END
