103

C         -0.31030       -7.97350        3.06900
C          0.31520       -9.19420        3.11660
C          1.61530       -9.48460        2.47590
O          2.38700       -8.70790        1.95540
C          1.73340      -10.96150        2.48860
C          2.75520      -11.73690        1.98100
C          2.65210      -13.11850        2.09400
Cl         3.89340      -14.14350        1.48840
C          1.52570      -13.67330        2.70560
F          1.43000      -15.00480        2.80400
C          0.49400      -12.89990        3.21540
C          0.60230      -11.52270        3.10490
C         -0.28470      -10.44330        3.53000
C         -1.43240      -10.58730        4.26590
C         -2.20620       -9.51180        4.75030
N         -2.86420       -8.68240        5.19480
C         -1.96490      -11.83190        4.66030
N         -2.44540      -12.81710        5.00060
C          0.31030       -6.73840        2.80710
C          1.57050       -6.25890        3.15600
C          2.50690       -6.93530        4.09890
C          2.91250       -6.02450        5.25730
C          1.79050       -4.98750        2.61350
S          3.19120       -3.93900        2.59770
C          2.32770       -2.83630        1.58970
C          2.54910       -1.63460        0.90640
C          3.73020       -0.87660        0.75260
C          3.71570        0.24400       -0.13800
N          4.89940        0.82880       -0.23580
S          5.94090        0.03810        0.71780
N          4.92230       -1.08250        1.29020
C          2.49440        0.61570       -0.74050
C          2.18030        1.71560       -1.54880
S          2.97520        3.05450       -2.29420
C          1.42800        3.61460       -2.88560
C          1.04970        4.76090       -3.60100
C          2.02170        5.70250       -4.22880
C          3.02740        4.97090       -5.11750
C         -0.32780        4.81750       -3.75510
S         -1.13820        3.39430       -3.09870
C          0.36410        2.78090       -2.51670
C          0.79840        1.68660       -1.75930
N          0.25460        0.59080       -1.14420
C          1.28030       -0.09590       -0.51200
C          1.33370       -1.30260        0.23810
N          0.41300       -2.30510        0.49780
C          1.01830       -3.23590        1.30040
C          0.71150       -4.47110        1.87760
S         -0.63110       -5.55000        1.89920
C         -0.81890       -2.64340       -0.17910
C         -0.58590       -2.91620       -1.66290
C         -1.17650        0.52290       -0.94890
C         -1.55590        0.77600        0.50810
C         -1.14160        5.80440       -4.35940
C         -0.93420        7.15200       -4.28420
C         -0.11470        7.81320       -3.23490
O          0.60020        7.28710       -2.40780
C         -0.44400        9.24530       -3.33390
C          0.01690       10.29220       -2.56260
C         -0.42820       11.58360       -2.82590
C          0.07120       12.72660       -2.00180
C         -1.34550       11.80330       -3.86550
C         -1.83480       13.18640       -4.15430
C         -1.81020       10.74060       -4.63560
C         -1.36190        9.45650       -4.37630
C         -1.66230        8.17670       -5.00570
C         -2.41930        7.98600       -6.13220
C         -2.60030        6.74020       -6.76780
N         -2.76710        5.76110       -7.34460
C         -3.08450        9.02170       -6.81920
N         -3.65180        9.82410       -7.41310
H         -1.39030       -7.94630        3.15850
H          3.61120      -11.27940        1.51120
H         -0.35120      -13.39020        3.67010
H          2.03240       -7.83350        4.49670
H          3.39550       -7.24560        3.54270
H          3.47500       -5.16460        4.90560
H          3.53540       -6.57910        5.95420
H          2.03090       -5.67170        5.78860
H          2.54770        6.23980       -3.43570
H          1.48070        6.43610       -4.82810
H          3.64480        4.29120       -4.53730
H          2.50890        4.40190       -5.88640
H          3.67730        5.69390       -5.60350
H         -1.19610       -3.55100        0.29850
H         -1.56720       -1.86630       -0.02410
H         -0.13960       -2.05630       -2.15690
H         -1.52860       -3.15240       -2.14880
H          0.08640       -3.76250       -1.78310
H         -1.61180        1.30610       -1.57430
H         -1.56930       -0.42810       -1.30910
H         -1.24100        1.77370        0.80490
H         -1.07780        0.05890        1.17140
H         -2.63340        0.70400        0.62810
H         -2.03220        5.43940       -4.85810
H          0.72100       10.09940       -1.76690
H          0.76630       12.37860       -1.24260
H          0.57850       13.45900       -2.62900
H         -0.75740       13.23420       -1.50900
H         -2.33970       13.60310       -3.28330
H         -2.52880       13.18370       -4.99020
H         -1.00070       13.84420       -4.39630
H         -2.52100       10.93250       -5.42370
