
  xtb     02012220203D
 energy: -188.930376701958 gnorm: 0.000299027710 xtb: 6.4.1 (unknown)
103114  0     0  0            999 V2000
   -0.3103   -7.9735    3.0690 C   0  0  0  0  0  0  0  0  0  0  0  0
    0.3152   -9.1942    3.1166 C   0  0  0  0  0  0  0  0  0  0  0  0
    1.6153   -9.4846    2.4759 C   0  0  0  0  0  0  0  0  0  0  0  0
    2.3870   -8.7079    1.9554 O   0  0  0  0  0  0  0  0  0  0  0  0
    1.7334  -10.9615    2.4886 C   0  0  0  0  0  0  0  0  0  0  0  0
    2.7552  -11.7369    1.9810 C   0  0  0  0  0  0  0  0  0  0  0  0
    2.6521  -13.1185    2.0940 C   0  0  0  0  0  0  0  0  0  0  0  0
    3.8934  -14.1435    1.4884 Cl  0  0  0  0  0  0  0  0  0  0  0  0
    1.5257  -13.6733    2.7056 C   0  0  0  0  0  0  0  0  0  0  0  0
    1.4300  -15.0048    2.8040 F   0  0  0  0  0  0  0  0  0  0  0  0
    0.4940  -12.8999    3.2154 C   0  0  0  0  0  0  0  0  0  0  0  0
    0.6023  -11.5227    3.1049 C   0  0  0  0  0  0  0  0  0  0  0  0
   -0.2847  -10.4433    3.5300 C   0  0  0  0  0  0  0  0  0  0  0  0
   -1.4324  -10.5873    4.2659 C   0  0  0  0  0  0  0  0  0  0  0  0
   -2.2062   -9.5118    4.7503 C   0  0  0  0  0  0  0  0  0  0  0  0
   -2.8642   -8.6824    5.1948 N   0  0  0  0  0  0  0  0  0  0  0  0
   -1.9649  -11.8319    4.6603 C   0  0  0  0  0  0  0  0  0  0  0  0
   -2.4454  -12.8171    5.0006 N   0  0  0  0  0  0  0  0  0  0  0  0
    0.3103   -6.7384    2.8071 C   0  0  0  0  0  0  0  0  0  0  0  0
    1.5705   -6.2589    3.1560 C   0  0  0  0  0  0  0  0  0  0  0  0
    2.5069   -6.9353    4.0989 C   0  0  0  0  0  0  0  0  0  0  0  0
    2.9125   -6.0245    5.2573 C   0  0  0  0  0  0  0  0  0  0  0  0
    1.7905   -4.9875    2.6135 C   0  0  0  0  0  0  0  0  0  0  0  0
    3.1912   -3.9390    2.5977 S   0  0  0  0  0  0  0  0  0  0  0  0
    2.3277   -2.8363    1.5897 C   0  0  0  0  0  0  0  0  0  0  0  0
    2.5491   -1.6346    0.9064 C   0  0  0  0  0  0  0  0  0  0  0  0
    3.7302   -0.8766    0.7526 C   0  0  0  0  0  0  0  0  0  0  0  0
    3.7157    0.2440   -0.1380 C   0  0  0  0  0  0  0  0  0  0  0  0
    4.8994    0.8288   -0.2358 N   0  0  0  0  0  0  0  0  0  0  0  0
    5.9409    0.0381    0.7178 S   0  0  0  0  0  0  0  0  0  0  0  0
    4.9223   -1.0825    1.2902 N   0  0  0  0  0  0  0  0  0  0  0  0
    2.4944    0.6157   -0.7405 C   0  0  0  0  0  0  0  0  0  0  0  0
    2.1803    1.7156   -1.5488 C   0  0  0  0  0  0  0  0  0  0  0  0
    2.9752    3.0545   -2.2942 S   0  0  0  0  0  0  0  0  0  0  0  0
    1.4280    3.6146   -2.8856 C   0  0  0  0  0  0  0  0  0  0  0  0
    1.0497    4.7609   -3.6010 C   0  0  0  0  0  0  0  0  0  0  0  0
    2.0217    5.7025   -4.2288 C   0  0  0  0  0  0  0  0  0  0  0  0
    3.0274    4.9709   -5.1175 C   0  0  0  0  0  0  0  0  0  0  0  0
   -0.3278    4.8175   -3.7551 C   0  0  0  0  0  0  0  0  0  0  0  0
   -1.1382    3.3943   -3.0987 S   0  0  0  0  0  0  0  0  0  0  0  0
    0.3641    2.7809   -2.5167 C   0  0  0  0  0  0  0  0  0  0  0  0
    0.7984    1.6866   -1.7593 C   0  0  0  0  0  0  0  0  0  0  0  0
    0.2546    0.5908   -1.1442 N   0  0  0  0  0  0  0  0  0  0  0  0
    1.2803   -0.0959   -0.5120 C   0  0  0  0  0  0  0  0  0  0  0  0
    1.3337   -1.3026    0.2381 C   0  0  0  0  0  0  0  0  0  0  0  0
    0.4130   -2.3051    0.4978 N   0  0  0  0  0  0  0  0  0  0  0  0
    1.0183   -3.2359    1.3004 C   0  0  0  0  0  0  0  0  0  0  0  0
    0.7115   -4.4711    1.8776 C   0  0  0  0  0  0  0  0  0  0  0  0
   -0.6311   -5.5500    1.8992 S   0  0  0  0  0  0  0  0  0  0  0  0
   -0.8189   -2.6434   -0.1791 C   0  0  0  0  0  0  0  0  0  0  0  0
   -0.5859   -2.9162   -1.6629 C   0  0  0  0  0  0  0  0  0  0  0  0
   -1.1765    0.5229   -0.9489 C   0  0  0  0  0  0  0  0  0  0  0  0
   -1.5559    0.7760    0.5081 C   0  0  0  0  0  0  0  0  0  0  0  0
   -1.1416    5.8044   -4.3594 C   0  0  0  0  0  0  0  0  0  0  0  0
   -0.9342    7.1520   -4.2842 C   0  0  0  0  0  0  0  0  0  0  0  0
   -0.1147    7.8132   -3.2349 C   0  0  0  0  0  0  0  0  0  0  0  0
    0.6002    7.2871   -2.4078 O   0  0  0  0  0  0  0  0  0  0  0  0
   -0.4440    9.2453   -3.3339 C   0  0  0  0  0  0  0  0  0  0  0  0
    0.0169   10.2922   -2.5626 C   0  0  0  0  0  0  0  0  0  0  0  0
   -0.4282   11.5836   -2.8259 C   0  0  0  0  0  0  0  0  0  0  0  0
    0.0712   12.7266   -2.0018 C   0  0  0  0  0  0  0  0  0  0  0  0
   -1.3455   11.8033   -3.8655 C   0  0  0  0  0  0  0  0  0  0  0  0
   -1.8348   13.1864   -4.1543 C   0  0  0  0  0  0  0  0  0  0  0  0
   -1.8102   10.7406   -4.6356 C   0  0  0  0  0  0  0  0  0  0  0  0
   -1.3619    9.4565   -4.3763 C   0  0  0  0  0  0  0  0  0  0  0  0
   -1.6623    8.1767   -5.0057 C   0  0  0  0  0  0  0  0  0  0  0  0
   -2.4193    7.9860   -6.1322 C   0  0  0  0  0  0  0  0  0  0  0  0
   -2.6003    6.7402   -6.7678 C   0  0  0  0  0  0  0  0  0  0  0  0
   -2.7671    5.7611   -7.3446 N   0  0  0  0  0  0  0  0  0  0  0  0
   -3.0845    9.0217   -6.8192 C   0  0  0  0  0  0  0  0  0  0  0  0
   -3.6518    9.8241   -7.4131 N   0  0  0  0  0  0  0  0  0  0  0  0
   -1.3903   -7.9463    3.1585 H   0  0  0  0  0  0  0  0  0  0  0  0
    3.6112  -11.2794    1.5112 H   0  0  0  0  0  0  0  0  0  0  0  0
   -0.3512  -13.3902    3.6701 H   0  0  0  0  0  0  0  0  0  0  0  0
    2.0324   -7.8335    4.4967 H   0  0  0  0  0  0  0  0  0  0  0  0
    3.3955   -7.2456    3.5427 H   0  0  0  0  0  0  0  0  0  0  0  0
    3.4750   -5.1646    4.9056 H   0  0  0  0  0  0  0  0  0  0  0  0
    3.5354   -6.5791    5.9542 H   0  0  0  0  0  0  0  0  0  0  0  0
    2.0309   -5.6717    5.7886 H   0  0  0  0  0  0  0  0  0  0  0  0
    2.5477    6.2398   -3.4357 H   0  0  0  0  0  0  0  0  0  0  0  0
    1.4807    6.4361   -4.8281 H   0  0  0  0  0  0  0  0  0  0  0  0
    3.6448    4.2912   -4.5373 H   0  0  0  0  0  0  0  0  0  0  0  0
    2.5089    4.4019   -5.8864 H   0  0  0  0  0  0  0  0  0  0  0  0
    3.6773    5.6939   -5.6035 H   0  0  0  0  0  0  0  0  0  0  0  0
   -1.1961   -3.5510    0.2985 H   0  0  0  0  0  0  0  0  0  0  0  0
   -1.5672   -1.8663   -0.0241 H   0  0  0  0  0  0  0  0  0  0  0  0
   -0.1396   -2.0563   -2.1569 H   0  0  0  0  0  0  0  0  0  0  0  0
   -1.5286   -3.1524   -2.1488 H   0  0  0  0  0  0  0  0  0  0  0  0
    0.0864   -3.7625   -1.7831 H   0  0  0  0  0  0  0  0  0  0  0  0
   -1.6118    1.3061   -1.5743 H   0  0  0  0  0  0  0  0  0  0  0  0
   -1.5693   -0.4281   -1.3091 H   0  0  0  0  0  0  0  0  0  0  0  0
   -1.2410    1.7737    0.8049 H   0  0  0  0  0  0  0  0  0  0  0  0
   -1.0778    0.0589    1.1714 H   0  0  0  0  0  0  0  0  0  0  0  0
   -2.6334    0.7040    0.6281 H   0  0  0  0  0  0  0  0  0  0  0  0
   -2.0322    5.4394   -4.8581 H   0  0  0  0  0  0  0  0  0  0  0  0
    0.7210   10.0994   -1.7669 H   0  0  0  0  0  0  0  0  0  0  0  0
    0.7663   12.3786   -1.2426 H   0  0  0  0  0  0  0  0  0  0  0  0
    0.5785   13.4590   -2.6290 H   0  0  0  0  0  0  0  0  0  0  0  0
   -0.7574   13.2342   -1.5090 H   0  0  0  0  0  0  0  0  0  0  0  0
   -2.3397   13.6031   -3.2833 H   0  0  0  0  0  0  0  0  0  0  0  0
   -2.5288   13.1837   -4.9902 H   0  0  0  0  0  0  0  0  0  0  0  0
   -1.0007   13.8442   -4.3963 H   0  0  0  0  0  0  0  0  0  0  0  0
   -2.5210   10.9325   -5.4237 H   0  0  0  0  0  0  0  0  0  0  0  0
  1  2  2  0  0  0  0
  2  3  1  0  0  0  0
  3  4  2  0  0  0  0
  3  5  1  0  0  0  0
  5  6  2  0  0  0  0
  6  7  1  0  0  0  0
  7  8  1  0  0  0  0
  7  9  2  0  0  0  0
  9 10  1  0  0  0  0
  9 11  1  0  0  0  0
 11 12  2  0  0  0  0
 12 13  1  0  0  0  0
 13 14  2  0  0  0  0
 14 15  1  0  0  0  0
 15 16  3  0  0  0  0
 14 17  1  0  0  0  0
 17 18  3  0  0  0  0
  1 19  1  0  0  0  0
 19 20  2  0  0  0  0
 20 21  1  0  0  0  0
 21 22  1  0  0  0  0
 20 23  1  0  0  0  0
 23 24  1  0  0  0  0
 24 25  1  0  0  0  0
 25 26  1  0  0  0  0
 26 27  1  0  0  0  0
 27 28  1  0  0  0  0
 28 29  2  0  0  0  0
 29 30  1  0  0  0  0
 30 31  1  0  0  0  0
 28 32  1  0  0  0  0
 32 33  1  0  0  0  0
 33 34  1  0  0  0  0
 34 35  1  0  0  0  0
 35 36  1  0  0  0  0
 36 37  1  0  0  0  0
 37 38  1  0  0  0  0
 36 39  2  0  0  0  0
 39 40  1  0  0  0  0
 40 41  1  0  0  0  0
 41 42  1  0  0  0  0
 42 43  1  0  0  0  0
 43 44  1  0  0  0  0
 44 45  1  0  0  0  0
 45 46  1  0  0  0  0
 46 47  1  0  0  0  0
 47 48  1  0  0  0  0
 48 49  1  0  0  0  0
 46 50  1  0  0  0  0
 50 51  1  0  0  0  0
 43 52  1  0  0  0  0
 52 53  1  0  0  0  0
 39 54  1  0  0  0  0
 54 55  2  0  0  0  0
 55 56  1  0  0  0  0
 56 57  2  0  0  0  0
 56 58  1  0  0  0  0
 58 59  2  0  0  0  0
 59 60  1  0  0  0  0
 60 61  1  0  0  0  0
 60 62  2  0  0  0  0
 62 63  1  0  0  0  0
 62 64  1  0  0  0  0
 64 65  2  0  0  0  0
 65 66  1  0  0  0  0
 66 67  2  0  0  0  0
 67 68  1  0  0  0  0
 68 69  3  0  0  0  0
 67 70  1  0  0  0  0
 70 71  3  0  0  0  0
 13  2  1  0  0  0  0
 49 19  1  0  0  0  0
 66 55  1  0  0  0  0
 12  5  1  0  0  0  0
 48 23  2  0  0  0  0
 65 58  1  0  0  0  0
 47 25  2  0  0  0  0
 45 26  2  0  0  0  0
 31 27  2  0  0  0  0
 44 32  2  0  0  0  0
 42 33  2  0  0  0  0
 41 35  2  0  0  0  0
  1 72  1  0  0  0  0
  6 73  1  0  0  0  0
 11 74  1  0  0  0  0
 21 75  1  0  0  0  0
 21 76  1  0  0  0  0
 22 77  1  0  0  0  0
 22 78  1  0  0  0  0
 22 79  1  0  0  0  0
 37 80  1  0  0  0  0
 37 81  1  0  0  0  0
 38 82  1  0  0  0  0
 38 83  1  0  0  0  0
 38 84  1  0  0  0  0
 50 85  1  0  0  0  0
 50 86  1  0  0  0  0
 51 87  1  0  0  0  0
 51 88  1  0  0  0  0
 51 89  1  0  0  0  0
 52 90  1  0  0  0  0
 52 91  1  0  0  0  0
 53 92  1  0  0  0  0
 53 93  1  0  0  0  0
 53 94  1  0  0  0  0
 54 95  1  0  0  0  0
 59 96  1  0  0  0  0
 61 97  1  0  0  0  0
 61 98  1  0  0  0  0
 61 99  1  0  0  0  0
 63100  1  0  0  0  0
 63101  1  0  0  0  0
 63102  1  0  0  0  0
 64103  1  0  0  0  0
M  END
