
  xtb     02012217353D
 energy: -176.699573051691 gnorm: 0.000192990092 xtb: 6.4.1 (unknown)
 98107  0     0  0            999 V2000
   -1.1977    5.3495    5.5350 C   0  0  0  0  0  0  0  0  0  0  0  0
   -1.4043    6.6454    5.1680 C   0  0  0  0  0  0  0  0  0  0  0  0
   -2.0578    7.5959    6.1025 C   0  0  0  0  0  0  0  0  0  0  0  0
   -2.2758    7.4295    7.2794 O   0  0  0  0  0  0  0  0  0  0  0  0
   -2.4310    8.7599    5.2637 C   0  0  0  0  0  0  0  0  0  0  0  0
   -3.1594    9.8779    5.6169 C   0  0  0  0  0  0  0  0  0  0  0  0
   -3.4052   10.8401    4.6443 C   0  0  0  0  0  0  0  0  0  0  0  0
   -4.3059   12.2563    5.0191 Cl  0  0  0  0  0  0  0  0  0  0  0  0
   -2.9137   10.6503    3.3501 C   0  0  0  0  0  0  0  0  0  0  0  0
   -3.1675   11.5749    2.4169 F   0  0  0  0  0  0  0  0  0  0  0  0
   -2.1715    9.5367    2.9896 C   0  0  0  0  0  0  0  0  0  0  0  0
   -1.9278    8.5808    3.9621 C   0  0  0  0  0  0  0  0  0  0  0  0
   -1.1571    7.3409    3.9221 C   0  0  0  0  0  0  0  0  0  0  0  0
   -0.1686    7.0567    3.0166 C   0  0  0  0  0  0  0  0  0  0  0  0
    0.7676    6.0147    3.1860 C   0  0  0  0  0  0  0  0  0  0  0  0
    1.5824    5.2164    3.3147 N   0  0  0  0  0  0  0  0  0  0  0  0
    0.0855    7.8273    1.8640 C   0  0  0  0  0  0  0  0  0  0  0  0
    0.3180    8.4084    0.9021 N   0  0  0  0  0  0  0  0  0  0  0  0
   -0.9699    4.2327    4.6989 C   0  0  0  0  0  0  0  0  0  0  0  0
   -1.5890    4.1587    3.0563 S   0  0  0  0  0  0  0  0  0  0  0  0
   -0.8620    2.6247    2.8474 C   0  0  0  0  0  0  0  0  0  0  0  0
   -0.7055    1.7075    1.7653 C   0  0  0  0  0  0  0  0  0  0  0  0
    0.1539    0.6665    2.2346 C   0  0  0  0  0  0  0  0  0  0  0  0
    0.5325    0.8899    3.6914 C   0  0  0  0  0  0  0  0  0  0  0  0
    2.0391    1.1696    3.8846 C   0  0  0  0  0  0  0  0  0  0  0  0
    2.9805    0.0130    3.5784 C   0  0  0  0  0  0  0  0  0  0  0  0
   -0.0008   -0.2926    4.5238 C   0  0  0  0  0  0  0  0  0  0  0  0
    0.1978   -0.1648    6.0282 C   0  0  0  0  0  0  0  0  0  0  0  0
   -0.1915    2.1816    3.9788 C   0  0  0  0  0  0  0  0  0  0  0  0
   -0.2775    3.0782    5.0362 C   0  0  0  0  0  0  0  0  0  0  0  0
    0.4900   -0.3490    1.3945 C   0  0  0  0  0  0  0  0  0  0  0  0
    0.0241   -0.3504    0.0555 C   0  0  0  0  0  0  0  0  0  0  0  0
    0.4285   -1.3487   -0.8468 C   0  0  0  0  0  0  0  0  0  0  0  0
   -0.0315   -1.3127   -2.1394 C   0  0  0  0  0  0  0  0  0  0  0  0
    0.2315   -2.1553   -3.2608 C   0  0  0  0  0  0  0  0  0  0  0  0
   -0.5104   -1.7624   -4.3658 C   0  0  0  0  0  0  0  0  0  0  0  0
   -1.3285   -0.5366   -4.0439 C   0  0  0  0  0  0  0  0  0  0  0  0
   -0.9453   -0.3098   -2.5887 C   0  0  0  0  0  0  0  0  0  0  0  0
   -1.3617    0.6494   -1.7189 C   0  0  0  0  0  0  0  0  0  0  0  0
   -0.8609    0.6753   -0.3927 C   0  0  0  0  0  0  0  0  0  0  0  0
   -1.2186    1.7063    0.4923 C   0  0  0  0  0  0  0  0  0  0  0  0
   -2.8461   -0.7956   -4.1164 C   0  0  0  0  0  0  0  0  0  0  0  0
   -3.3745   -1.1546   -5.4988 C   0  0  0  0  0  0  0  0  0  0  0  0
   -0.8345    0.5894   -4.9784 C   0  0  0  0  0  0  0  0  0  0  0  0
   -1.4814    1.9539   -4.7845 C   0  0  0  0  0  0  0  0  0  0  0  0
   -0.2378   -2.5284   -5.4920 C   0  0  0  0  0  0  0  0  0  0  0  0
    0.7507   -3.4755   -5.2640 C   0  0  0  0  0  0  0  0  0  0  0  0
    1.2910   -3.4563   -3.5923 S   0  0  0  0  0  0  0  0  0  0  0  0
    1.2786   -4.3824   -6.2110 C   0  0  0  0  0  0  0  0  0  0  0  0
    2.5110   -4.9638   -6.2222 C   0  0  0  0  0  0  0  0  0  0  0  0
    2.7500   -6.2024   -7.0046 C   0  0  0  0  0  0  0  0  0  0  0  0
    2.0215   -6.6947   -7.8337 O   0  0  0  0  0  0  0  0  0  0  0  0
    4.0435   -6.7261   -6.5042 C   0  0  0  0  0  0  0  0  0  0  0  0
    4.6725   -7.9132   -6.8206 C   0  0  0  0  0  0  0  0  0  0  0  0
    5.8831   -8.2042   -6.2024 C   0  0  0  0  0  0  0  0  0  0  0  0
    6.7179   -9.6663   -6.5524 Cl  0  0  0  0  0  0  0  0  0  0  0  0
    6.4233   -7.2965   -5.2875 C   0  0  0  0  0  0  0  0  0  0  0  0
    7.5817   -7.5916   -4.6867 F   0  0  0  0  0  0  0  0  0  0  0  0
    5.8046   -6.0968   -4.9728 C   0  0  0  0  0  0  0  0  0  0  0  0
    4.5990   -5.8103   -5.5919 C   0  0  0  0  0  0  0  0  0  0  0  0
    3.7326   -4.6369   -5.5167 C   0  0  0  0  0  0  0  0  0  0  0  0
    4.1317   -3.3869   -5.1220 C   0  0  0  0  0  0  0  0  0  0  0  0
    3.3784   -2.2176   -5.3591 C   0  0  0  0  0  0  0  0  0  0  0  0
    2.8239   -1.2380   -5.5840 N   0  0  0  0  0  0  0  0  0  0  0  0
    5.3773   -3.1136   -4.5214 C   0  0  0  0  0  0  0  0  0  0  0  0
    6.3684   -2.8431   -4.0101 N   0  0  0  0  0  0  0  0  0  0  0  0
   -1.2713    5.1461    6.5992 H   0  0  0  0  0  0  0  0  0  0  0  0
   -3.5259   10.0004    6.6236 H   0  0  0  0  0  0  0  0  0  0  0  0
   -1.8197    9.4448    1.9747 H   0  0  0  0  0  0  0  0  0  0  0  0
    2.1865    1.4867    4.9181 H   0  0  0  0  0  0  0  0  0  0  0  0
    2.3000    2.0183    3.2478 H   0  0  0  0  0  0  0  0  0  0  0  0
    2.9598   -0.2396    2.5224 H   0  0  0  0  0  0  0  0  0  0  0  0
    3.9971    0.3067    3.8304 H   0  0  0  0  0  0  0  0  0  0  0  0
    2.7317   -0.8705    4.1607 H   0  0  0  0  0  0  0  0  0  0  0  0
    0.4820   -1.2047    4.1706 H   0  0  0  0  0  0  0  0  0  0  0  0
   -1.0697   -0.3892    4.3137 H   0  0  0  0  0  0  0  0  0  0  0  0
   -0.3296    0.7018    6.4169 H   0  0  0  0  0  0  0  0  0  0  0  0
    1.2505   -0.0804    6.2831 H   0  0  0  0  0  0  0  0  0  0  0  0
   -0.1992   -1.0494    6.5216 H   0  0  0  0  0  0  0  0  0  0  0  0
    0.1863    2.9612    5.9988 H   0  0  0  0  0  0  0  0  0  0  0  0
    1.1153   -1.1686    1.7134 H   0  0  0  0  0  0  0  0  0  0  0  0
    1.1027   -2.1282   -0.5230 H   0  0  0  0  0  0  0  0  0  0  0  0
   -2.0697    1.4109   -2.0072 H   0  0  0  0  0  0  0  0  0  0  0  0
   -1.8833    2.4925    0.1650 H   0  0  0  0  0  0  0  0  0  0  0  0
   -3.3625    0.0926   -3.7503 H   0  0  0  0  0  0  0  0  0  0  0  0
   -3.0755   -1.6118   -3.4257 H   0  0  0  0  0  0  0  0  0  0  0  0
   -3.1798   -0.3618   -6.2156 H   0  0  0  0  0  0  0  0  0  0  0  0
   -4.4505   -1.3057   -5.4465 H   0  0  0  0  0  0  0  0  0  0  0  0
   -2.9232   -2.0747   -5.8597 H   0  0  0  0  0  0  0  0  0  0  0  0
    0.2447    0.6844   -4.8365 H   0  0  0  0  0  0  0  0  0  0  0  0
   -0.9954    0.2602   -6.0061 H   0  0  0  0  0  0  0  0  0  0  0  0
   -1.2263    2.3741   -3.8162 H   0  0  0  0  0  0  0  0  0  0  0  0
   -2.5632    1.9005   -4.8755 H   0  0  0  0  0  0  0  0  0  0  0  0
   -1.1126    2.6333   -5.5497 H   0  0  0  0  0  0  0  0  0  0  0  0
   -0.6696   -2.3892   -6.4664 H   0  0  0  0  0  0  0  0  0  0  0  0
    0.6032   -4.7005   -6.9997 H   0  0  0  0  0  0  0  0  0  0  0  0
    4.2346   -8.5956   -7.5313 H   0  0  0  0  0  0  0  0  0  0  0  0
    6.2692   -5.4368   -4.2582 H   0  0  0  0  0  0  0  0  0  0  0  0
  1  2  2  0  0  0  0
  2  3  1  0  0  0  0
  3  4  2  0  0  0  0
  3  5  1  0  0  0  0
  5  6  2  0  0  0  0
  6  7  1  0  0  0  0
  7  8  1  0  0  0  0
  7  9  2  0  0  0  0
  9 10  1  0  0  0  0
  9 11  1  0  0  0  0
 11 12  2  0  0  0  0
 12 13  1  0  0  0  0
 13 14  2  0  0  0  0
 14 15  1  0  0  0  0
 15 16  3  0  0  0  0
 14 17  1  0  0  0  0
 17 18  3  0  0  0  0
  1 19  1  0  0  0  0
 19 20  1  0  0  0  0
 20 21  1  0  0  0  0
 21 22  1  0  0  0  0
 22 23  2  0  0  0  0
 23 24  1  0  0  0  0
 24 25  1  0  0  0  0
 25 26  1  0  0  0  0
 24 27  1  0  0  0  0
 27 28  1  0  0  0  0
 24 29  1  0  0  0  0
 29 30  1  0  0  0  0
 23 31  1  0  0  0  0
 31 32  2  0  0  0  0
 32 33  1  0  0  0  0
 33 34  2  0  0  0  0
 34 35  1  0  0  0  0
 35 36  2  0  0  0  0
 36 37  1  0  0  0  0
 37 38  1  0  0  0  0
 38 39  2  0  0  0  0
 39 40  1  0  0  0  0
 40 41  2  0  0  0  0
 37 42  1  0  0  0  0
 42 43  1  0  0  0  0
 37 44  1  0  0  0  0
 44 45  1  0  0  0  0
 36 46  1  0  0  0  0
 46 47  2  0  0  0  0
 47 48  1  0  0  0  0
 47 49  1  0  0  0  0
 49 50  2  0  0  0  0
 50 51  1  0  0  0  0
 51 52  2  0  0  0  0
 51 53  1  0  0  0  0
 53 54  2  0  0  0  0
 54 55  1  0  0  0  0
 55 56  1  0  0  0  0
 55 57  2  0  0  0  0
 57 58  1  0  0  0  0
 57 59  1  0  0  0  0
 59 60  2  0  0  0  0
 60 61  1  0  0  0  0
 61 62  2  0  0  0  0
 62 63  1  0  0  0  0
 63 64  3  0  0  0  0
 62 65  1  0  0  0  0
 65 66  3  0  0  0  0
 13  2  1  0  0  0  0
 30 19  2  0  0  0  0
 40 32  1  0  0  0  0
 61 50  1  0  0  0  0
 12  5  1  0  0  0  0
 29 21  2  0  0  0  0
 38 34  1  0  0  0  0
 60 53  1  0  0  0  0
 41 22  1  0  0  0  0
 48 35  1  0  0  0  0
  1 67  1  0  0  0  0
  6 68  1  0  0  0  0
 11 69  1  0  0  0  0
 25 70  1  0  0  0  0
 25 71  1  0  0  0  0
 26 72  1  0  0  0  0
 26 73  1  0  0  0  0
 26 74  1  0  0  0  0
 27 75  1  0  0  0  0
 27 76  1  0  0  0  0
 28 77  1  0  0  0  0
 28 78  1  0  0  0  0
 28 79  1  0  0  0  0
 30 80  1  0  0  0  0
 31 81  1  0  0  0  0
 33 82  1  0  0  0  0
 39 83  1  0  0  0  0
 41 84  1  0  0  0  0
 42 85  1  0  0  0  0
 42 86  1  0  0  0  0
 43 87  1  0  0  0  0
 43 88  1  0  0  0  0
 43 89  1  0  0  0  0
 44 90  1  0  0  0  0
 44 91  1  0  0  0  0
 45 92  1  0  0  0  0
 45 93  1  0  0  0  0
 45 94  1  0  0  0  0
 46 95  1  0  0  0  0
 49 96  1  0  0  0  0
 54 97  1  0  0  0  0
 59 98  1  0  0  0  0
M  END
