97

C         -2.32840       -1.53310       -7.40630
C         -1.16040       -1.52580       -8.13450
C          0.19240       -1.39090       -7.59590
O          0.52950       -1.29160       -6.42900
C          1.09990       -1.40770       -8.76180
C          2.47500       -1.30080       -8.77760
C          3.12370       -1.34130      -10.00620
Cl         4.83620       -1.21240      -10.09970
C          2.36960       -1.48830      -11.17220
F          2.99980       -1.52670      -12.35210
C          0.98700       -1.59700      -11.16190
C          0.34220       -1.55590       -9.93600
C         -1.07340       -1.64090       -9.57630
C         -2.10240       -1.80700      -10.46830
C         -3.47140       -1.89970      -10.14250
N         -4.60350       -1.98830       -9.96490
C         -1.92620       -1.91420      -11.86420
N         -1.85140       -2.00620      -13.00570
C         -2.55390       -1.41640       -6.03370
C         -3.84270       -1.41580       -5.46620
C         -5.12870       -1.49570       -6.22110
C         -5.54760       -0.11130       -6.72460
C         -3.78840       -1.26520       -4.08840
S         -5.03840       -1.18110       -2.85980
C         -3.80320       -1.00090       -1.66330
C         -3.68400       -0.86250       -0.27610
C         -4.66850       -0.89010        0.73620
C         -4.25330       -0.81620        2.10390
N         -5.26990       -0.89840        2.94780
S         -6.63470       -1.05020        2.09120
N         -5.98010       -1.01960        0.61150
C         -2.88300       -0.62810        2.38970
C         -2.23310       -0.41540        3.61150
S         -2.61220       -0.30740        5.29340
C         -0.93620        0.07420        5.61880
C         -0.25080        0.37160        6.79810
C         -0.90070        0.37780        8.14170
C         -0.89970       -1.03170        8.74040
C          1.09170        0.64780        6.55210
S          1.49470        0.48800        4.84050
C         -0.14010        0.09850        4.46390
C         -0.88420       -0.18090        3.31680
N         -0.67500       -0.26510        1.96730
C         -1.89290       -0.54060        1.36530
C         -2.28980       -0.74850        0.01630
N         -1.59350       -0.84810       -1.17500
C         -2.50340       -1.00320       -2.18480
C         -2.48350       -1.15900       -3.57320
S         -1.29050       -1.24120       -4.81260
C         -0.19790       -1.12220       -1.43570
C          0.23290       -2.45070       -0.81850
C          0.55220        0.27100        1.41950
C          0.32950        1.64060        0.78380
C          2.08260        0.91600        7.51490
C          3.34410        1.41150        7.34280
C          4.38180        1.13840        8.36620
O          4.21190        0.70740        9.48310
C          5.66840        1.44830        7.69720
C          6.95170        1.25710        8.16670
C          8.01510        1.60060        7.33950
Cl         9.63910        1.38160        7.86230
C          7.75700        2.12710        6.07170
F          8.78660        2.44330        5.27710
C          6.47100        2.33420        5.59700
C          5.41490        1.98720        6.42270
C          3.97000        2.11070        6.24460
C          3.34990        2.96590        5.36980
C          1.98410        3.30590        5.46510
N          0.89100        3.64690        5.54790
C          4.01410        3.65720        4.33850
N          4.50040        4.21150        3.45850
H         -3.23880       -1.63520       -7.98070
H          3.02880       -1.18750       -7.85940
H          0.46820       -1.70800      -12.09980
H         -5.04770       -2.17970       -7.06690
H         -5.89770       -1.87570       -5.54580
H         -5.67930        0.57150       -5.88850
H         -6.48600       -0.18620       -7.26630
H         -4.79540        0.29940       -7.39400
H         -1.93210        0.71580        8.02490
H         -0.38570        1.06760        8.80990
H         -1.38790       -1.02210        9.71090
H         -1.43500       -1.71900        8.08960
H          0.11760       -1.39530        8.86700
H         -0.08980       -1.17990       -2.52130
H          0.42480       -0.29450       -1.09740
H         -0.32290       -3.26740       -1.27290
H          1.29210       -2.61510       -0.99580
H          0.04630       -2.46960        0.25310
H          1.00210       -0.43320        0.72140
H          1.24520        0.37510        2.25800
H         -0.02730        2.34340        1.53330
H          1.26470        2.01700        0.37850
H         -0.40760        1.59070       -0.01450
H          1.85680        0.59600        8.52720
H          7.12300        0.85140        9.15100
H          6.33410        2.74350        4.60900
