103

C          3.25060        1.60770        7.19320
C          4.26000        0.67810        7.30930
C          4.61690       -0.33760        6.32040
O          4.09440       -0.55050        5.24010
C          5.76480       -1.07530        6.88940
C          6.46760       -2.12570        6.33660
C          7.52320       -2.66510        7.06240
Cl         8.44250       -3.97560        6.43290
C          7.83480       -2.13190        8.31450
F          8.85270       -2.65530        9.00840
C          7.13160       -1.07610        8.87490
C          6.07980       -0.53960        8.14970
C          5.15420        0.55520        8.44170
C          5.16040        1.30260        9.59260
C          4.27540        2.35670        9.89930
N          3.59550        3.22350       10.22700
C          6.07200        1.11140       10.65240
N          6.78110        1.01090       11.54940
C          2.32270        1.83290        6.17640
C          1.34120        2.84080        6.24590
C          1.11800        3.76510        7.39740
C          0.25520        3.09620        8.47140
C          0.53770        2.84280        5.11630
S         -0.83200        3.83390        4.64800
C         -0.93940        2.92940        3.17890
C         -1.74560        2.85890        2.03810
C         -2.92350        3.56310        1.70340
C         -3.62810        3.20020        0.51140
N         -4.73830        3.90160        0.34570
S         -4.88100        4.93490        1.58360
N         -3.53210        4.52450        2.37950
C         -3.06900        2.21930       -0.33740
C         -3.49060        1.75270       -1.58740
S         -4.80370        1.97400       -2.68970
C         -4.02250        0.85270       -3.78950
C         -4.37920        0.37820       -5.04380
C         -5.65600        0.75940       -5.71860
C         -6.75000       -0.27380       -5.43490
C         -3.42440       -0.52820       -5.53900
S         -2.07990       -0.75710       -4.41840
C         -2.80390        0.34340       -3.30690
C         -2.51010        0.86240       -2.04220
N         -1.51550        0.74540       -1.10930
C         -1.83610        1.56320       -0.03930
C         -1.21650        1.81860        1.21440
N         -0.13150        1.26310        1.86900
C          0.03080        1.92620        3.05570
C          0.87930        1.86420        4.16370
S          2.22090        0.91070        4.67310
C          0.54770        0.00210        1.66770
C         -0.41590       -1.17570        1.78870
C         -0.25440        0.15120       -1.49560
C          0.83130        1.21130       -1.66300
C         -3.55350       -1.16310       -6.77730
C         -2.75480       -2.08810       -7.40570
C         -1.51110       -2.65650       -6.88170
O         -0.94760       -2.37970       -5.83740
C         -1.05560       -3.63790       -7.88700
C          0.06100       -4.44750       -7.84330
C          0.27780       -5.29620       -8.92520
O          1.37560       -6.12500       -9.03640
C          1.94340       -6.72640       -7.96600
O          1.53060       -6.64980       -6.84450
C          3.14680       -7.50950       -8.41000
C         -0.59990       -5.30720      -10.00850
C         -1.71550       -4.48790      -10.04250
C         -1.95280       -3.64320       -8.96790
C         -3.01910       -2.67850       -8.70270
C         -4.05710       -2.39690       -9.55450
C         -5.08530       -1.45990       -9.32360
N         -5.95500       -0.71630       -9.21490
C         -4.23830       -3.01310      -10.81050
N         -4.44780       -3.47280      -11.84160
H          3.14240        2.28770        8.02680
H          6.20280       -2.51550        5.36680
H          7.42640       -0.71340        9.84590
H          2.06430        4.08100        7.83850
H          0.59990        4.65180        7.02670
H          0.09270        3.78660        9.29380
H          0.74500        2.20690        8.86080
H         -0.70910        2.81040        8.05780
H         -5.51870        0.85500       -6.79660
H         -5.97210        1.72820       -5.32670
H         -6.92880       -0.35130       -4.36500
H         -7.67300        0.02510       -5.92310
H         -6.46270       -1.25290       -5.81120
H          1.07440       -0.00220        0.71390
H          1.30460       -0.07150        2.45220
H         -0.84160       -1.20470        2.78900
H         -1.23270       -1.09510        1.07500
H          0.11540       -2.10700        1.61350
H         -0.42510       -0.34280       -2.45500
H          0.04070       -0.62170       -0.78680
H          0.55170        1.90680       -2.45100
H          1.76990        0.73840       -1.93810
H          0.97670        1.77880       -0.74640
H         -4.44680       -0.87240       -7.31270
H          0.72450       -4.41640       -6.99450
H          2.88000       -8.15650       -9.24150
H          3.52530       -8.09740       -7.57980
H          3.91510       -6.81910       -8.75170
H         -0.39000       -5.97370      -10.83040
H         -2.37500       -4.52380      -10.89360
