
  xtb     02012220203D
 energy: -171.816794488746 gnorm: 0.000356544376 xtb: 6.4.1 (unknown)
 92102  0     0  0            999 V2000
   -6.0269    1.1960   -1.3633 C   0  0  0  0  0  0  0  0  0  0  0  0
   -6.8960    1.4152   -2.3953 C   0  0  0  0  0  0  0  0  0  0  0  0
   -8.1891    2.0918   -2.1284 C   0  0  0  0  0  0  0  0  0  0  0  0
   -8.5310    2.6329   -1.1025 O   0  0  0  0  0  0  0  0  0  0  0  0
   -8.9807    1.9155   -3.3689 C   0  0  0  0  0  0  0  0  0  0  0  0
  -10.2909    2.2729   -3.6125 C   0  0  0  0  0  0  0  0  0  0  0  0
  -10.8333    1.9822   -4.8593 C   0  0  0  0  0  0  0  0  0  0  0  0
  -12.4607    2.3992   -5.2271 Cl  0  0  0  0  0  0  0  0  0  0  0  0
  -10.0440    1.3438   -5.8186 C   0  0  0  0  0  0  0  0  0  0  0  0
  -10.5771    1.0553   -7.0116 F   0  0  0  0  0  0  0  0  0  0  0  0
   -8.7235    0.9914   -5.5855 C   0  0  0  0  0  0  0  0  0  0  0  0
   -8.1866    1.2836   -4.3426 C   0  0  0  0  0  0  0  0  0  0  0  0
   -6.8442    1.0801   -3.7992 C   0  0  0  0  0  0  0  0  0  0  0  0
   -5.7173    0.8543   -4.5491 C   0  0  0  0  0  0  0  0  0  0  0  0
   -4.4038    0.9509   -4.0493 C   0  0  0  0  0  0  0  0  0  0  0  0
   -3.3114    1.0691   -3.7162 N   0  0  0  0  0  0  0  0  0  0  0  0
   -5.7335    0.5931   -5.9340 C   0  0  0  0  0  0  0  0  0  0  0  0
   -5.6891    0.3498   -7.0548 N   0  0  0  0  0  0  0  0  0  0  0  0
   -4.9363    0.3067   -1.2798 C   0  0  0  0  0  0  0  0  0  0  0  0
   -4.7194   -0.9391   -1.8633 C   0  0  0  0  0  0  0  0  0  0  0  0
   -5.7317   -1.7047   -2.6517 C   0  0  0  0  0  0  0  0  0  0  0  0
   -6.0058   -3.0791   -2.0399 C   0  0  0  0  0  0  0  0  0  0  0  0
   -3.4596   -1.4431   -1.5209 C   0  0  0  0  0  0  0  0  0  0  0  0
   -2.5976   -2.8909   -1.9907 S   0  0  0  0  0  0  0  0  0  0  0  0
   -1.2253   -2.3404   -1.0983 C   0  0  0  0  0  0  0  0  0  0  0  0
    0.0655   -2.7709   -0.7650 C   0  0  0  0  0  0  0  0  0  0  0  0
    0.7236   -3.9989   -0.9976 C   0  0  0  0  0  0  0  0  0  0  0  0
    2.0105   -4.2169   -0.4038 C   0  0  0  0  0  0  0  0  0  0  0  0
    2.4806   -5.4300   -0.6473 N   0  0  0  0  0  0  0  0  0  0  0  0
    1.3997   -6.2274   -1.5510 S   0  0  0  0  0  0  0  0  0  0  0  0
    0.2879   -5.0561   -1.6641 N   0  0  0  0  0  0  0  0  0  0  0  0
    2.6334   -3.1523    0.2850 C   0  0  0  0  0  0  0  0  0  0  0  0
    3.9217   -3.0353    0.8254 C   0  0  0  0  0  0  0  0  0  0  0  0
    5.3401   -3.9991    1.0544 S   0  0  0  0  0  0  0  0  0  0  0  0
    6.1497   -2.5935    1.7202 C   0  0  0  0  0  0  0  0  0  0  0  0
    7.4361   -2.3978    2.2134 C   0  0  0  0  0  0  0  0  0  0  0  0
    8.4721   -3.4750    2.2169 C   0  0  0  0  0  0  0  0  0  0  0  0
    9.3475   -3.3885    0.9639 C   0  0  0  0  0  0  0  0  0  0  0  0
    7.6275   -1.0737    2.6284 C   0  0  0  0  0  0  0  0  0  0  0  0
    6.1841   -0.0883    2.4029 S   0  0  0  0  0  0  0  0  0  0  0  0
    5.3428   -1.4462    1.7571 C   0  0  0  0  0  0  0  0  0  0  0  0
    4.0663   -1.7106    1.2497 C   0  0  0  0  0  0  0  0  0  0  0  0
    2.9073   -1.0128    1.0294 N   0  0  0  0  0  0  0  0  0  0  0  0
    2.0034   -1.8827    0.4401 C   0  0  0  0  0  0  0  0  0  0  0  0
    0.6542   -1.7381    0.0231 C   0  0  0  0  0  0  0  0  0  0  0  0
   -0.2875   -0.7455    0.2099 N   0  0  0  0  0  0  0  0  0  0  0  0
   -1.4191   -1.1034   -0.4723 C   0  0  0  0  0  0  0  0  0  0  0  0
   -2.7022   -0.5984   -0.6943 C   0  0  0  0  0  0  0  0  0  0  0  0
   -3.5962    0.8012   -0.2475 S   0  0  0  0  0  0  0  0  0  0  0  0
   -0.3419    0.3353    1.1676 C   0  0  0  0  0  0  0  0  0  0  0  0
   -0.2368    1.7048    0.4986 C   0  0  0  0  0  0  0  0  0  0  0  0
    2.9961    0.4292    0.9296 C   0  0  0  0  0  0  0  0  0  0  0  0
    3.2906    0.8555   -0.5069 C   0  0  0  0  0  0  0  0  0  0  0  0
    8.8320   -0.5885    3.1629 C   0  0  0  0  0  0  0  0  0  0  0  0
    9.1723    0.6636    3.5858 C   0  0  0  0  0  0  0  0  0  0  0  0
   10.7810    0.9931    4.2139 S   0  0  0  0  0  0  0  0  0  0  0  0
   10.3947    2.6842    4.4770 C   0  0  0  0  0  0  0  0  0  0  0  0
   11.4368    3.7854    5.0809 S   0  0  0  0  0  0  0  0  0  0  0  0
    9.1155    2.9337    4.0961 N   0  0  0  0  0  0  0  0  0  0  0  0
    8.5169    4.2480    4.2255 C   0  0  0  0  0  0  0  0  0  0  0  0
    7.9919    4.4791    5.6367 C   0  0  0  0  0  0  0  0  0  0  0  0
    8.3779    1.8731    3.6035 C   0  0  0  0  0  0  0  0  0  0  0  0
    7.2200    1.9981    3.2407 O   0  0  0  0  0  0  0  0  0  0  0  0
   -6.2257    1.7861   -0.4727 H   0  0  0  0  0  0  0  0  0  0  0  0
  -10.8768    2.7656   -2.8532 H   0  0  0  0  0  0  0  0  0  0  0  0
   -8.1668    0.4994   -6.3665 H   0  0  0  0  0  0  0  0  0  0  0  0
   -6.6671   -1.1453   -2.6916 H   0  0  0  0  0  0  0  0  0  0  0  0
   -5.3643   -1.8334   -3.6750 H   0  0  0  0  0  0  0  0  0  0  0  0
   -5.1149   -3.6999   -2.0537 H   0  0  0  0  0  0  0  0  0  0  0  0
   -6.7843   -3.5820   -2.6076 H   0  0  0  0  0  0  0  0  0  0  0  0
   -6.3418   -2.9726   -1.0108 H   0  0  0  0  0  0  0  0  0  0  0  0
    7.9613   -4.4398    2.2289 H   0  0  0  0  0  0  0  0  0  0  0  0
    9.0958   -3.4087    3.1097 H   0  0  0  0  0  0  0  0  0  0  0  0
    9.8637   -2.4321    0.9193 H   0  0  0  0  0  0  0  0  0  0  0  0
   10.0874   -4.1844    0.9694 H   0  0  0  0  0  0  0  0  0  0  0  0
    8.7350   -3.4913    0.0715 H   0  0  0  0  0  0  0  0  0  0  0  0
    0.4324    0.1789    1.9198 H   0  0  0  0  0  0  0  0  0  0  0  0
   -1.3101    0.2714    1.6775 H   0  0  0  0  0  0  0  0  0  0  0  0
   -1.0975    1.8715   -0.1430 H   0  0  0  0  0  0  0  0  0  0  0  0
    0.6575    1.7846   -0.1122 H   0  0  0  0  0  0  0  0  0  0  0  0
   -0.2191    2.4830    1.2566 H   0  0  0  0  0  0  0  0  0  0  0  0
    2.0905    0.9073    1.2887 H   0  0  0  0  0  0  0  0  0  0  0  0
    3.8183    0.7378    1.5800 H   0  0  0  0  0  0  0  0  0  0  0  0
    3.3747    1.9372   -0.5623 H   0  0  0  0  0  0  0  0  0  0  0  0
    2.4990    0.5257   -1.1771 H   0  0  0  0  0  0  0  0  0  0  0  0
    4.2281    0.4188   -0.8431 H   0  0  0  0  0  0  0  0  0  0  0  0
    9.6171   -1.3299    3.2487 H   0  0  0  0  0  0  0  0  0  0  0  0
    9.2774    4.9912    3.9752 H   0  0  0  0  0  0  0  0  0  0  0  0
    7.6989    4.2874    3.5022 H   0  0  0  0  0  0  0  0  0  0  0  0
    7.5355    5.4627    5.6975 H   0  0  0  0  0  0  0  0  0  0  0  0
    7.2455    3.7295    5.8892 H   0  0  0  0  0  0  0  0  0  0  0  0
    8.8063    4.4277    6.3553 H   0  0  0  0  0  0  0  0  0  0  0  0
  1  2  2  0  0  0  0
  2  3  1  0  0  0  0
  3  4  2  0  0  0  0
  3  5  1  0  0  0  0
  5  6  2  0  0  0  0
  6  7  1  0  0  0  0
  7  8  1  0  0  0  0
  7  9  2  0  0  0  0
  9 10  1  0  0  0  0
  9 11  1  0  0  0  0
 11 12  2  0  0  0  0
 12 13  1  0  0  0  0
 13 14  2  0  0  0  0
 14 15  1  0  0  0  0
 15 16  3  0  0  0  0
 14 17  1  0  0  0  0
 17 18  3  0  0  0  0
  1 19  1  0  0  0  0
 19 20  2  0  0  0  0
 20 21  1  0  0  0  0
 21 22  1  0  0  0  0
 20 23  1  0  0  0  0
 23 24  1  0  0  0  0
 24 25  1  0  0  0  0
 25 26  1  0  0  0  0
 26 27  1  0  0  0  0
 27 28  1  0  0  0  0
 28 29  2  0  0  0  0
 29 30  1  0  0  0  0
 30 31  1  0  0  0  0
 28 32  1  0  0  0  0
 32 33  1  0  0  0  0
 33 34  1  0  0  0  0
 34 35  1  0  0  0  0
 35 36  1  0  0  0  0
 36 37  1  0  0  0  0
 37 38  1  0  0  0  0
 36 39  2  0  0  0  0
 39 40  1  0  0  0  0
 40 41  1  0  0  0  0
 41 42  1  0  0  0  0
 42 43  1  0  0  0  0
 43 44  1  0  0  0  0
 44 45  1  0  0  0  0
 45 46  1  0  0  0  0
 46 47  1  0  0  0  0
 47 48  1  0  0  0  0
 48 49  1  0  0  0  0
 46 50  1  0  0  0  0
 50 51  1  0  0  0  0
 43 52  1  0  0  0  0
 52 53  1  0  0  0  0
 39 54  1  0  0  0  0
 54 55  2  0  0  0  0
 55 56  1  0  0  0  0
 56 57  1  0  0  0  0
 57 58  2  0  0  0  0
 57 59  1  0  0  0  0
 59 60  1  0  0  0  0
 60 61  1  0  0  0  0
 59 62  1  0  0  0  0
 62 63  2  0  0  0  0
 13  2  1  0  0  0  0
 49 19  1  0  0  0  0
 62 55  1  0  0  0  0
 12  5  1  0  0  0  0
 48 23  2  0  0  0  0
 47 25  2  0  0  0  0
 45 26  2  0  0  0  0
 31 27  2  0  0  0  0
 44 32  2  0  0  0  0
 42 33  2  0  0  0  0
 41 35  2  0  0  0  0
  1 64  1  0  0  0  0
  6 65  1  0  0  0  0
 11 66  1  0  0  0  0
 21 67  1  0  0  0  0
 21 68  1  0  0  0  0
 22 69  1  0  0  0  0
 22 70  1  0  0  0  0
 22 71  1  0  0  0  0
 37 72  1  0  0  0  0
 37 73  1  0  0  0  0
 38 74  1  0  0  0  0
 38 75  1  0  0  0  0
 38 76  1  0  0  0  0
 50 77  1  0  0  0  0
 50 78  1  0  0  0  0
 51 79  1  0  0  0  0
 51 80  1  0  0  0  0
 51 81  1  0  0  0  0
 52 82  1  0  0  0  0
 52 83  1  0  0  0  0
 53 84  1  0  0  0  0
 53 85  1  0  0  0  0
 53 86  1  0  0  0  0
 54 87  1  0  0  0  0
 60 88  1  0  0  0  0
 60 89  1  0  0  0  0
 61 90  1  0  0  0  0
 61 91  1  0  0  0  0
 61 92  1  0  0  0  0
M  END
