
  xtb     02012217433D
 energy: -190.006479925440 gnorm: 0.000569279003 xtb: 6.4.1 (unknown)
100111  0     0  0            999 V2000
    2.8641   -2.0433   -7.2471 C   0  0  0  0  0  0  0  0  0  0  0  0
    1.9904   -1.3428   -8.0489 C   0  0  0  0  0  0  0  0  0  0  0  0
    0.8697   -0.5211   -7.5954 C   0  0  0  0  0  0  0  0  0  0  0  0
    0.4967   -0.3235   -6.4520 O   0  0  0  0  0  0  0  0  0  0  0  0
    0.2550    0.0404   -8.8168 C   0  0  0  0  0  0  0  0  0  0  0  0
   -0.8306    0.8853   -8.9187 C   0  0  0  0  0  0  0  0  0  0  0  0
   -1.2322    1.2904  -10.1862 C   0  0  0  0  0  0  0  0  0  0  0  0
   -2.5772    2.3436  -10.3866 Cl  0  0  0  0  0  0  0  0  0  0  0  0
   -0.5307    0.8336  -11.3036 C   0  0  0  0  0  0  0  0  0  0  0  0
   -0.9209    1.2288  -12.5214 F   0  0  0  0  0  0  0  0  0  0  0  0
    0.5603   -0.0172  -11.2070 C   0  0  0  0  0  0  0  0  0  0  0  0
    0.9586   -0.4203   -9.9425 C   0  0  0  0  0  0  0  0  0  0  0  0
    2.0444   -1.2930   -9.4953 C   0  0  0  0  0  0  0  0  0  0  0  0
    2.9279   -1.9355  -10.3257 C   0  0  0  0  0  0  0  0  0  0  0  0
    3.9772   -2.7852   -9.9190 C   0  0  0  0  0  0  0  0  0  0  0  0
    4.8511   -3.4898   -9.6726 N   0  0  0  0  0  0  0  0  0  0  0  0
    2.9042   -1.8337  -11.7328 C   0  0  0  0  0  0  0  0  0  0  0  0
    2.9427   -1.7945  -12.8793 N   0  0  0  0  0  0  0  0  0  0  0  0
    2.9329   -2.1735   -5.8600 C   0  0  0  0  0  0  0  0  0  0  0  0
    3.9340   -2.9218   -5.2094 C   0  0  0  0  0  0  0  0  0  0  0  0
    5.0641   -3.6325   -5.8787 C   0  0  0  0  0  0  0  0  0  0  0  0
    6.2147   -2.6674   -6.1781 C   0  0  0  0  0  0  0  0  0  0  0  0
    3.7800   -2.8807   -3.8324 C   0  0  0  0  0  0  0  0  0  0  0  0
    4.6963   -3.6002   -2.5203 S   0  0  0  0  0  0  0  0  0  0  0  0
    3.5854   -2.8931   -1.3999 C   0  0  0  0  0  0  0  0  0  0  0  0
    3.3376   -2.8769   -0.0223 C   0  0  0  0  0  0  0  0  0  0  0  0
    3.9489   -3.5826    1.0381 C   0  0  0  0  0  0  0  0  0  0  0  0
    3.3741   -3.4952    2.3482 C   0  0  0  0  0  0  0  0  0  0  0  0
    4.0044   -4.2562    3.2287 N   0  0  0  0  0  0  0  0  0  0  0  0
    5.2207   -5.0132    2.4753 S   0  0  0  0  0  0  0  0  0  0  0  0
    4.9885   -4.4005    0.9953 N   0  0  0  0  0  0  0  0  0  0  0  0
    2.2937   -2.6101    2.5625 C   0  0  0  0  0  0  0  0  0  0  0  0
    1.6334   -2.2363    3.7402 C   0  0  0  0  0  0  0  0  0  0  0  0
    1.6433   -2.6231    5.4253 S   0  0  0  0  0  0  0  0  0  0  0  0
    0.4268   -1.3849    5.6820 C   0  0  0  0  0  0  0  0  0  0  0  0
   -0.2267   -0.9406    6.8231 C   0  0  0  0  0  0  0  0  0  0  0  0
    0.0668   -1.4816    8.1839 C   0  0  0  0  0  0  0  0  0  0  0  0
    1.1021   -0.6121    8.9030 C   0  0  0  0  0  0  0  0  0  0  0  0
   -1.1277    0.0978    6.5257 C   0  0  0  0  0  0  0  0  0  0  0  0
   -1.1437    0.4928    4.8052 S   0  0  0  0  0  0  0  0  0  0  0  0
    0.0460   -0.7166    4.5052 C   0  0  0  0  0  0  0  0  0  0  0  0
    0.7366   -1.2171    3.3982 C   0  0  0  0  0  0  0  0  0  0  0  0
    0.7916   -0.9706    2.0506 N   0  0  0  0  0  0  0  0  0  0  0  0
    1.7392   -1.8240    1.5090 C   0  0  0  0  0  0  0  0  0  0  0  0
    2.1866   -2.0566    0.1820 C   0  0  0  0  0  0  0  0  0  0  0  0
    1.7287   -1.6389   -1.0506 N   0  0  0  0  0  0  0  0  0  0  0  0
    2.5753   -2.1335   -2.0063 C   0  0  0  0  0  0  0  0  0  0  0  0
    2.6726   -2.1268   -3.3989 C   0  0  0  0  0  0  0  0  0  0  0  0
    1.8045   -1.4394   -4.7175 S   0  0  0  0  0  0  0  0  0  0  0  0
    0.4483   -1.0960   -1.4453 C   0  0  0  0  0  0  0  0  0  0  0  0
    0.5549    0.3556   -1.9108 C   0  0  0  0  0  0  0  0  0  0  0  0
    0.3316    0.3208    1.5840 C   0  0  0  0  0  0  0  0  0  0  0  0
    1.4459    1.3608    1.6810 C   0  0  0  0  0  0  0  0  0  0  0  0
   -1.9068    0.7294    7.4994 C   0  0  0  0  0  0  0  0  0  0  0  0
   -2.8298    1.7426    7.4004 C   0  0  0  0  0  0  0  0  0  0  0  0
   -3.2491    2.4176    6.1698 C   0  0  0  0  0  0  0  0  0  0  0  0
   -2.8385    2.2280    5.0371 O   0  0  0  0  0  0  0  0  0  0  0  0
   -4.2875    3.3855    6.5674 C   0  0  0  0  0  0  0  0  0  0  0  0
   -5.0080    4.2528    5.7703 C   0  0  0  0  0  0  0  0  0  0  0  0
   -5.9561    5.0867    6.3525 C   0  0  0  0  0  0  0  0  0  0  0  0
   -6.7740    6.0493    5.5557 C   0  0  0  0  0  0  0  0  0  0  0  0
   -6.1281    4.9989    7.7351 C   0  0  0  0  0  0  0  0  0  0  0  0
   -7.0446    5.8013    8.3078 F   0  0  0  0  0  0  0  0  0  0  0  0
   -5.4178    4.1382    8.5565 C   0  0  0  0  0  0  0  0  0  0  0  0
   -4.4782    3.3147    7.9576 C   0  0  0  0  0  0  0  0  0  0  0  0
   -3.5743    2.3064    8.5091 C   0  0  0  0  0  0  0  0  0  0  0  0
   -3.4687    1.9876    9.8387 C   0  0  0  0  0  0  0  0  0  0  0  0
   -4.2341    2.5924   10.8583 C   0  0  0  0  0  0  0  0  0  0  0  0
   -4.8214    3.0412   11.7365 N   0  0  0  0  0  0  0  0  0  0  0  0
   -2.5929    1.0317   10.3934 C   0  0  0  0  0  0  0  0  0  0  0  0
   -1.9099    0.2749   10.9244 N   0  0  0  0  0  0  0  0  0  0  0  0
    3.6425   -2.5858   -7.7655 H   0  0  0  0  0  0  0  0  0  0  0  0
   -1.3514    1.2210   -8.0362 H   0  0  0  0  0  0  0  0  0  0  0  0
    1.0554   -0.3308  -12.1113 H   0  0  0  0  0  0  0  0  0  0  0  0
    4.7371   -4.1043   -6.8064 H   0  0  0  0  0  0  0  0  0  0  0  0
    5.4217   -4.4137   -5.2051 H   0  0  0  0  0  0  0  0  0  0  0  0
    6.5810   -2.2183   -5.2579 H   0  0  0  0  0  0  0  0  0  0  0  0
    7.0297   -3.2050   -6.6537 H   0  0  0  0  0  0  0  0  0  0  0  0
    5.8891   -1.8742   -6.8470 H   0  0  0  0  0  0  0  0  0  0  0  0
   -0.8392   -1.5396    8.7886 H   0  0  0  0  0  0  0  0  0  0  0  0
    0.4673   -2.4909    8.0699 H   0  0  0  0  0  0  0  0  0  0  0  0
    0.7298    0.4009    9.0348 H   0  0  0  0  0  0  0  0  0  0  0  0
    2.0260   -0.5727    8.3306 H   0  0  0  0  0  0  0  0  0  0  0  0
    1.3147   -1.0294    9.8828 H   0  0  0  0  0  0  0  0  0  0  0  0
   -0.2546   -1.2202   -0.6205 H   0  0  0  0  0  0  0  0  0  0  0  0
    0.0809   -1.7000   -2.2822 H   0  0  0  0  0  0  0  0  0  0  0  0
   -0.4390    0.7648   -2.0684 H   0  0  0  0  0  0  0  0  0  0  0  0
    1.0817    0.9702   -1.1858 H   0  0  0  0  0  0  0  0  0  0  0  0
    1.0929    0.4032   -2.8536 H   0  0  0  0  0  0  0  0  0  0  0  0
   -0.0395    0.2649    0.5668 H   0  0  0  0  0  0  0  0  0  0  0  0
   -0.4992    0.6112    2.2319 H   0  0  0  0  0  0  0  0  0  0  0  0
    2.2984    1.0680    1.0708 H   0  0  0  0  0  0  0  0  0  0  0  0
    1.7790    1.4622    2.7111 H   0  0  0  0  0  0  0  0  0  0  0  0
    1.0808    2.3253    1.3397 H   0  0  0  0  0  0  0  0  0  0  0  0
   -1.7434    0.3381    8.4942 H   0  0  0  0  0  0  0  0  0  0  0  0
   -4.8317    4.2763    4.7057 H   0  0  0  0  0  0  0  0  0  0  0  0
   -6.5371    5.9761    4.4984 H   0  0  0  0  0  0  0  0  0  0  0  0
   -7.8353    5.8497    5.6997 H   0  0  0  0  0  0  0  0  0  0  0  0
   -6.5885    7.0685    5.8934 H   0  0  0  0  0  0  0  0  0  0  0  0
   -5.6175    4.1366    9.6151 H   0  0  0  0  0  0  0  0  0  0  0  0
  1  2  2  0  0  0  0
  2  3  1  0  0  0  0
  3  4  2  0  0  0  0
  3  5  1  0  0  0  0
  5  6  2  0  0  0  0
  6  7  1  0  0  0  0
  7  8  1  0  0  0  0
  7  9  2  0  0  0  0
  9 10  1  0  0  0  0
  9 11  1  0  0  0  0
 11 12  2  0  0  0  0
 12 13  1  0  0  0  0
 13 14  2  0  0  0  0
 14 15  1  0  0  0  0
 15 16  3  0  0  0  0
 14 17  1  0  0  0  0
 17 18  3  0  0  0  0
  1 19  1  0  0  0  0
 19 20  2  0  0  0  0
 20 21  1  0  0  0  0
 21 22  1  0  0  0  0
 20 23  1  0  0  0  0
 23 24  1  0  0  0  0
 24 25  1  0  0  0  0
 25 26  1  0  0  0  0
 26 27  1  0  0  0  0
 27 28  1  0  0  0  0
 28 29  2  0  0  0  0
 29 30  1  0  0  0  0
 30 31  1  0  0  0  0
 28 32  1  0  0  0  0
 32 33  1  0  0  0  0
 33 34  1  0  0  0  0
 34 35  1  0  0  0  0
 35 36  1  0  0  0  0
 36 37  1  0  0  0  0
 37 38  1  0  0  0  0
 36 39  2  0  0  0  0
 39 40  1  0  0  0  0
 40 41  1  0  0  0  0
 41 42  1  0  0  0  0
 42 43  1  0  0  0  0
 43 44  1  0  0  0  0
 44 45  1  0  0  0  0
 45 46  1  0  0  0  0
 46 47  1  0  0  0  0
 47 48  1  0  0  0  0
 48 49  1  0  0  0  0
 46 50  1  0  0  0  0
 50 51  1  0  0  0  0
 43 52  1  0  0  0  0
 52 53  1  0  0  0  0
 39 54  1  0  0  0  0
 54 55  2  0  0  0  0
 55 56  1  0  0  0  0
 56 57  2  0  0  0  0
 56 58  1  0  0  0  0
 58 59  2  0  0  0  0
 59 60  1  0  0  0  0
 60 61  1  0  0  0  0
 60 62  2  0  0  0  0
 62 63  1  0  0  0  0
 62 64  1  0  0  0  0
 64 65  2  0  0  0  0
 65 66  1  0  0  0  0
 66 67  2  0  0  0  0
 67 68  1  0  0  0  0
 68 69  3  0  0  0  0
 67 70  1  0  0  0  0
 70 71  3  0  0  0  0
 13  2  1  0  0  0  0
 49 19  1  0  0  0  0
 66 55  1  0  0  0  0
 12  5  1  0  0  0  0
 48 23  2  0  0  0  0
 65 58  1  0  0  0  0
 47 25  2  0  0  0  0
 45 26  2  0  0  0  0
 31 27  2  0  0  0  0
 44 32  2  0  0  0  0
 42 33  2  0  0  0  0
 41 35  2  0  0  0  0
  1 72  1  0  0  0  0
  6 73  1  0  0  0  0
 11 74  1  0  0  0  0
 21 75  1  0  0  0  0
 21 76  1  0  0  0  0
 22 77  1  0  0  0  0
 22 78  1  0  0  0  0
 22 79  1  0  0  0  0
 37 80  1  0  0  0  0
 37 81  1  0  0  0  0
 38 82  1  0  0  0  0
 38 83  1  0  0  0  0
 38 84  1  0  0  0  0
 50 85  1  0  0  0  0
 50 86  1  0  0  0  0
 51 87  1  0  0  0  0
 51 88  1  0  0  0  0
 51 89  1  0  0  0  0
 52 90  1  0  0  0  0
 52 91  1  0  0  0  0
 53 92  1  0  0  0  0
 53 93  1  0  0  0  0
 53 94  1  0  0  0  0
 54 95  1  0  0  0  0
 59 96  1  0  0  0  0
 61 97  1  0  0  0  0
 61 98  1  0  0  0  0
 61 99  1  0  0  0  0
 64100  1  0  0  0  0
M  END
