
  xtb     02012220443D
 energy: -189.826086393402 gnorm: 0.000330450102 xtb: 6.4.1 (unknown)
101112  0     0  0            999 V2000
    8.3152   -1.8322    3.4675 C   0  0  0  0  0  0  0  0  0  0  0  0
    9.1155   -0.7431    3.2021 C   0  0  0  0  0  0  0  0  0  0  0  0
    8.6666    0.5642    2.7265 C   0  0  0  0  0  0  0  0  0  0  0  0
    7.5275    0.9274    2.4899 O   0  0  0  0  0  0  0  0  0  0  0  0
    9.8855    1.3896    2.5906 C   0  0  0  0  0  0  0  0  0  0  0  0
    9.9908    2.7001    2.1734 C   0  0  0  0  0  0  0  0  0  0  0  0
   11.2554    3.2749    2.1234 C   0  0  0  0  0  0  0  0  0  0  0  0
   11.4596    4.9047    1.6121 Cl  0  0  0  0  0  0  0  0  0  0  0  0
   12.3665    2.5150    2.4934 C   0  0  0  0  0  0  0  0  0  0  0  0
   13.5818    3.0738    2.4424 F   0  0  0  0  0  0  0  0  0  0  0  0
   12.2663    1.1974    2.9144 C   0  0  0  0  0  0  0  0  0  0  0  0
   11.0047    0.6264    2.9639 C   0  0  0  0  0  0  0  0  0  0  0  0
   10.5554   -0.7107    3.3524 C   0  0  0  0  0  0  0  0  0  0  0  0
   11.3799   -1.7248    3.7709 C   0  0  0  0  0  0  0  0  0  0  0  0
   12.7811   -1.6060    3.8849 C   0  0  0  0  0  0  0  0  0  0  0  0
   13.9229   -1.5782    3.9996 N   0  0  0  0  0  0  0  0  0  0  0  0
   10.9722   -3.0221    4.1440 C   0  0  0  0  0  0  0  0  0  0  0  0
   10.7253   -4.0986    4.4620 N   0  0  0  0  0  0  0  0  0  0  0  0
    6.9383   -2.0126    3.3372 C   0  0  0  0  0  0  0  0  0  0  0  0
    6.2966   -3.2335    3.6270 C   0  0  0  0  0  0  0  0  0  0  0  0
    6.9686   -4.4875    4.0809 C   0  0  0  0  0  0  0  0  0  0  0  0
    7.5175   -5.2720    2.8857 C   0  0  0  0  0  0  0  0  0  0  0  0
    4.9359   -3.1609    3.3731 C   0  0  0  0  0  0  0  0  0  0  0  0
    3.6407   -4.3370    3.5136 S   0  0  0  0  0  0  0  0  0  0  0  0
    2.5343   -3.1417    2.9329 C   0  0  0  0  0  0  0  0  0  0  0  0
    1.1694   -3.0086    2.6436 C   0  0  0  0  0  0  0  0  0  0  0  0
    0.0823   -3.8911    2.8324 C   0  0  0  0  0  0  0  0  0  0  0  0
   -1.2393   -3.4462    2.4963 C   0  0  0  0  0  0  0  0  0  0  0  0
   -2.1631   -4.3533    2.7706 N   0  0  0  0  0  0  0  0  0  0  0  0
   -1.4336   -5.6568    3.3945 S   0  0  0  0  0  0  0  0  0  0  0  0
    0.0903   -5.1145    3.3374 N   0  0  0  0  0  0  0  0  0  0  0  0
   -1.3966   -2.1909    1.8668 C   0  0  0  0  0  0  0  0  0  0  0  0
   -2.5088   -1.6044    1.2476 C   0  0  0  0  0  0  0  0  0  0  0  0
   -4.1811   -1.9424    0.9770 S   0  0  0  0  0  0  0  0  0  0  0  0
   -4.2833   -0.5228   -0.0405 C   0  0  0  0  0  0  0  0  0  0  0  0
   -5.3344    0.0332   -0.7857 C   0  0  0  0  0  0  0  0  0  0  0  0
   -6.7361   -0.4813   -0.7200 C   0  0  0  0  0  0  0  0  0  0  0  0
   -6.8364   -1.9326   -1.1882 C   0  0  0  0  0  0  0  0  0  0  0  0
   -4.9217    1.1786   -1.4490 C   0  0  0  0  0  0  0  0  0  0  0  0
   -3.2424    1.5873   -1.1010 S   0  0  0  0  0  0  0  0  0  0  0  0
   -3.0735    0.1788   -0.1242 C   0  0  0  0  0  0  0  0  0  0  0  0
   -2.0585   -0.4412    0.6123 C   0  0  0  0  0  0  0  0  0  0  0  0
   -0.7195   -0.2748    0.8415 N   0  0  0  0  0  0  0  0  0  0  0  0
   -0.2884   -1.3290    1.6240 C   0  0  0  0  0  0  0  0  0  0  0  0
    0.9834   -1.6870    2.1398 C   0  0  0  0  0  0  0  0  0  0  0  0
    2.1961   -1.0225    2.1812 N   0  0  0  0  0  0  0  0  0  0  0  0
    3.1342   -1.9083    2.6493 C   0  0  0  0  0  0  0  0  0  0  0  0
    4.5061   -1.9054    2.9034 C   0  0  0  0  0  0  0  0  0  0  0  0
    5.8039   -0.7828    2.7691 S   0  0  0  0  0  0  0  0  0  0  0  0
    2.4661    0.3913    2.3407 C   0  0  0  0  0  0  0  0  0  0  0  0
    2.4851    0.7797    3.8188 C   0  0  0  0  0  0  0  0  0  0  0  0
    0.0307    0.6881    0.0671 C   0  0  0  0  0  0  0  0  0  0  0  0
   -0.1526    2.1119    0.5939 C   0  0  0  0  0  0  0  0  0  0  0  0
   -5.6435    2.1102   -2.2372 C   0  0  0  0  0  0  0  0  0  0  0  0
   -6.5829    1.8296   -3.1848 C   0  0  0  0  0  0  0  0  0  0  0  0
   -6.6890    0.5285   -3.8949 C   0  0  0  0  0  0  0  0  0  0  0  0
   -5.9555   -0.4223   -3.7057 O   0  0  0  0  0  0  0  0  0  0  0  0
   -7.6537    0.7370   -4.9928 C   0  0  0  0  0  0  0  0  0  0  0  0
   -8.1611   -0.1131   -5.9829 C   0  0  0  0  0  0  0  0  0  0  0  0
   -8.0740   -1.4486   -6.0798 O   0  0  0  0  0  0  0  0  0  0  0  0
   -7.7109   -2.2467   -4.9728 C   0  0  0  0  0  0  0  0  0  0  0  0
   -8.8961    0.4730   -7.0328 C   0  0  0  0  0  0  0  0  0  0  0  0
   -9.1625    1.8197   -7.0775 C   0  0  0  0  0  0  0  0  0  0  0  0
   -8.7342    2.6614   -6.0551 C   0  0  0  0  0  0  0  0  0  0  0  0
   -7.9925    2.1158   -5.0281 C   0  0  0  0  0  0  0  0  0  0  0  0
   -7.4157    2.7871   -3.8698 C   0  0  0  0  0  0  0  0  0  0  0  0
   -7.6916    4.0609   -3.4449 C   0  0  0  0  0  0  0  0  0  0  0  0
   -8.5383    4.9697   -4.1120 C   0  0  0  0  0  0  0  0  0  0  0  0
   -9.2099    5.7628   -4.5999 N   0  0  0  0  0  0  0  0  0  0  0  0
   -7.1978    4.6169   -2.2457 C   0  0  0  0  0  0  0  0  0  0  0  0
   -6.8525    5.1192   -1.2722 N   0  0  0  0  0  0  0  0  0  0  0  0
    8.8284   -2.7127    3.8288 H   0  0  0  0  0  0  0  0  0  0  0  0
    9.1136    3.2612    1.8937 H   0  0  0  0  0  0  0  0  0  0  0  0
   13.1656    0.6694    3.1856 H   0  0  0  0  0  0  0  0  0  0  0  0
    7.7811   -4.2705    4.7755 H   0  0  0  0  0  0  0  0  0  0  0  0
    6.2295   -5.1015    4.5992 H   0  0  0  0  0  0  0  0  0  0  0  0
    8.2581   -4.6857    2.3469 H   0  0  0  0  0  0  0  0  0  0  0  0
    6.7129   -5.5308    2.2014 H   0  0  0  0  0  0  0  0  0  0  0  0
    7.9899   -6.1863    3.2326 H   0  0  0  0  0  0  0  0  0  0  0  0
   -7.3884    0.1525   -1.3216 H   0  0  0  0  0  0  0  0  0  0  0  0
   -7.0680   -0.4189    0.3213 H   0  0  0  0  0  0  0  0  0  0  0  0
   -6.2864   -2.5898   -0.5203 H   0  0  0  0  0  0  0  0  0  0  0  0
   -6.4237   -2.0276   -2.1880 H   0  0  0  0  0  0  0  0  0  0  0  0
   -7.8773   -2.2463   -1.2014 H   0  0  0  0  0  0  0  0  0  0  0  0
    1.7116    0.9791    1.8339 H   0  0  0  0  0  0  0  0  0  0  0  0
    3.4437    0.5945    1.8938 H   0  0  0  0  0  0  0  0  0  0  0  0
    3.2652    0.2412    4.3500 H   0  0  0  0  0  0  0  0  0  0  0  0
    1.5268    0.5533    4.2825 H   0  0  0  0  0  0  0  0  0  0  0  0
    2.6778    1.8446    3.9125 H   0  0  0  0  0  0  0  0  0  0  0  0
    1.0789    0.3879    0.0448 H   0  0  0  0  0  0  0  0  0  0  0  0
   -0.3445    0.6481   -0.9616 H   0  0  0  0  0  0  0  0  0  0  0  0
    0.5201    2.7872    0.0728 H   0  0  0  0  0  0  0  0  0  0  0  0
    0.0419    2.1735    1.6625 H   0  0  0  0  0  0  0  0  0  0  0  0
   -1.1726    2.4442    0.4218 H   0  0  0  0  0  0  0  0  0  0  0  0
   -5.3642    3.1471   -2.0867 H   0  0  0  0  0  0  0  0  0  0  0  0
   -7.9553   -3.2684   -5.2598 H   0  0  0  0  0  0  0  0  0  0  0  0
   -6.6463   -2.1690   -4.7482 H   0  0  0  0  0  0  0  0  0  0  0  0
   -8.2858   -1.9664   -4.0860 H   0  0  0  0  0  0  0  0  0  0  0  0
   -9.2555   -0.1908   -7.8036 H   0  0  0  0  0  0  0  0  0  0  0  0
   -9.7256    2.2274   -7.9026 H   0  0  0  0  0  0  0  0  0  0  0  0
   -8.9646    3.7127   -6.0855 H   0  0  0  0  0  0  0  0  0  0  0  0
  1  2  2  0  0  0  0
  2  3  1  0  0  0  0
  3  4  2  0  0  0  0
  3  5  1  0  0  0  0
  5  6  2  0  0  0  0
  6  7  1  0  0  0  0
  7  8  1  0  0  0  0
  7  9  2  0  0  0  0
  9 10  1  0  0  0  0
  9 11  1  0  0  0  0
 11 12  2  0  0  0  0
 12 13  1  0  0  0  0
 13 14  2  0  0  0  0
 14 15  1  0  0  0  0
 15 16  3  0  0  0  0
 14 17  1  0  0  0  0
 17 18  3  0  0  0  0
  1 19  1  0  0  0  0
 19 20  2  0  0  0  0
 20 21  1  0  0  0  0
 21 22  1  0  0  0  0
 20 23  1  0  0  0  0
 23 24  1  0  0  0  0
 24 25  1  0  0  0  0
 25 26  1  0  0  0  0
 26 27  1  0  0  0  0
 27 28  1  0  0  0  0
 28 29  2  0  0  0  0
 29 30  1  0  0  0  0
 30 31  1  0  0  0  0
 28 32  1  0  0  0  0
 32 33  1  0  0  0  0
 33 34  1  0  0  0  0
 34 35  1  0  0  0  0
 35 36  1  0  0  0  0
 36 37  1  0  0  0  0
 37 38  1  0  0  0  0
 36 39  2  0  0  0  0
 39 40  1  0  0  0  0
 40 41  1  0  0  0  0
 41 42  1  0  0  0  0
 42 43  1  0  0  0  0
 43 44  1  0  0  0  0
 44 45  1  0  0  0  0
 45 46  1  0  0  0  0
 46 47  1  0  0  0  0
 47 48  1  0  0  0  0
 48 49  1  0  0  0  0
 46 50  1  0  0  0  0
 50 51  1  0  0  0  0
 43 52  1  0  0  0  0
 52 53  1  0  0  0  0
 39 54  1  0  0  0  0
 54 55  2  0  0  0  0
 55 56  1  0  0  0  0
 56 57  2  0  0  0  0
 56 58  1  0  0  0  0
 58 59  2  0  0  0  0
 59 60  1  0  0  0  0
 60 61  1  0  0  0  0
 59 62  1  0  0  0  0
 62 63  2  0  0  0  0
 63 64  1  0  0  0  0
 64 65  2  0  0  0  0
 65 66  1  0  0  0  0
 66 67  2  0  0  0  0
 67 68  1  0  0  0  0
 68 69  3  0  0  0  0
 67 70  1  0  0  0  0
 70 71  3  0  0  0  0
 13  2  1  0  0  0  0
 49 19  1  0  0  0  0
 66 55  1  0  0  0  0
 12  5  1  0  0  0  0
 48 23  2  0  0  0  0
 65 58  1  0  0  0  0
 47 25  2  0  0  0  0
 45 26  2  0  0  0  0
 31 27  2  0  0  0  0
 44 32  2  0  0  0  0
 42 33  2  0  0  0  0
 41 35  2  0  0  0  0
  1 72  1  0  0  0  0
  6 73  1  0  0  0  0
 11 74  1  0  0  0  0
 21 75  1  0  0  0  0
 21 76  1  0  0  0  0
 22 77  1  0  0  0  0
 22 78  1  0  0  0  0
 22 79  1  0  0  0  0
 37 80  1  0  0  0  0
 37 81  1  0  0  0  0
 38 82  1  0  0  0  0
 38 83  1  0  0  0  0
 38 84  1  0  0  0  0
 50 85  1  0  0  0  0
 50 86  1  0  0  0  0
 51 87  1  0  0  0  0
 51 88  1  0  0  0  0
 51 89  1  0  0  0  0
 52 90  1  0  0  0  0
 52 91  1  0  0  0  0
 53 92  1  0  0  0  0
 53 93  1  0  0  0  0
 53 94  1  0  0  0  0
 54 95  1  0  0  0  0
 61 96  1  0  0  0  0
 61 97  1  0  0  0  0
 61 98  1  0  0  0  0
 62 99  1  0  0  0  0
 63100  1  0  0  0  0
 64101  1  0  0  0  0
M  END
