100

C          2.86410       -2.04330       -7.24710
C          1.99040       -1.34280       -8.04890
C          0.86970       -0.52110       -7.59540
O          0.49670       -0.32350       -6.45200
C          0.25500        0.04040       -8.81680
C         -0.83060        0.88530       -8.91870
C         -1.23220        1.29040      -10.18620
Cl        -2.57720        2.34360      -10.38660
C         -0.53070        0.83360      -11.30360
F         -0.92090        1.22880      -12.52140
C          0.56030       -0.01720      -11.20700
C          0.95860       -0.42030       -9.94250
C          2.04440       -1.29300       -9.49530
C          2.92790       -1.93550      -10.32570
C          3.97720       -2.78520       -9.91900
N          4.85110       -3.48980       -9.67260
C          2.90420       -1.83370      -11.73280
N          2.94270       -1.79450      -12.87930
C          2.93290       -2.17350       -5.86000
C          3.93400       -2.92180       -5.20940
C          5.06410       -3.63250       -5.87870
C          6.21470       -2.66740       -6.17810
C          3.78000       -2.88070       -3.83240
S          4.69630       -3.60020       -2.52030
C          3.58540       -2.89310       -1.39990
C          3.33760       -2.87690       -0.02230
C          3.94890       -3.58260        1.03810
C          3.37410       -3.49520        2.34820
N          4.00440       -4.25620        3.22870
S          5.22070       -5.01320        2.47530
N          4.98850       -4.40050        0.99530
C          2.29370       -2.61010        2.56250
C          1.63340       -2.23630        3.74020
S          1.64330       -2.62310        5.42530
C          0.42680       -1.38490        5.68200
C         -0.22670       -0.94060        6.82310
C          0.06680       -1.48160        8.18390
C          1.10210       -0.61210        8.90300
C         -1.12770        0.09780        6.52570
S         -1.14370        0.49280        4.80520
C          0.04600       -0.71660        4.50520
C          0.73660       -1.21710        3.39820
N          0.79160       -0.97060        2.05060
C          1.73920       -1.82400        1.50900
C          2.18660       -2.05660        0.18200
N          1.72870       -1.63890       -1.05060
C          2.57530       -2.13350       -2.00630
C          2.67260       -2.12680       -3.39890
S          1.80450       -1.43940       -4.71750
C          0.44830       -1.09600       -1.44530
C          0.55490        0.35560       -1.91080
C          0.33160        0.32080        1.58400
C          1.44590        1.36080        1.68100
C         -1.90680        0.72940        7.49940
C         -2.82980        1.74260        7.40040
C         -3.24910        2.41760        6.16980
O         -2.83850        2.22800        5.03710
C         -4.28750        3.38550        6.56740
C         -5.00800        4.25280        5.77030
C         -5.95610        5.08670        6.35250
C         -6.77400        6.04930        5.55570
C         -6.12810        4.99890        7.73510
F         -7.04460        5.80130        8.30780
C         -5.41780        4.13820        8.55650
C         -4.47820        3.31470        7.95760
C         -3.57430        2.30640        8.50910
C         -3.46870        1.98760        9.83870
C         -4.23410        2.59240       10.85830
N         -4.82140        3.04120       11.73650
C         -2.59290        1.03170       10.39340
N         -1.90990        0.27490       10.92440
H          3.64250       -2.58580       -7.76550
H         -1.35140        1.22100       -8.03620
H          1.05540       -0.33080      -12.11130
H          4.73710       -4.10430       -6.80640
H          5.42170       -4.41370       -5.20510
H          6.58100       -2.21830       -5.25790
H          7.02970       -3.20500       -6.65370
H          5.88910       -1.87420       -6.84700
H         -0.83920       -1.53960        8.78860
H          0.46730       -2.49090        8.06990
H          0.72980        0.40090        9.03480
H          2.02600       -0.57270        8.33060
H          1.31470       -1.02940        9.88280
H         -0.25460       -1.22020       -0.62050
H          0.08090       -1.70000       -2.28220
H         -0.43900        0.76480       -2.06840
H          1.08170        0.97020       -1.18580
H          1.09290        0.40320       -2.85360
H         -0.03950        0.26490        0.56680
H         -0.49920        0.61120        2.23190
H          2.29840        1.06800        1.07080
H          1.77900        1.46220        2.71110
H          1.08080        2.32530        1.33970
H         -1.74340        0.33810        8.49420
H         -4.83170        4.27630        4.70570
H         -6.53710        5.97610        4.49840
H         -7.83530        5.84970        5.69970
H         -6.58850        7.06850        5.89340
H         -5.61750        4.13660        9.61510
