
  xtb     02012218243D
 energy: -200.634866193079 gnorm: 0.000828554474 xtb: 6.4.1 (unknown)
110124  0     0  0            999 V2000
    5.9545   -7.2815    0.9402 C   0  0  0  0  0  0  0  0  0  0  0  0
    6.5980   -7.2052   -0.2754 C   0  0  0  0  0  0  0  0  0  0  0  0
    6.2886   -6.2756   -1.3601 C   0  0  0  0  0  0  0  0  0  0  0  0
    5.4045   -5.4378   -1.4029 O   0  0  0  0  0  0  0  0  0  0  0  0
    7.2739   -6.5520   -2.4274 C   0  0  0  0  0  0  0  0  0  0  0  0
    7.4091   -5.9301   -3.6511 C   0  0  0  0  0  0  0  0  0  0  0  0
    8.4231   -6.3601   -4.4989 C   0  0  0  0  0  0  0  0  0  0  0  0
    8.6502   -5.6268   -6.0386 Cl  0  0  0  0  0  0  0  0  0  0  0  0
    9.2625   -7.3977   -4.0895 C   0  0  0  0  0  0  0  0  0  0  0  0
   10.2381   -7.8063   -4.9100 F   0  0  0  0  0  0  0  0  0  0  0  0
    9.1299   -8.0277   -2.8611 C   0  0  0  0  0  0  0  0  0  0  0  0
    8.1189   -7.5971   -2.0171 C   0  0  0  0  0  0  0  0  0  0  0  0
    7.7134   -8.0343   -0.6809 C   0  0  0  0  0  0  0  0  0  0  0  0
    8.2985   -9.0586    0.0207 C   0  0  0  0  0  0  0  0  0  0  0  0
    7.9168   -9.5059    1.3023 C   0  0  0  0  0  0  0  0  0  0  0  0
    7.6624   -9.9318    2.3391 N   0  0  0  0  0  0  0  0  0  0  0  0
    9.3817   -9.8250   -0.4585 C   0  0  0  0  0  0  0  0  0  0  0  0
   10.2600  -10.4874   -0.7862 N   0  0  0  0  0  0  0  0  0  0  0  0
    4.8789   -6.5597    1.4565 C   0  0  0  0  0  0  0  0  0  0  0  0
    4.3641   -6.7749    2.7504 C   0  0  0  0  0  0  0  0  0  0  0  0
    4.9041   -7.7373    3.7565 C   0  0  0  0  0  0  0  0  0  0  0  0
    6.0778   -7.1201    4.5225 C   0  0  0  0  0  0  0  0  0  0  0  0
    3.2984   -5.9298    3.0168 C   0  0  0  0  0  0  0  0  0  0  0  0
    2.2668   -5.7400    4.4235 S   0  0  0  0  0  0  0  0  0  0  0  0
    1.3936   -4.5127    3.5754 C   0  0  0  0  0  0  0  0  0  0  0  0
    0.2834   -3.6811    3.7644 C   0  0  0  0  0  0  0  0  0  0  0  0
   -0.6505   -3.6163    4.8225 C   0  0  0  0  0  0  0  0  0  0  0  0
   -1.7886   -2.7560    4.6887 C   0  0  0  0  0  0  0  0  0  0  0  0
   -2.6103   -2.8398    5.7229 N   0  0  0  0  0  0  0  0  0  0  0  0
   -2.0007   -3.9058    6.7776 S   0  0  0  0  0  0  0  0  0  0  0  0
   -0.6650   -4.3034    5.9536 N   0  0  0  0  0  0  0  0  0  0  0  0
   -1.8755   -1.9129    3.5587 C   0  0  0  0  0  0  0  0  0  0  0  0
   -2.7851   -0.8969    3.2411 C   0  0  0  0  0  0  0  0  0  0  0  0
   -4.2217   -0.1798    3.8831 S   0  0  0  0  0  0  0  0  0  0  0  0
   -4.1924    0.9778    2.5651 C   0  0  0  0  0  0  0  0  0  0  0  0
   -5.0369    2.0268    2.2255 C   0  0  0  0  0  0  0  0  0  0  0  0
   -6.2128    2.4187    3.0593 C   0  0  0  0  0  0  0  0  0  0  0  0
   -5.8418    3.5484    4.0241 C   0  0  0  0  0  0  0  0  0  0  0  0
   -4.6029    2.6748    1.0566 C   0  0  0  0  0  0  0  0  0  0  0  0
   -3.1332    1.9529    0.4012 S   0  0  0  0  0  0  0  0  0  0  0  0
   -3.1135    0.8003    1.6825 C   0  0  0  0  0  0  0  0  0  0  0  0
   -2.3171   -0.2797    2.0744 C   0  0  0  0  0  0  0  0  0  0  0  0
   -1.1644   -0.8877    1.6563 N   0  0  0  0  0  0  0  0  0  0  0  0
   -0.8807   -1.9152    2.5342 C   0  0  0  0  0  0  0  0  0  0  0  0
    0.1448   -2.8963    2.5800 C   0  0  0  0  0  0  0  0  0  0  0  0
    1.1339   -3.2746    1.6876 N   0  0  0  0  0  0  0  0  0  0  0  0
    1.8807   -4.2563    2.2876 C   0  0  0  0  0  0  0  0  0  0  0  0
    2.9666   -5.0679    1.9540 C   0  0  0  0  0  0  0  0  0  0  0  0
    3.9990   -5.2934    0.5941 S   0  0  0  0  0  0  0  0  0  0  0  0
    1.1699   -3.1940    0.2425 C   0  0  0  0  0  0  0  0  0  0  0  0
    0.1847   -4.1800   -0.3815 C   0  0  0  0  0  0  0  0  0  0  0  0
   -0.3395   -0.2326    0.6661 C   0  0  0  0  0  0  0  0  0  0  0  0
   -0.8309   -0.4904   -0.7575 C   0  0  0  0  0  0  0  0  0  0  0  0
   -5.2859    3.7568    0.4888 C   0  0  0  0  0  0  0  0  0  0  0  0
   -5.0321    4.4869   -0.6449 C   0  0  0  0  0  0  0  0  0  0  0  0
   -3.9172    4.2881   -1.5743 C   0  0  0  0  0  0  0  0  0  0  0  0
   -3.0205    3.4639   -1.4944 O   0  0  0  0  0  0  0  0  0  0  0  0
   -4.0853    5.2833   -2.6453 C   0  0  0  0  0  0  0  0  0  0  0  0
   -3.2692    5.4612   -3.7605 C   0  0  0  0  0  0  0  0  0  0  0  0
   -3.6778    6.4727   -4.5960 C   0  0  0  0  0  0  0  0  0  0  0  0
   -4.8146    7.2507   -4.3401 C   0  0  0  0  0  0  0  0  0  0  0  0
   -5.6306    7.0821   -3.2465 C   0  0  0  0  0  0  0  0  0  0  0  0
   -5.2340    6.0568   -2.3827 C   0  0  0  0  0  0  0  0  0  0  0  0
   -5.8439    5.5809   -1.1415 C   0  0  0  0  0  0  0  0  0  0  0  0
   -6.9854    6.0912   -0.5763 C   0  0  0  0  0  0  0  0  0  0  0  0
   -7.7384    7.1556   -1.1150 C   0  0  0  0  0  0  0  0  0  0  0  0
   -8.4047    8.0133   -1.4876 N   0  0  0  0  0  0  0  0  0  0  0  0
   -7.5895    5.6437    0.6168 C   0  0  0  0  0  0  0  0  0  0  0  0
   -8.1462    5.3429    1.5766 N   0  0  0  0  0  0  0  0  0  0  0  0
   -4.6240    8.0830   -5.5832 C   0  0  0  0  0  0  0  0  0  0  0  0
   -4.0303    9.4938   -5.3842 C   0  0  0  0  0  0  0  0  0  0  0  0
   -3.5224    9.8683   -6.7579 C   0  0  0  0  0  0  0  0  0  0  0  0
   -2.4485    9.1296   -7.0061 C   0  0  0  0  0  0  0  0  0  0  0  0
   -2.2119    8.2440   -5.8038 C   0  0  0  0  0  0  0  0  0  0  0  0
   -2.6999    9.1774   -4.6885 C   0  0  0  0  0  0  0  0  0  0  0  0
   -3.3584    7.2130   -5.8713 C   0  0  0  0  0  0  0  0  0  0  0  0
    6.3416   -8.0199    1.6285 H   0  0  0  0  0  0  0  0  0  0  0  0
    6.7449   -5.1310   -3.9389 H   0  0  0  0  0  0  0  0  0  0  0  0
    9.8130   -8.8220   -2.6088 H   0  0  0  0  0  0  0  0  0  0  0  0
    4.1058   -7.9759    4.4620 H   0  0  0  0  0  0  0  0  0  0  0  0
    5.2289   -8.6639    3.2814 H   0  0  0  0  0  0  0  0  0  0  0  0
    6.4505   -7.8289    5.2562 H   0  0  0  0  0  0  0  0  0  0  0  0
    6.8895   -6.8663    3.8449 H   0  0  0  0  0  0  0  0  0  0  0  0
    5.7596   -6.2171    5.0382 H   0  0  0  0  0  0  0  0  0  0  0  0
   -6.5269    1.5465    3.6362 H   0  0  0  0  0  0  0  0  0  0  0  0
   -7.0501    2.7360    2.4362 H   0  0  0  0  0  0  0  0  0  0  0  0
   -5.0299    3.2369    4.6772 H   0  0  0  0  0  0  0  0  0  0  0  0
   -5.5285    4.4346    3.4773 H   0  0  0  0  0  0  0  0  0  0  0  0
   -6.7020    3.8078    4.6344 H   0  0  0  0  0  0  0  0  0  0  0  0
    0.9587   -2.1881   -0.1016 H   0  0  0  0  0  0  0  0  0  0  0  0
    2.1879   -3.4504   -0.0619 H   0  0  0  0  0  0  0  0  0  0  0  0
    0.4249   -5.1965   -0.0792 H   0  0  0  0  0  0  0  0  0  0  0  0
    0.2401   -4.1202   -1.4648 H   0  0  0  0  0  0  0  0  0  0  0  0
   -0.8328   -3.9577   -0.0655 H   0  0  0  0  0  0  0  0  0  0  0  0
    0.6979   -0.5369    0.8133 H   0  0  0  0  0  0  0  0  0  0  0  0
   -0.3943    0.8447    0.8576 H   0  0  0  0  0  0  0  0  0  0  0  0
   -0.1265   -0.0703   -1.4699 H   0  0  0  0  0  0  0  0  0  0  0  0
   -0.9474   -1.5524   -0.9564 H   0  0  0  0  0  0  0  0  0  0  0  0
   -1.7922   -0.0072   -0.9086 H   0  0  0  0  0  0  0  0  0  0  0  0
   -6.1646    4.0443    1.0491 H   0  0  0  0  0  0  0  0  0  0  0  0
   -2.4040    4.8365   -3.9190 H   0  0  0  0  0  0  0  0  0  0  0  0
   -6.5047    7.6861   -3.0711 H   0  0  0  0  0  0  0  0  0  0  0  0
   -5.4444    8.0640   -6.2980 H   0  0  0  0  0  0  0  0  0  0  0  0
   -4.6948   10.2022   -4.8974 H   0  0  0  0  0  0  0  0  0  0  0  0
   -4.0130   10.5681   -7.4084 H   0  0  0  0  0  0  0  0  0  0  0  0
   -1.8630    9.0889   -7.9058 H   0  0  0  0  0  0  0  0  0  0  0  0
   -1.2187    7.8151   -5.7004 H   0  0  0  0  0  0  0  0  0  0  0  0
   -2.8093    8.6926   -3.7200 H   0  0  0  0  0  0  0  0  0  0  0  0
   -2.0701   10.0594   -4.5850 H   0  0  0  0  0  0  0  0  0  0  0  0
   -3.3368    6.6100   -6.7772 H   0  0  0  0  0  0  0  0  0  0  0  0
  1  2  2  0  0  0  0
  2  3  1  0  0  0  0
  3  4  2  0  0  0  0
  3  5  1  0  0  0  0
  5  6  2  0  0  0  0
  6  7  1  0  0  0  0
  7  8  1  0  0  0  0
  7  9  2  0  0  0  0
  9 10  1  0  0  0  0
  9 11  1  0  0  0  0
 11 12  2  0  0  0  0
 12 13  1  0  0  0  0
 13 14  2  0  0  0  0
 14 15  1  0  0  0  0
 15 16  3  0  0  0  0
 14 17  1  0  0  0  0
 17 18  3  0  0  0  0
  1 19  1  0  0  0  0
 19 20  2  0  0  0  0
 20 21  1  0  0  0  0
 21 22  1  0  0  0  0
 20 23  1  0  0  0  0
 23 24  1  0  0  0  0
 24 25  1  0  0  0  0
 25 26  1  0  0  0  0
 26 27  1  0  0  0  0
 27 28  1  0  0  0  0
 28 29  2  0  0  0  0
 29 30  1  0  0  0  0
 30 31  1  0  0  0  0
 28 32  1  0  0  0  0
 32 33  1  0  0  0  0
 33 34  1  0  0  0  0
 34 35  1  0  0  0  0
 35 36  1  0  0  0  0
 36 37  1  0  0  0  0
 37 38  1  0  0  0  0
 36 39  2  0  0  0  0
 39 40  1  0  0  0  0
 40 41  1  0  0  0  0
 41 42  1  0  0  0  0
 42 43  1  0  0  0  0
 43 44  1  0  0  0  0
 44 45  1  0  0  0  0
 45 46  1  0  0  0  0
 46 47  1  0  0  0  0
 47 48  1  0  0  0  0
 48 49  1  0  0  0  0
 46 50  1  0  0  0  0
 50 51  1  0  0  0  0
 43 52  1  0  0  0  0
 52 53  1  0  0  0  0
 39 54  1  0  0  0  0
 54 55  2  0  0  0  0
 55 56  1  0  0  0  0
 56 57  2  0  0  0  0
 56 58  1  0  0  0  0
 58 59  2  0  0  0  0
 59 60  1  0  0  0  0
 60 61  2  0  0  0  0
 61 62  1  0  0  0  0
 62 63  2  0  0  0  0
 63 64  1  0  0  0  0
 64 65  2  0  0  0  0
 65 66  1  0  0  0  0
 66 67  3  0  0  0  0
 65 68  1  0  0  0  0
 68 69  3  0  0  0  0
 61 70  1  0  0  0  0
 70 71  1  0  0  0  0
 71 72  1  0  0  0  0
 72 73  2  0  0  0  0
 73 74  1  0  0  0  0
 74 75  1  0  0  0  0
 74 76  1  0  0  0  0
 13  2  1  0  0  0  0
 49 19  1  0  0  0  0
 64 55  1  0  0  0  0
 76 70  1  0  0  0  0
 12  5  1  0  0  0  0
 48 23  2  0  0  0  0
 63 58  1  0  0  0  0
 75 71  1  0  0  0  0
 47 25  2  0  0  0  0
 76 60  1  0  0  0  0
 45 26  2  0  0  0  0
 31 27  2  0  0  0  0
 44 32  2  0  0  0  0
 42 33  2  0  0  0  0
 41 35  2  0  0  0  0
  1 77  1  0  0  0  0
  6 78  1  0  0  0  0
 11 79  1  0  0  0  0
 21 80  1  0  0  0  0
 21 81  1  0  0  0  0
 22 82  1  0  0  0  0
 22 83  1  0  0  0  0
 22 84  1  0  0  0  0
 37 85  1  0  0  0  0
 37 86  1  0  0  0  0
 38 87  1  0  0  0  0
 38 88  1  0  0  0  0
 38 89  1  0  0  0  0
 50 90  1  0  0  0  0
 50 91  1  0  0  0  0
 51 92  1  0  0  0  0
 51 93  1  0  0  0  0
 51 94  1  0  0  0  0
 52 95  1  0  0  0  0
 52 96  1  0  0  0  0
 53 97  1  0  0  0  0
 53 98  1  0  0  0  0
 53 99  1  0  0  0  0
 54100  1  0  0  0  0
 59101  1  0  0  0  0
 62102  1  0  0  0  0
 70103  1  0  0  0  0
 71104  1  0  0  0  0
 72105  1  0  0  0  0
 73106  1  0  0  0  0
 74107  1  0  0  0  0
 75108  1  0  0  0  0
 75109  1  0  0  0  0
 76110  1  0  0  0  0
M  END
