94

C         -7.25460        1.72100        1.49590
C         -7.47070        1.31690        2.79460
C         -6.51750        0.61310        3.65090
O         -5.37940        0.26840        3.38370
C         -7.21100        0.39210        4.93750
C         -6.73450       -0.23210        6.07140
C         -7.57510       -0.32300        7.17470
Cl        -7.04540       -1.08810        8.62160
C         -8.86130        0.21470        7.10010
F         -9.66640        0.12340        8.16560
C         -9.34520        0.84370        5.96280
C         -8.50550        0.93360        4.86420
C         -8.69650        1.52160        3.53810
C         -9.84020        2.15120        3.11580
C        -10.04430        2.73180        1.84710
N        -10.29210        3.22490        0.83910
C        -10.99320        2.31070        3.91330
N        -11.96310        2.47240        4.50550
C         -6.13480        1.60340        0.67250
C         -6.10640        2.08100       -0.65270
C         -7.25330        2.70290       -1.37920
C         -8.19280        1.62940       -1.93580
C         -4.87390        1.85320       -1.24520
S         -4.24690        2.21470       -2.84370
C         -2.73750        1.51580       -2.37350
C         -1.47880        1.24290       -2.92370
C         -0.98960        1.40430       -4.23920
C          0.32310        0.92300       -4.55380
N          0.62860        1.08510       -5.83150
S         -0.62520        1.78980       -6.57320
N         -1.60840        1.91200       -5.29350
C          1.12920        0.41510       -3.51120
C          2.47680        0.03220       -3.49700
S          3.80650       -0.11590       -4.58960
C          4.84510       -0.52210       -3.24160
C          6.22450       -0.74680       -3.14080
C          7.13910       -0.85520       -4.31720
C          6.62150       -1.84940       -5.35660
C          6.60130       -0.95710       -1.81780
S          5.22400       -0.94740       -0.72060
C          4.16330       -0.55520       -2.01670
C          2.81010       -0.23960       -2.16550
N          1.71700       -0.05470       -1.36380
C          0.65980        0.32830       -2.16690
C         -0.69990        0.63250       -1.89550
N         -1.48920        0.50590       -0.76410
C         -2.72000        1.03570       -1.05800
C         -3.94070        1.21660       -0.40510
S         -4.59880        0.87320        1.14880
C         -1.41050       -0.45200        0.31920
C         -1.72600       -1.86080       -0.17800
C          1.89500        0.02990        0.06800
C          1.96430       -1.35140        0.71780
C          7.86510       -1.20660       -1.23970
C          9.10120       -0.76640       -1.61570
C         10.30650       -1.47790       -1.09420
O         10.32330       -2.33340       -0.24090
C         11.42220       -0.93490       -1.88090
C         10.94220        0.11000       -2.73740
C         11.91690        0.66900       -3.50140
S         13.44790       -0.07160       -3.19930
C         12.76040       -1.15210       -2.00770
Cl        13.72220       -2.27580       -1.18110
C          9.52280        0.30050       -2.49720
C          8.81950        1.41830       -2.87240
C          7.52980        1.74520       -2.41790
N          6.49890        2.08050       -2.03900
C          9.39470        2.40410       -3.69850
N          9.84350        3.20120       -4.39150
H         -8.08580        2.21900        1.01620
H         -5.73580       -0.63750        6.09830
H        -10.34850        1.23670        5.97420
H         -7.81560        3.37210       -0.72630
H         -6.85350        3.29000       -2.20820
H         -7.65860        0.97960       -2.62490
H         -8.60380        1.02220       -1.13270
H         -9.01540        2.10080       -2.46580
H          8.12700       -1.17630       -3.98330
H          7.24050        0.13080       -4.78290
H          6.47830       -2.82810       -4.90410
H          5.67750       -1.51920       -5.77990
H          7.34480       -1.94330       -6.16240
H         -2.15390       -0.14930        1.06060
H         -0.43650       -0.43240        0.79500
H         -1.68000       -2.56330        0.64940
H         -1.01500       -2.16620       -0.94320
H         -2.72530       -1.89500       -0.60470
H          2.84300        0.54830        0.24930
H          1.10180        0.64950        0.48760
H          2.85880       -1.87150        0.38520
H          2.01160       -1.24890        1.79820
H          1.10260       -1.95970        0.45710
H          7.86610       -1.86560       -0.37540
H         11.84670        1.45610       -4.22560
