
  xtb     02012217263D
 energy: -174.471426823959 gnorm: 0.000282801955 xtb: 6.4.1 (unknown)
 93104  0     0  0            999 V2000
    1.6894   -7.3114   -1.1415 C   0  0  0  0  0  0  0  0  0  0  0  0
    2.0177   -8.4850   -0.5204 C   0  0  0  0  0  0  0  0  0  0  0  0
    2.6847   -9.5583   -1.2974 C   0  0  0  0  0  0  0  0  0  0  0  0
    3.1361   -9.4764   -2.4163 O   0  0  0  0  0  0  0  0  0  0  0  0
    2.6315  -10.7566   -0.4264 C   0  0  0  0  0  0  0  0  0  0  0  0
    3.0250  -12.0478   -0.7119 C   0  0  0  0  0  0  0  0  0  0  0  0
    2.8503  -13.0221    0.2645 C   0  0  0  0  0  0  0  0  0  0  0  0
    3.3173  -14.6514   -0.0284 Cl  0  0  0  0  0  0  0  0  0  0  0  0
    2.2876  -12.6691    1.4930 C   0  0  0  0  0  0  0  0  0  0  0  0
    2.1085  -13.6155    2.4221 F   0  0  0  0  0  0  0  0  0  0  0  0
    1.9015  -11.3715    1.7923 C   0  0  0  0  0  0  0  0  0  0  0  0
    2.0787  -10.4036    0.8177 C   0  0  0  0  0  0  0  0  0  0  0  0
    1.8141   -8.9652    0.8260 C   0  0  0  0  0  0  0  0  0  0  0  0
    1.6504   -8.2032    1.9558 C   0  0  0  0  0  0  0  0  0  0  0  0
    1.6936   -6.7954    1.9694 C   0  0  0  0  0  0  0  0  0  0  0  0
    1.7739   -5.6529    2.0493 N   0  0  0  0  0  0  0  0  0  0  0  0
    1.5145   -8.7389    3.2523 C   0  0  0  0  0  0  0  0  0  0  0  0
    1.3711   -9.1218    4.3249 N   0  0  0  0  0  0  0  0  0  0  0  0
    0.7826   -6.3090   -0.7451 C   0  0  0  0  0  0  0  0  0  0  0  0
   -0.3885   -6.3744    0.0070 C   0  0  0  0  0  0  0  0  0  0  0  0
   -1.0617   -7.6358    0.4402 C   0  0  0  0  0  0  0  0  0  0  0  0
   -2.5028   -7.7090   -0.0662 C   0  0  0  0  0  0  0  0  0  0  0  0
   -0.9274   -5.1001    0.2121 C   0  0  0  0  0  0  0  0  0  0  0  0
   -2.2768   -4.5343    1.1707 S   0  0  0  0  0  0  0  0  0  0  0  0
   -1.8324   -2.9090    0.7949 C   0  0  0  0  0  0  0  0  0  0  0  0
   -2.2070   -1.6057    1.1395 C   0  0  0  0  0  0  0  0  0  0  0  0
   -3.1654   -1.1500    2.0712 C   0  0  0  0  0  0  0  0  0  0  0  0
   -3.2299    0.2503    2.3613 C   0  0  0  0  0  0  0  0  0  0  0  0
   -4.1264    0.5339    3.2929 N   0  0  0  0  0  0  0  0  0  0  0  0
   -4.8314   -0.8463    3.7615 S   0  0  0  0  0  0  0  0  0  0  0  0
   -4.0190   -1.8584    2.7931 N   0  0  0  0  0  0  0  0  0  0  0  0
   -2.4153    1.1350    1.6212 C   0  0  0  0  0  0  0  0  0  0  0  0
   -2.3723    2.5339    1.6138 C   0  0  0  0  0  0  0  0  0  0  0  0
   -3.1021    3.8656    2.4399 S   0  0  0  0  0  0  0  0  0  0  0  0
   -2.2421    4.9550    1.3687 C   0  0  0  0  0  0  0  0  0  0  0  0
   -2.2197    6.3420    1.2709 C   0  0  0  0  0  0  0  0  0  0  0  0
   -3.0269    7.2321    2.1586 C   0  0  0  0  0  0  0  0  0  0  0  0
   -4.3610    7.5936    1.5005 C   0  0  0  0  0  0  0  0  0  0  0  0
   -1.4038    6.7653    0.2148 C   0  0  0  0  0  0  0  0  0  0  0  0
   -0.6502    5.4139   -0.6311 S   0  0  0  0  0  0  0  0  0  0  0  0
   -1.4334    4.2999    0.4258 C   0  0  0  0  0  0  0  0  0  0  0  0
   -1.5008    2.9107    0.5865 C   0  0  0  0  0  0  0  0  0  0  0  0
   -0.9869    1.7958   -0.0172 N   0  0  0  0  0  0  0  0  0  0  0  0
   -1.5128    0.6826    0.6110 C   0  0  0  0  0  0  0  0  0  0  0  0
   -1.3289   -0.7192    0.4461 C   0  0  0  0  0  0  0  0  0  0  0  0
   -0.4248   -1.4867   -0.2648 N   0  0  0  0  0  0  0  0  0  0  0  0
   -0.7259   -2.8053   -0.0550 C   0  0  0  0  0  0  0  0  0  0  0  0
   -0.1986   -4.0574   -0.3816 C   0  0  0  0  0  0  0  0  0  0  0  0
    1.1418   -4.6652   -1.2729 S   0  0  0  0  0  0  0  0  0  0  0  0
    0.8059   -1.1492   -0.9418 C   0  0  0  0  0  0  0  0  0  0  0  0
    0.6900   -1.3189   -2.4563 C   0  0  0  0  0  0  0  0  0  0  0  0
   -0.2219    1.9454   -1.2338 C   0  0  0  0  0  0  0  0  0  0  0  0
    1.2107    2.4040   -0.9616 C   0  0  0  0  0  0  0  0  0  0  0  0
   -1.2172    8.1062   -0.1510 C   0  0  0  0  0  0  0  0  0  0  0  0
   -0.5140    8.6500   -1.1879 C   0  0  0  0  0  0  0  0  0  0  0  0
    0.2741    7.9932   -2.2251 C   0  0  0  0  0  0  0  0  0  0  0  0
    0.5007    6.8015   -2.3506 O   0  0  0  0  0  0  0  0  0  0  0  0
    0.7631    9.0760   -3.1127 C   0  0  0  0  0  0  0  0  0  0  0  0
    1.5372    8.9918   -4.2541 C   0  0  0  0  0  0  0  0  0  0  0  0
    1.8582   10.1706   -4.9160 C   0  0  0  0  0  0  0  0  0  0  0  0
    1.4156   11.3983   -4.4446 C   0  0  0  0  0  0  0  0  0  0  0  0
    0.6375   11.4857   -3.2964 C   0  0  0  0  0  0  0  0  0  0  0  0
    0.3160   10.3155   -2.6366 C   0  0  0  0  0  0  0  0  0  0  0  0
   -0.4942   10.1089   -1.4106 C   0  0  0  0  0  0  0  0  0  0  0  0
   -1.0361   10.9557   -0.7328 O   0  0  0  0  0  0  0  0  0  0  0  0
    2.1953   -7.1457   -2.0887 H   0  0  0  0  0  0  0  0  0  0  0  0
    3.4571  -12.2924   -1.6690 H   0  0  0  0  0  0  0  0  0  0  0  0
    1.4722  -11.1624    2.7588 H   0  0  0  0  0  0  0  0  0  0  0  0
   -1.0628   -7.6852    1.5340 H   0  0  0  0  0  0  0  0  0  0  0  0
   -0.5106   -8.4966    0.0589 H   0  0  0  0  0  0  0  0  0  0  0  0
   -2.5257   -7.6277   -1.1507 H   0  0  0  0  0  0  0  0  0  0  0  0
   -2.9412   -8.6620    0.2184 H   0  0  0  0  0  0  0  0  0  0  0  0
   -3.1081   -6.9125    0.3565 H   0  0  0  0  0  0  0  0  0  0  0  0
   -2.4739    8.1427    2.3936 H   0  0  0  0  0  0  0  0  0  0  0  0
   -3.2217    6.6985    3.0912 H   0  0  0  0  0  0  0  0  0  0  0  0
   -4.1973    8.1329    0.5704 H   0  0  0  0  0  0  0  0  0  0  0  0
   -4.9292    6.6923    1.2833 H   0  0  0  0  0  0  0  0  0  0  0  0
   -4.9468    8.2203    2.1676 H   0  0  0  0  0  0  0  0  0  0  0  0
    1.5794   -1.8322   -0.5733 H   0  0  0  0  0  0  0  0  0  0  0  0
    1.1007   -0.1396   -0.6717 H   0  0  0  0  0  0  0  0  0  0  0  0
   -0.1524   -0.7608   -2.8595 H   0  0  0  0  0  0  0  0  0  0  0  0
    1.6016   -0.9721   -2.9342 H   0  0  0  0  0  0  0  0  0  0  0  0
    0.5485   -2.3668   -2.7071 H   0  0  0  0  0  0  0  0  0  0  0  0
   -0.2503    1.0129   -1.7909 H   0  0  0  0  0  0  0  0  0  0  0  0
   -0.7173    2.7122   -1.8394 H   0  0  0  0  0  0  0  0  0  0  0  0
    1.2126    3.4273   -0.5972 H   0  0  0  0  0  0  0  0  0  0  0  0
    1.6989    1.7797   -0.2158 H   0  0  0  0  0  0  0  0  0  0  0  0
    1.7861    2.3706   -1.8822 H   0  0  0  0  0  0  0  0  0  0  0  0
   -1.7242    8.8355    0.4738 H   0  0  0  0  0  0  0  0  0  0  0  0
    1.8770    8.0329   -4.6146 H   0  0  0  0  0  0  0  0  0  0  0  0
    2.4606   10.1316   -5.8116 H   0  0  0  0  0  0  0  0  0  0  0  0
    1.6794   12.2989   -4.9792 H   0  0  0  0  0  0  0  0  0  0  0  0
    0.2885   12.4363   -2.9231 H   0  0  0  0  0  0  0  0  0  0  0  0
  1  2  2  0  0  0  0
  2  3  1  0  0  0  0
  3  4  2  0  0  0  0
  3  5  1  0  0  0  0
  5  6  2  0  0  0  0
  6  7  1  0  0  0  0
  7  8  1  0  0  0  0
  7  9  2  0  0  0  0
  9 10  1  0  0  0  0
  9 11  1  0  0  0  0
 11 12  2  0  0  0  0
 12 13  1  0  0  0  0
 13 14  2  0  0  0  0
 14 15  1  0  0  0  0
 15 16  3  0  0  0  0
 14 17  1  0  0  0  0
 17 18  3  0  0  0  0
  1 19  1  0  0  0  0
 19 20  2  0  0  0  0
 20 21  1  0  0  0  0
 21 22  1  0  0  0  0
 20 23  1  0  0  0  0
 23 24  1  0  0  0  0
 24 25  1  0  0  0  0
 25 26  1  0  0  0  0
 26 27  1  0  0  0  0
 27 28  1  0  0  0  0
 28 29  2  0  0  0  0
 29 30  1  0  0  0  0
 30 31  1  0  0  0  0
 28 32  1  0  0  0  0
 32 33  1  0  0  0  0
 33 34  1  0  0  0  0
 34 35  1  0  0  0  0
 35 36  1  0  0  0  0
 36 37  1  0  0  0  0
 37 38  1  0  0  0  0
 36 39  2  0  0  0  0
 39 40  1  0  0  0  0
 40 41  1  0  0  0  0
 41 42  1  0  0  0  0
 42 43  1  0  0  0  0
 43 44  1  0  0  0  0
 44 45  1  0  0  0  0
 45 46  1  0  0  0  0
 46 47  1  0  0  0  0
 47 48  1  0  0  0  0
 48 49  1  0  0  0  0
 46 50  1  0  0  0  0
 50 51  1  0  0  0  0
 43 52  1  0  0  0  0
 52 53  1  0  0  0  0
 39 54  1  0  0  0  0
 54 55  2  0  0  0  0
 55 56  1  0  0  0  0
 56 57  2  0  0  0  0
 56 58  1  0  0  0  0
 58 59  2  0  0  0  0
 59 60  1  0  0  0  0
 60 61  2  0  0  0  0
 61 62  1  0  0  0  0
 62 63  2  0  0  0  0
 63 64  1  0  0  0  0
 64 65  2  0  0  0  0
 13  2  1  0  0  0  0
 49 19  1  0  0  0  0
 64 55  1  0  0  0  0
 12  5  1  0  0  0  0
 48 23  2  0  0  0  0
 63 58  1  0  0  0  0
 47 25  2  0  0  0  0
 45 26  2  0  0  0  0
 31 27  2  0  0  0  0
 44 32  2  0  0  0  0
 42 33  2  0  0  0  0
 41 35  2  0  0  0  0
  1 66  1  0  0  0  0
  6 67  1  0  0  0  0
 11 68  1  0  0  0  0
 21 69  1  0  0  0  0
 21 70  1  0  0  0  0
 22 71  1  0  0  0  0
 22 72  1  0  0  0  0
 22 73  1  0  0  0  0
 37 74  1  0  0  0  0
 37 75  1  0  0  0  0
 38 76  1  0  0  0  0
 38 77  1  0  0  0  0
 38 78  1  0  0  0  0
 50 79  1  0  0  0  0
 50 80  1  0  0  0  0
 51 81  1  0  0  0  0
 51 82  1  0  0  0  0
 51 83  1  0  0  0  0
 52 84  1  0  0  0  0
 52 85  1  0  0  0  0
 53 86  1  0  0  0  0
 53 87  1  0  0  0  0
 53 88  1  0  0  0  0
 54 89  1  0  0  0  0
 59 90  1  0  0  0  0
 60 91  1  0  0  0  0
 61 92  1  0  0  0  0
 62 93  1  0  0  0  0
M  END
