
  xtb     02012217373D
 energy: -186.834842800664 gnorm: 0.000426433497 xtb: 6.4.1 (unknown)
 97108  0     0  0            999 V2000
    1.5423    3.1954    7.1196 C   0  0  0  0  0  0  0  0  0  0  0  0
    2.6646    2.5673    7.6113 C   0  0  0  0  0  0  0  0  0  0  0  0
    3.3472    1.4223    7.0109 C   0  0  0  0  0  0  0  0  0  0  0  0
    3.0840    0.8544    5.9651 O   0  0  0  0  0  0  0  0  0  0  0  0
    4.4467    1.0724    7.9347 C   0  0  0  0  0  0  0  0  0  0  0  0
    5.3665    0.0506    7.8234 C   0  0  0  0  0  0  0  0  0  0  0  0
    6.3187   -0.0893    8.8263 C   0  0  0  0  0  0  0  0  0  0  0  0
    7.4932   -1.3437    8.7534 Cl  0  0  0  0  0  0  0  0  0  0  0  0
    6.3144    0.8014    9.9016 C   0  0  0  0  0  0  0  0  0  0  0  0
    7.2338    0.6615   10.8641 F   0  0  0  0  0  0  0  0  0  0  0  0
    5.3926    1.8310   10.0180 C   0  0  0  0  0  0  0  0  0  0  0  0
    4.4427    1.9671    9.0183 C   0  0  0  0  0  0  0  0  0  0  0  0
    3.3470    2.9198    8.8394 C   0  0  0  0  0  0  0  0  0  0  0  0
    3.0564    3.9526    9.6946 C   0  0  0  0  0  0  0  0  0  0  0  0
    3.7812    4.2285   10.8734 C   0  0  0  0  0  0  0  0  0  0  0  0
    4.3243    4.5082   11.8451 N   0  0  0  0  0  0  0  0  0  0  0  0
    2.0142    4.8892    9.5352 C   0  0  0  0  0  0  0  0  0  0  0  0
    1.1910    5.6891    9.4784 N   0  0  0  0  0  0  0  0  0  0  0  0
    0.7898    2.9598    5.9685 C   0  0  0  0  0  0  0  0  0  0  0  0
   -0.3755    3.6862    5.6536 C   0  0  0  0  0  0  0  0  0  0  0  0
   -0.9923    4.7521    6.4982 C   0  0  0  0  0  0  0  0  0  0  0  0
   -1.8627    4.1403    7.5996 C   0  0  0  0  0  0  0  0  0  0  0  0
   -0.9336    3.2524    4.4610 C   0  0  0  0  0  0  0  0  0  0  0  0
   -2.3616    3.7556    3.5745 S   0  0  0  0  0  0  0  0  0  0  0  0
   -1.9798    2.5860    2.3599 C   0  0  0  0  0  0  0  0  0  0  0  0
   -2.4488    2.1679    1.1091 C   0  0  0  0  0  0  0  0  0  0  0  0
   -3.4867    2.6705    0.2928 C   0  0  0  0  0  0  0  0  0  0  0  0
   -3.6338    2.1521   -1.0353 C   0  0  0  0  0  0  0  0  0  0  0  0
   -4.5977    2.7576   -1.7105 N   0  0  0  0  0  0  0  0  0  0  0  0
   -5.2675    3.8792   -0.7551 S   0  0  0  0  0  0  0  0  0  0  0  0
   -4.3507    3.6376    0.5569 N   0  0  0  0  0  0  0  0  0  0  0  0
   -2.8172    1.0729   -1.4418 C   0  0  0  0  0  0  0  0  0  0  0  0
   -2.8176    0.3131   -2.6187 C   0  0  0  0  0  0  0  0  0  0  0  0
   -3.6241    0.2693   -4.1472 S   0  0  0  0  0  0  0  0  0  0  0  0
   -2.6965   -1.1623   -4.5573 C   0  0  0  0  0  0  0  0  0  0  0  0
   -2.6685   -1.9634   -5.6896 C   0  0  0  0  0  0  0  0  0  0  0  0
   -3.5008   -1.6851   -6.8980 C   0  0  0  0  0  0  0  0  0  0  0  0
   -2.7156   -0.8610   -7.9225 C   0  0  0  0  0  0  0  0  0  0  0  0
   -1.7275   -3.0021   -5.5591 C   0  0  0  0  0  0  0  0  0  0  0  0
   -0.9084   -2.9651   -3.9951 S   0  0  0  0  0  0  0  0  0  0  0  0
   -1.8115   -1.5702   -3.5427 C   0  0  0  0  0  0  0  0  0  0  0  0
   -1.8861   -0.7169   -2.4392 C   0  0  0  0  0  0  0  0  0  0  0  0
   -1.2909   -0.6083   -1.2082 N   0  0  0  0  0  0  0  0  0  0  0  0
   -1.8386    0.4977   -0.5780 C   0  0  0  0  0  0  0  0  0  0  0  0
   -1.5718    1.1330    0.6627 C   0  0  0  0  0  0  0  0  0  0  0  0
   -0.5765    0.9727    1.6045 N   0  0  0  0  0  0  0  0  0  0  0  0
   -0.8242    1.8411    2.6334 C   0  0  0  0  0  0  0  0  0  0  0  0
   -0.2147    2.2183    3.8316 C   0  0  0  0  0  0  0  0  0  0  0  0
    1.1681    1.7468    4.7428 S   0  0  0  0  0  0  0  0  0  0  0  0
    0.7158    0.3314    1.5100 C   0  0  0  0  0  0  0  0  0  0  0  0
    0.8126   -0.9086    2.3973 C   0  0  0  0  0  0  0  0  0  0  0  0
   -0.7127   -1.8048   -0.6312 C   0  0  0  0  0  0  0  0  0  0  0  0
   -1.7655   -2.5955    0.1427 C   0  0  0  0  0  0  0  0  0  0  0  0
   -1.4783   -3.9301   -6.5725 C   0  0  0  0  0  0  0  0  0  0  0  0
   -0.5742   -4.9639   -6.6493 C   0  0  0  0  0  0  0  0  0  0  0  0
    0.3851   -5.3517   -5.6155 C   0  0  0  0  0  0  0  0  0  0  0  0
    0.5245   -4.8712   -4.5038 O   0  0  0  0  0  0  0  0  0  0  0  0
    1.1681   -6.4682   -6.1831 C   0  0  0  0  0  0  0  0  0  0  0  0
    2.2081   -7.1669   -5.6057 C   0  0  0  0  0  0  0  0  0  0  0  0
    2.7792   -8.1766   -6.3661 C   0  0  0  0  0  0  0  0  0  0  0  0
    3.7972   -8.8840   -5.8482 F   0  0  0  0  0  0  0  0  0  0  0  0
    2.3382   -8.4832   -7.6444 C   0  0  0  0  0  0  0  0  0  0  0  0
    1.2902   -7.7725   -8.2109 C   0  0  0  0  0  0  0  0  0  0  0  0
    0.6983   -6.7552   -7.4766 C   0  0  0  0  0  0  0  0  0  0  0  0
   -0.3992   -5.8392   -7.7911 C   0  0  0  0  0  0  0  0  0  0  0  0
   -1.1144   -5.8403   -8.9617 C   0  0  0  0  0  0  0  0  0  0  0  0
   -0.8846   -6.7339  -10.0291 C   0  0  0  0  0  0  0  0  0  0  0  0
   -0.7510   -7.4256  -10.9355 N   0  0  0  0  0  0  0  0  0  0  0  0
   -2.1775   -4.9708   -9.2821 C   0  0  0  0  0  0  0  0  0  0  0  0
   -3.0516   -4.3050   -9.6190 N   0  0  0  0  0  0  0  0  0  0  0  0
    1.1571    4.0063    7.7222 H   0  0  0  0  0  0  0  0  0  0  0  0
    5.3441   -0.6209    6.9801 H   0  0  0  0  0  0  0  0  0  0  0  0
    5.4467    2.4818   10.8752 H   0  0  0  0  0  0  0  0  0  0  0  0
   -0.2280    5.3857    6.9506 H   0  0  0  0  0  0  0  0  0  0  0  0
   -1.6176    5.3758    5.8564 H   0  0  0  0  0  0  0  0  0  0  0  0
   -1.2692    3.5036    8.2516 H   0  0  0  0  0  0  0  0  0  0  0  0
   -2.6606    3.5438    7.1635 H   0  0  0  0  0  0  0  0  0  0  0  0
   -2.3047    4.9306    8.1993 H   0  0  0  0  0  0  0  0  0  0  0  0
   -4.3784   -1.1170   -6.5832 H   0  0  0  0  0  0  0  0  0  0  0  0
   -3.8417   -2.6112   -7.3628 H   0  0  0  0  0  0  0  0  0  0  0  0
   -1.8309   -1.3994   -8.2542 H   0  0  0  0  0  0  0  0  0  0  0  0
   -2.4040    0.0858   -7.4876 H   0  0  0  0  0  0  0  0  0  0  0  0
   -3.3403   -0.6599   -8.7878 H   0  0  0  0  0  0  0  0  0  0  0  0
    0.9230    0.1124    0.4618 H   0  0  0  0  0  0  0  0  0  0  0  0
    1.4653    1.0555    1.8476 H   0  0  0  0  0  0  0  0  0  0  0  0
    0.7927   -0.6171    3.4438 H   0  0  0  0  0  0  0  0  0  0  0  0
    1.7507   -1.4226    2.2081 H   0  0  0  0  0  0  0  0  0  0  0  0
   -0.0108   -1.5946    2.2178 H   0  0  0  0  0  0  0  0  0  0  0  0
    0.1272   -1.5689    0.0135 H   0  0  0  0  0  0  0  0  0  0  0  0
   -0.3395   -2.4056   -1.4642 H   0  0  0  0  0  0  0  0  0  0  0  0
   -1.3221   -3.4991    0.5513 H   0  0  0  0  0  0  0  0  0  0  0  0
   -2.1708   -1.9993    0.9583 H   0  0  0  0  0  0  0  0  0  0  0  0
   -2.5840   -2.8787   -0.5149 H   0  0  0  0  0  0  0  0  0  0  0  0
   -2.1002   -3.7845   -7.4449 H   0  0  0  0  0  0  0  0  0  0  0  0
    2.5610   -6.9383   -4.6128 H   0  0  0  0  0  0  0  0  0  0  0  0
    2.8206   -9.2788   -8.1900 H   0  0  0  0  0  0  0  0  0  0  0  0
    0.9585   -8.0208   -9.2053 H   0  0  0  0  0  0  0  0  0  0  0  0
  1  2  2  0  0  0  0
  2  3  1  0  0  0  0
  3  4  2  0  0  0  0
  3  5  1  0  0  0  0
  5  6  2  0  0  0  0
  6  7  1  0  0  0  0
  7  8  1  0  0  0  0
  7  9  2  0  0  0  0
  9 10  1  0  0  0  0
  9 11  1  0  0  0  0
 11 12  2  0  0  0  0
 12 13  1  0  0  0  0
 13 14  2  0  0  0  0
 14 15  1  0  0  0  0
 15 16  3  0  0  0  0
 14 17  1  0  0  0  0
 17 18  3  0  0  0  0
  1 19  1  0  0  0  0
 19 20  2  0  0  0  0
 20 21  1  0  0  0  0
 21 22  1  0  0  0  0
 20 23  1  0  0  0  0
 23 24  1  0  0  0  0
 24 25  1  0  0  0  0
 25 26  1  0  0  0  0
 26 27  1  0  0  0  0
 27 28  1  0  0  0  0
 28 29  2  0  0  0  0
 29 30  1  0  0  0  0
 30 31  1  0  0  0  0
 28 32  1  0  0  0  0
 32 33  1  0  0  0  0
 33 34  1  0  0  0  0
 34 35  1  0  0  0  0
 35 36  1  0  0  0  0
 36 37  1  0  0  0  0
 37 38  1  0  0  0  0
 36 39  2  0  0  0  0
 39 40  1  0  0  0  0
 40 41  1  0  0  0  0
 41 42  1  0  0  0  0
 42 43  1  0  0  0  0
 43 44  1  0  0  0  0
 44 45  1  0  0  0  0
 45 46  1  0  0  0  0
 46 47  1  0  0  0  0
 47 48  1  0  0  0  0
 48 49  1  0  0  0  0
 46 50  1  0  0  0  0
 50 51  1  0  0  0  0
 43 52  1  0  0  0  0
 52 53  1  0  0  0  0
 39 54  1  0  0  0  0
 54 55  2  0  0  0  0
 55 56  1  0  0  0  0
 56 57  2  0  0  0  0
 56 58  1  0  0  0  0
 58 59  2  0  0  0  0
 59 60  1  0  0  0  0
 60 61  1  0  0  0  0
 60 62  2  0  0  0  0
 62 63  1  0  0  0  0
 63 64  2  0  0  0  0
 64 65  1  0  0  0  0
 65 66  2  0  0  0  0
 66 67  1  0  0  0  0
 67 68  3  0  0  0  0
 66 69  1  0  0  0  0
 69 70  3  0  0  0  0
 13  2  1  0  0  0  0
 49 19  1  0  0  0  0
 65 55  1  0  0  0  0
 12  5  1  0  0  0  0
 48 23  2  0  0  0  0
 64 58  1  0  0  0  0
 47 25  2  0  0  0  0
 45 26  2  0  0  0  0
 31 27  2  0  0  0  0
 44 32  2  0  0  0  0
 42 33  2  0  0  0  0
 41 35  2  0  0  0  0
  1 71  1  0  0  0  0
  6 72  1  0  0  0  0
 11 73  1  0  0  0  0
 21 74  1  0  0  0  0
 21 75  1  0  0  0  0
 22 76  1  0  0  0  0
 22 77  1  0  0  0  0
 22 78  1  0  0  0  0
 37 79  1  0  0  0  0
 37 80  1  0  0  0  0
 38 81  1  0  0  0  0
 38 82  1  0  0  0  0
 38 83  1  0  0  0  0
 50 84  1  0  0  0  0
 50 85  1  0  0  0  0
 51 86  1  0  0  0  0
 51 87  1  0  0  0  0
 51 88  1  0  0  0  0
 52 89  1  0  0  0  0
 52 90  1  0  0  0  0
 53 91  1  0  0  0  0
 53 92  1  0  0  0  0
 53 93  1  0  0  0  0
 54 94  1  0  0  0  0
 59 95  1  0  0  0  0
 62 96  1  0  0  0  0
 63 97  1  0  0  0  0
M  END
