
  xtb     02022201393D
 energy: -180.522435760971 gnorm: 0.000566679297 xtb: 6.4.1 (unknown)
 94105  0     0  0            999 V2000
    3.6211   -1.6697   -7.4115 C   0  0  0  0  0  0  0  0  0  0  0  0
    2.7096   -1.1436   -8.2838 C   0  0  0  0  0  0  0  0  0  0  0  0
    2.5780   -1.7194   -9.6432 C   0  0  0  0  0  0  0  0  0  0  0  0
    3.3409   -2.4799  -10.1932 O   0  0  0  0  0  0  0  0  0  0  0  0
    1.2803   -1.2098  -10.1495 C   0  0  0  0  0  0  0  0  0  0  0  0
    0.6253   -1.5318  -11.3204 C   0  0  0  0  0  0  0  0  0  0  0  0
   -0.6093   -0.9428  -11.5694 C   0  0  0  0  0  0  0  0  0  0  0  0
   -1.4795   -1.3051  -13.0083 Cl  0  0  0  0  0  0  0  0  0  0  0  0
   -1.1449   -0.0500  -10.6384 C   0  0  0  0  0  0  0  0  0  0  0  0
   -2.3408    0.5013  -10.8793 F   0  0  0  0  0  0  0  0  0  0  0  0
   -0.4876    0.2895   -9.4659 C   0  0  0  0  0  0  0  0  0  0  0  0
    0.7406   -0.3011   -9.2211 C   0  0  0  0  0  0  0  0  0  0  0  0
    1.6903   -0.1334   -8.1236 C   0  0  0  0  0  0  0  0  0  0  0  0
    1.7499    0.9528   -7.2876 C   0  0  0  0  0  0  0  0  0  0  0  0
    0.7450    1.9346   -7.1981 C   0  0  0  0  0  0  0  0  0  0  0  0
   -0.0615    2.7397   -7.0577 N   0  0  0  0  0  0  0  0  0  0  0  0
    2.8718    1.2409   -6.4825 C   0  0  0  0  0  0  0  0  0  0  0  0
    3.7896    1.5362   -5.8592 N   0  0  0  0  0  0  0  0  0  0  0  0
    3.6315   -1.6222   -6.0056 C   0  0  0  0  0  0  0  0  0  0  0  0
    4.6953   -1.9539   -5.1699 C   0  0  0  0  0  0  0  0  0  0  0  0
    6.0535   -2.3675   -5.6309 C   0  0  0  0  0  0  0  0  0  0  0  0
    6.1285   -3.8901   -5.7767 C   0  0  0  0  0  0  0  0  0  0  0  0
    4.3384   -1.8565   -3.8243 C   0  0  0  0  0  0  0  0  0  0  0  0
    5.2390   -2.0968   -2.3436 S   0  0  0  0  0  0  0  0  0  0  0  0
    3.8287   -1.6619   -1.4458 C   0  0  0  0  0  0  0  0  0  0  0  0
    3.4393   -1.4567   -0.1163 C   0  0  0  0  0  0  0  0  0  0  0  0
    4.1915   -1.5157    1.0773 C   0  0  0  0  0  0  0  0  0  0  0  0
    3.5688   -1.1230    2.3053 C   0  0  0  0  0  0  0  0  0  0  0  0
    4.4002   -1.1771    3.3342 N   0  0  0  0  0  0  0  0  0  0  0  0
    5.8416   -1.6842    2.8019 S   0  0  0  0  0  0  0  0  0  0  0  0
    5.4617   -1.8528    1.2378 N   0  0  0  0  0  0  0  0  0  0  0  0
    2.1992   -0.7800    2.2939 C   0  0  0  0  0  0  0  0  0  0  0  0
    1.3359   -0.4416    3.3447 C   0  0  0  0  0  0  0  0  0  0  0  0
    1.3875   -0.1751    5.0506 S   0  0  0  0  0  0  0  0  0  0  0  0
   -0.3362    0.1314    5.0401 C   0  0  0  0  0  0  0  0  0  0  0  0
   -1.2609    0.4267    6.0559 C   0  0  0  0  0  0  0  0  0  0  0  0
   -0.8938    0.7214    7.4711 C   0  0  0  0  0  0  0  0  0  0  0  0
    0.2939    1.6740    7.5890 C   0  0  0  0  0  0  0  0  0  0  0  0
   -2.5466    0.5281    5.5414 C   0  0  0  0  0  0  0  0  0  0  0  0
   -2.5901    0.3369    3.7885 S   0  0  0  0  0  0  0  0  0  0  0  0
   -0.8967    0.0263    3.7601 C   0  0  0  0  0  0  0  0  0  0  0  0
    0.0603   -0.2967    2.7919 C   0  0  0  0  0  0  0  0  0  0  0  0
    0.1064   -0.5080    1.4409 N   0  0  0  0  0  0  0  0  0  0  0  0
    1.4183   -0.7987    1.1003 C   0  0  0  0  0  0  0  0  0  0  0  0
    2.0706   -1.0533   -0.1364 C   0  0  0  0  0  0  0  0  0  0  0  0
    1.6555   -1.0046   -1.4577 N   0  0  0  0  0  0  0  0  0  0  0  0
    2.7180   -1.3608   -2.2439 C   0  0  0  0  0  0  0  0  0  0  0  0
    3.0069   -1.4721   -3.6041 C   0  0  0  0  0  0  0  0  0  0  0  0
    2.1708   -1.2370   -5.0911 S   0  0  0  0  0  0  0  0  0  0  0  0
    0.5303   -0.3315   -2.0693 C   0  0  0  0  0  0  0  0  0  0  0  0
    0.5622    1.1703   -1.7991 C   0  0  0  0  0  0  0  0  0  0  0  0
   -1.1246   -0.7343    0.7174 C   0  0  0  0  0  0  0  0  0  0  0  0
   -1.2842   -2.2030    0.3318 C   0  0  0  0  0  0  0  0  0  0  0  0
   -3.7837    0.8231    6.1620 C   0  0  0  0  0  0  0  0  0  0  0  0
   -4.2051    0.4234    7.3954 C   0  0  0  0  0  0  0  0  0  0  0  0
   -3.6255   -0.6999    8.1873 C   0  0  0  0  0  0  0  0  0  0  0  0
   -2.6723   -1.3903    7.8981 O   0  0  0  0  0  0  0  0  0  0  0  0
   -4.5367   -0.8649    9.3302 C   0  0  0  0  0  0  0  0  0  0  0  0
   -4.6528   -1.6905   10.4603 C   0  0  0  0  0  0  0  0  0  0  0  0
   -5.7655   -1.3741   11.1833 C   0  0  0  0  0  0  0  0  0  0  0  0
   -6.6945   -0.0839   10.5107 S   0  0  0  0  0  0  0  0  0  0  0  0
   -5.5727    0.0514    9.2216 C   0  0  0  0  0  0  0  0  0  0  0  0
   -5.4263    0.8715    8.0518 C   0  0  0  0  0  0  0  0  0  0  0  0
   -6.2685    1.8932    7.6943 C   0  0  0  0  0  0  0  0  0  0  0  0
   -7.4075    2.1901    8.4718 C   0  0  0  0  0  0  0  0  0  0  0  0
   -8.3368    2.4318    9.1000 N   0  0  0  0  0  0  0  0  0  0  0  0
   -6.1059    2.7347    6.5779 C   0  0  0  0  0  0  0  0  0  0  0  0
   -6.0208    3.4584    5.6902 N   0  0  0  0  0  0  0  0  0  0  0  0
    4.3852   -2.2879   -7.8713 H   0  0  0  0  0  0  0  0  0  0  0  0
    1.0624   -2.2229  -12.0233 H   0  0  0  0  0  0  0  0  0  0  0  0
   -0.9512    0.9848   -8.7847 H   0  0  0  0  0  0  0  0  0  0  0  0
    6.2923   -1.8898   -6.5810 H   0  0  0  0  0  0  0  0  0  0  0  0
    6.7842   -2.0429   -4.8879 H   0  0  0  0  0  0  0  0  0  0  0  0
    5.9171   -4.3714   -4.8248 H   0  0  0  0  0  0  0  0  0  0  0  0
    5.4079   -4.2433   -6.5108 H   0  0  0  0  0  0  0  0  0  0  0  0
    7.1239   -4.1824   -6.0994 H   0  0  0  0  0  0  0  0  0  0  0  0
   -0.6635   -0.2231    7.9724 H   0  0  0  0  0  0  0  0  0  0  0  0
   -1.7574    1.1579    7.9768 H   0  0  0  0  0  0  0  0  0  0  0  0
    0.4465    1.9353    8.6330 H   0  0  0  0  0  0  0  0  0  0  0  0
    1.2059    1.2177    7.2157 H   0  0  0  0  0  0  0  0  0  0  0  0
    0.1064    2.5877    7.0288 H   0  0  0  0  0  0  0  0  0  0  0  0
   -0.4081   -0.7823   -1.7490 H   0  0  0  0  0  0  0  0  0  0  0  0
    0.6150   -0.5029   -3.1453 H   0  0  0  0  0  0  0  0  0  0  0  0
   -0.2915    1.6495   -2.2702 H   0  0  0  0  0  0  0  0  0  0  0  0
    0.5422    1.3803   -0.7321 H   0  0  0  0  0  0  0  0  0  0  0  0
    1.4703    1.6017   -2.2140 H   0  0  0  0  0  0  0  0  0  0  0  0
   -1.9367   -0.4512    1.3914 H   0  0  0  0  0  0  0  0  0  0  0  0
   -1.1878   -0.0769   -0.1496 H   0  0  0  0  0  0  0  0  0  0  0  0
   -0.4511   -2.5453   -0.2777 H   0  0  0  0  0  0  0  0  0  0  0  0
   -2.2082   -2.3421   -0.2228 H   0  0  0  0  0  0  0  0  0  0  0  0
   -1.3229   -2.8188    1.2274 H   0  0  0  0  0  0  0  0  0  0  0  0
   -4.4753    1.3921    5.5502 H   0  0  0  0  0  0  0  0  0  0  0  0
   -3.9568   -2.4646   10.7253 H   0  0  0  0  0  0  0  0  0  0  0  0
   -6.1052   -1.8294   12.0932 H   0  0  0  0  0  0  0  0  0  0  0  0
  1  2  2  0  0  0  0
  2  3  1  0  0  0  0
  3  4  2  0  0  0  0
  3  5  1  0  0  0  0
  5  6  2  0  0  0  0
  6  7  1  0  0  0  0
  7  8  1  0  0  0  0
  7  9  2  0  0  0  0
  9 10  1  0  0  0  0
  9 11  1  0  0  0  0
 11 12  2  0  0  0  0
 12 13  1  0  0  0  0
 13 14  2  0  0  0  0
 14 15  1  0  0  0  0
 15 16  3  0  0  0  0
 14 17  1  0  0  0  0
 17 18  3  0  0  0  0
  1 19  1  0  0  0  0
 19 20  2  0  0  0  0
 20 21  1  0  0  0  0
 21 22  1  0  0  0  0
 20 23  1  0  0  0  0
 23 24  1  0  0  0  0
 24 25  1  0  0  0  0
 25 26  1  0  0  0  0
 26 27  1  0  0  0  0
 27 28  1  0  0  0  0
 28 29  2  0  0  0  0
 29 30  1  0  0  0  0
 30 31  1  0  0  0  0
 28 32  1  0  0  0  0
 32 33  1  0  0  0  0
 33 34  1  0  0  0  0
 34 35  1  0  0  0  0
 35 36  1  0  0  0  0
 36 37  1  0  0  0  0
 37 38  1  0  0  0  0
 36 39  2  0  0  0  0
 39 40  1  0  0  0  0
 40 41  1  0  0  0  0
 41 42  1  0  0  0  0
 42 43  1  0  0  0  0
 43 44  1  0  0  0  0
 44 45  1  0  0  0  0
 45 46  1  0  0  0  0
 46 47  1  0  0  0  0
 47 48  1  0  0  0  0
 48 49  1  0  0  0  0
 46 50  1  0  0  0  0
 50 51  1  0  0  0  0
 43 52  1  0  0  0  0
 52 53  1  0  0  0  0
 39 54  1  0  0  0  0
 54 55  2  0  0  0  0
 55 56  1  0  0  0  0
 56 57  2  0  0  0  0
 56 58  1  0  0  0  0
 58 59  1  0  0  0  0
 59 60  2  0  0  0  0
 60 61  1  0  0  0  0
 61 62  1  0  0  0  0
 62 63  1  0  0  0  0
 63 64  2  0  0  0  0
 64 65  1  0  0  0  0
 65 66  3  0  0  0  0
 64 67  1  0  0  0  0
 67 68  3  0  0  0  0
 13  2  1  0  0  0  0
 49 19  1  0  0  0  0
 63 55  1  0  0  0  0
 12  5  1  0  0  0  0
 48 23  2  0  0  0  0
 62 58  2  0  0  0  0
 47 25  2  0  0  0  0
 45 26  2  0  0  0  0
 31 27  2  0  0  0  0
 44 32  2  0  0  0  0
 42 33  2  0  0  0  0
 41 35  2  0  0  0  0
  1 69  1  0  0  0  0
  6 70  1  0  0  0  0
 11 71  1  0  0  0  0
 21 72  1  0  0  0  0
 21 73  1  0  0  0  0
 22 74  1  0  0  0  0
 22 75  1  0  0  0  0
 22 76  1  0  0  0  0
 37 77  1  0  0  0  0
 37 78  1  0  0  0  0
 38 79  1  0  0  0  0
 38 80  1  0  0  0  0
 38 81  1  0  0  0  0
 50 82  1  0  0  0  0
 50 83  1  0  0  0  0
 51 84  1  0  0  0  0
 51 85  1  0  0  0  0
 51 86  1  0  0  0  0
 52 87  1  0  0  0  0
 52 88  1  0  0  0  0
 53 89  1  0  0  0  0
 53 90  1  0  0  0  0
 53 91  1  0  0  0  0
 54 92  1  0  0  0  0
 59 93  1  0  0  0  0
 60 94  1  0  0  0  0
M  END
