
  xtb     02012220373D
 energy: -182.554383347908 gnorm: 0.000248634319 xtb: 6.4.1 (unknown)
 93104  0     0  0            999 V2000
    5.0209    3.2701   -3.7201 C   0  0  0  0  0  0  0  0  0  0  0  0
    4.9690    3.1996   -5.0881 C   0  0  0  0  0  0  0  0  0  0  0  0
    4.1499    2.2175   -5.8311 C   0  0  0  0  0  0  0  0  0  0  0  0
    3.5847    1.2336   -5.4053 O   0  0  0  0  0  0  0  0  0  0  0  0
    4.0556    2.7565   -7.2080 C   0  0  0  0  0  0  0  0  0  0  0  0
    3.3484    2.2423   -8.2752 C   0  0  0  0  0  0  0  0  0  0  0  0
    3.3826    2.9317   -9.4817 C   0  0  0  0  0  0  0  0  0  0  0  0
    2.5238    2.3457  -10.8516 Cl  0  0  0  0  0  0  0  0  0  0  0  0
    4.1210    4.1137   -9.5745 C   0  0  0  0  0  0  0  0  0  0  0  0
    4.1416    4.7765  -10.7371 F   0  0  0  0  0  0  0  0  0  0  0  0
    4.8332    4.6366   -8.5060 C   0  0  0  0  0  0  0  0  0  0  0  0
    4.7981    3.9456   -7.3053 C   0  0  0  0  0  0  0  0  0  0  0  0
    5.4127    4.2218   -6.0105 C   0  0  0  0  0  0  0  0  0  0  0  0
    6.3111    5.2199   -5.7376 C   0  0  0  0  0  0  0  0  0  0  0  0
    6.7275    6.1840   -6.6784 C   0  0  0  0  0  0  0  0  0  0  0  0
    7.0926    6.9951   -7.4037 N   0  0  0  0  0  0  0  0  0  0  0  0
    6.9576    5.3803   -4.4938 C   0  0  0  0  0  0  0  0  0  0  0  0
    7.5324    5.5466   -3.5140 N   0  0  0  0  0  0  0  0  0  0  0  0
    4.6606    2.2350   -2.8344 C   0  0  0  0  0  0  0  0  0  0  0  0
    4.8453    0.8587   -2.9195 C   0  0  0  0  0  0  0  0  0  0  0  0
    5.7087    0.1751   -3.9246 C   0  0  0  0  0  0  0  0  0  0  0  0
    6.7927   -0.6723   -3.2591 C   0  0  0  0  0  0  0  0  0  0  0  0
    4.2057    0.2018   -1.8611 C   0  0  0  0  0  0  0  0  0  0  0  0
    3.9521   -1.4910   -1.4965 S   0  0  0  0  0  0  0  0  0  0  0  0
    2.9036   -1.0387   -0.2003 C   0  0  0  0  0  0  0  0  0  0  0  0
    2.0389   -1.6421    0.7277 C   0  0  0  0  0  0  0  0  0  0  0  0
    1.7818   -2.9920    1.0570 C   0  0  0  0  0  0  0  0  0  0  0  0
    0.7793   -3.2905    2.0425 C   0  0  0  0  0  0  0  0  0  0  0  0
    0.6709   -4.5889    2.2732 N   0  0  0  0  0  0  0  0  0  0  0  0
    1.7323   -5.3700    1.3342 S   0  0  0  0  0  0  0  0  0  0  0  0
    2.3711   -4.0817    0.5917 N   0  0  0  0  0  0  0  0  0  0  0  0
   -0.0124   -2.2369    2.5549 C   0  0  0  0  0  0  0  0  0  0  0  0
   -1.2260   -2.2438    3.2592 C   0  0  0  0  0  0  0  0  0  0  0  0
   -2.3417   -3.3832    3.9254 S   0  0  0  0  0  0  0  0  0  0  0  0
   -3.4842   -2.0848    4.1937 C   0  0  0  0  0  0  0  0  0  0  0  0
   -4.8268   -2.0686    4.6065 C   0  0  0  0  0  0  0  0  0  0  0  0
   -5.5570   -3.2518    5.1443 C   0  0  0  0  0  0  0  0  0  0  0  0
   -4.7621   -3.9819    6.2254 C   0  0  0  0  0  0  0  0  0  0  0  0
   -5.3500   -0.7858    4.5410 C   0  0  0  0  0  0  0  0  0  0  0  0
   -4.1455    0.4125    4.0656 S   0  0  0  0  0  0  0  0  0  0  0  0
   -2.9790   -0.8318    3.8230 C   0  0  0  0  0  0  0  0  0  0  0  0
   -1.6885   -0.9226    3.2915 C   0  0  0  0  0  0  0  0  0  0  0  0
   -0.7901   -0.0976    2.6699 N   0  0  0  0  0  0  0  0  0  0  0  0
    0.2481   -0.8817    2.2079 C   0  0  0  0  0  0  0  0  0  0  0  0
    1.3715   -0.5820    1.4007 C   0  0  0  0  0  0  0  0  0  0  0  0
    1.8862    0.6270    0.9656 N   0  0  0  0  0  0  0  0  0  0  0  0
    2.7897    0.3470   -0.0297 C   0  0  0  0  0  0  0  0  0  0  0  0
    3.5405    1.0559   -0.9680 C   0  0  0  0  0  0  0  0  0  0  0  0
    3.7835    2.7104   -1.3755 S   0  0  0  0  0  0  0  0  0  0  0  0
    1.9992    1.8544    1.7261 C   0  0  0  0  0  0  0  0  0  0  0  0
    3.4055    2.0244    2.3001 C   0  0  0  0  0  0  0  0  0  0  0  0
   -1.1671    1.2519    2.3127 C   0  0  0  0  0  0  0  0  0  0  0  0
   -1.1101    2.1984    3.5108 C   0  0  0  0  0  0  0  0  0  0  0  0
   -6.6628   -0.3022    4.7547 C   0  0  0  0  0  0  0  0  0  0  0  0
   -7.8304   -0.9031    4.3945 C   0  0  0  0  0  0  0  0  0  0  0  0
   -8.0281   -2.0375    3.4777 C   0  0  0  0  0  0  0  0  0  0  0  0
   -7.1886   -2.7107    2.9193 O   0  0  0  0  0  0  0  0  0  0  0  0
   -9.4992   -2.1274    3.2750 C   0  0  0  0  0  0  0  0  0  0  0  0
  -10.2120   -3.0134    2.4917 C   0  0  0  0  0  0  0  0  0  0  0  0
  -11.5957   -2.8826    2.4441 C   0  0  0  0  0  0  0  0  0  0  0  0
  -12.5142   -3.9702    1.4820 Cl  0  0  0  0  0  0  0  0  0  0  0  0
  -12.2447   -1.8752    3.1670 C   0  0  0  0  0  0  0  0  0  0  0  0
  -13.9548   -1.7321    3.0836 Cl  0  0  0  0  0  0  0  0  0  0  0  0
  -11.5209   -0.9818    3.9499 C   0  0  0  0  0  0  0  0  0  0  0  0
  -10.1476   -1.1184    3.9962 C   0  0  0  0  0  0  0  0  0  0  0  0
   -9.1399   -0.2991    4.7175 C   0  0  0  0  0  0  0  0  0  0  0  0
   -9.3439    0.6632    5.4222 O   0  0  0  0  0  0  0  0  0  0  0  0
    5.2534    4.2247   -3.2616 H   0  0  0  0  0  0  0  0  0  0  0  0
    2.7840    1.3293   -8.1719 H   0  0  0  0  0  0  0  0  0  0  0  0
    5.3774    5.5574   -8.6401 H   0  0  0  0  0  0  0  0  0  0  0  0
    6.1752    0.9207   -4.5698 H   0  0  0  0  0  0  0  0  0  0  0  0
    5.0747   -0.4601   -4.5488 H   0  0  0  0  0  0  0  0  0  0  0  0
    6.3571   -1.4713   -2.6659 H   0  0  0  0  0  0  0  0  0  0  0  0
    7.4265   -1.1176   -4.0214 H   0  0  0  0  0  0  0  0  0  0  0  0
    7.4128   -0.0550   -2.6125 H   0  0  0  0  0  0  0  0  0  0  0  0
   -5.7670   -3.9332    4.3151 H   0  0  0  0  0  0  0  0  0  0  0  0
   -6.5143   -2.9252    5.5535 H   0  0  0  0  0  0  0  0  0  0  0  0
   -3.8443   -4.4015    5.8233 H   0  0  0  0  0  0  0  0  0  0  0  0
   -4.5088   -3.3017    7.0360 H   0  0  0  0  0  0  0  0  0  0  0  0
   -5.3603   -4.7935    6.6312 H   0  0  0  0  0  0  0  0  0  0  0  0
    1.2949    1.8183    2.5516 H   0  0  0  0  0  0  0  0  0  0  0  0
    1.7619    2.7009    1.0734 H   0  0  0  0  0  0  0  0  0  0  0  0
    4.1425    2.1289    1.5091 H   0  0  0  0  0  0  0  0  0  0  0  0
    3.6691    1.1647    2.9126 H   0  0  0  0  0  0  0  0  0  0  0  0
    3.4378    2.9171    2.9186 H   0  0  0  0  0  0  0  0  0  0  0  0
   -0.5340    1.5948    1.4950 H   0  0  0  0  0  0  0  0  0  0  0  0
   -2.1988    1.2212    1.9445 H   0  0  0  0  0  0  0  0  0  0  0  0
   -1.3254    3.2123    3.1867 H   0  0  0  0  0  0  0  0  0  0  0  0
   -0.1338    2.1839    3.9904 H   0  0  0  0  0  0  0  0  0  0  0  0
   -1.8517    1.9093    4.2505 H   0  0  0  0  0  0  0  0  0  0  0  0
   -6.7513    0.6909    5.1870 H   0  0  0  0  0  0  0  0  0  0  0  0
   -9.7101   -3.7862    1.9311 H   0  0  0  0  0  0  0  0  0  0  0  0
  -12.0203   -0.2009    4.5013 H   0  0  0  0  0  0  0  0  0  0  0  0
  1  2  2  0  0  0  0
  2  3  1  0  0  0  0
  3  4  2  0  0  0  0
  3  5  1  0  0  0  0
  5  6  2  0  0  0  0
  6  7  1  0  0  0  0
  7  8  1  0  0  0  0
  7  9  2  0  0  0  0
  9 10  1  0  0  0  0
  9 11  1  0  0  0  0
 11 12  2  0  0  0  0
 12 13  1  0  0  0  0
 13 14  2  0  0  0  0
 14 15  1  0  0  0  0
 15 16  3  0  0  0  0
 14 17  1  0  0  0  0
 17 18  3  0  0  0  0
  1 19  1  0  0  0  0
 19 20  2  0  0  0  0
 20 21  1  0  0  0  0
 21 22  1  0  0  0  0
 20 23  1  0  0  0  0
 23 24  1  0  0  0  0
 24 25  1  0  0  0  0
 25 26  1  0  0  0  0
 26 27  1  0  0  0  0
 27 28  1  0  0  0  0
 28 29  2  0  0  0  0
 29 30  1  0  0  0  0
 30 31  1  0  0  0  0
 28 32  1  0  0  0  0
 32 33  1  0  0  0  0
 33 34  1  0  0  0  0
 34 35  1  0  0  0  0
 35 36  1  0  0  0  0
 36 37  1  0  0  0  0
 37 38  1  0  0  0  0
 36 39  2  0  0  0  0
 39 40  1  0  0  0  0
 40 41  1  0  0  0  0
 41 42  1  0  0  0  0
 42 43  1  0  0  0  0
 43 44  1  0  0  0  0
 44 45  1  0  0  0  0
 45 46  1  0  0  0  0
 46 47  1  0  0  0  0
 47 48  1  0  0  0  0
 48 49  1  0  0  0  0
 46 50  1  0  0  0  0
 50 51  1  0  0  0  0
 43 52  1  0  0  0  0
 52 53  1  0  0  0  0
 39 54  1  0  0  0  0
 54 55  2  0  0  0  0
 55 56  1  0  0  0  0
 56 57  2  0  0  0  0
 56 58  1  0  0  0  0
 58 59  2  0  0  0  0
 59 60  1  0  0  0  0
 60 61  1  0  0  0  0
 60 62  2  0  0  0  0
 62 63  1  0  0  0  0
 62 64  1  0  0  0  0
 64 65  2  0  0  0  0
 65 66  1  0  0  0  0
 66 67  2  0  0  0  0
 13  2  1  0  0  0  0
 49 19  1  0  0  0  0
 66 55  1  0  0  0  0
 12  5  1  0  0  0  0
 48 23  2  0  0  0  0
 65 58  1  0  0  0  0
 47 25  2  0  0  0  0
 45 26  2  0  0  0  0
 31 27  2  0  0  0  0
 44 32  2  0  0  0  0
 42 33  2  0  0  0  0
 41 35  2  0  0  0  0
  1 68  1  0  0  0  0
  6 69  1  0  0  0  0
 11 70  1  0  0  0  0
 21 71  1  0  0  0  0
 21 72  1  0  0  0  0
 22 73  1  0  0  0  0
 22 74  1  0  0  0  0
 22 75  1  0  0  0  0
 37 76  1  0  0  0  0
 37 77  1  0  0  0  0
 38 78  1  0  0  0  0
 38 79  1  0  0  0  0
 38 80  1  0  0  0  0
 50 81  1  0  0  0  0
 50 82  1  0  0  0  0
 51 83  1  0  0  0  0
 51 84  1  0  0  0  0
 51 85  1  0  0  0  0
 52 86  1  0  0  0  0
 52 87  1  0  0  0  0
 53 88  1  0  0  0  0
 53 89  1  0  0  0  0
 53 90  1  0  0  0  0
 54 91  1  0  0  0  0
 59 92  1  0  0  0  0
 64 93  1  0  0  0  0
M  END
