
  xtb     01272209343D
 energy: -191.042747257499 gnorm: 0.000252917999 xtb: 6.4.1 (unknown)
 97108  0     0  0            999 V2000
    1.3108    0.8094   -7.6282 C   0  0  0  0  0  0  0  0  0  0  0  0
    2.4797    0.8716   -8.3387 C   0  0  0  0  0  0  0  0  0  0  0  0
    3.7961    1.1773   -7.7362 C   0  0  0  0  0  0  0  0  0  0  0  0
    4.0319    1.6086   -6.6288 O   0  0  0  0  0  0  0  0  0  0  0  0
    4.7912    0.7269   -8.7375 C   0  0  0  0  0  0  0  0  0  0  0  0
    6.1668    0.7283   -8.6301 C   0  0  0  0  0  0  0  0  0  0  0  0
    6.9116    0.2326   -9.6941 C   0  0  0  0  0  0  0  0  0  0  0  0
    8.6296    0.2039   -9.6244 Cl  0  0  0  0  0  0  0  0  0  0  0  0
    6.2516   -0.2493  -10.8272 C   0  0  0  0  0  0  0  0  0  0  0  0
    6.9756   -0.7322  -11.8435 F   0  0  0  0  0  0  0  0  0  0  0  0
    4.8700   -0.2547  -10.9419 C   0  0  0  0  0  0  0  0  0  0  0  0
    4.1312    0.2403   -9.8791 C   0  0  0  0  0  0  0  0  0  0  0  0
    2.6915    0.3622   -9.6767 C   0  0  0  0  0  0  0  0  0  0  0  0
    1.7180    0.1293  -10.6119 C   0  0  0  0  0  0  0  0  0  0  0  0
    0.3447    0.3707  -10.3945 C   0  0  0  0  0  0  0  0  0  0  0  0
   -0.7800    0.5722  -10.2838 N   0  0  0  0  0  0  0  0  0  0  0  0
    1.9749   -0.3360  -11.9181 C   0  0  0  0  0  0  0  0  0  0  0  0
    2.1305   -0.7182  -12.9889 N   0  0  0  0  0  0  0  0  0  0  0  0
    1.0760    1.4098   -6.3738 C   0  0  0  0  0  0  0  0  0  0  0  0
    1.4706    2.6442   -5.8695 C   0  0  0  0  0  0  0  0  0  0  0  0
    2.1552    3.7041   -6.6639 C   0  0  0  0  0  0  0  0  0  0  0  0
    1.4133    5.0387   -6.6118 C   0  0  0  0  0  0  0  0  0  0  0  0
    1.0374    2.8061   -4.5462 C   0  0  0  0  0  0  0  0  0  0  0  0
    1.2774    4.0750   -3.3648 S   0  0  0  0  0  0  0  0  0  0  0  0
    0.4614    3.1101   -2.1874 C   0  0  0  0  0  0  0  0  0  0  0  0
    0.1019    3.1617   -0.8338 C   0  0  0  0  0  0  0  0  0  0  0  0
    0.2049    4.2038    0.1147 C   0  0  0  0  0  0  0  0  0  0  0  0
   -0.3150    3.9934    1.4334 C   0  0  0  0  0  0  0  0  0  0  0  0
   -0.1981    5.0657    2.2002 N   0  0  0  0  0  0  0  0  0  0  0  0
    0.5086    6.2389    1.3377 S   0  0  0  0  0  0  0  0  0  0  0  0
    0.6938    5.4231   -0.0477 N   0  0  0  0  0  0  0  0  0  0  0  0
   -0.7992    2.7112    1.7777 C   0  0  0  0  0  0  0  0  0  0  0  0
   -1.1679    2.1750    3.0168 C   0  0  0  0  0  0  0  0  0  0  0  0
   -1.3458    2.6825    4.6601 S   0  0  0  0  0  0  0  0  0  0  0  0
   -1.6813    1.0179    5.1024 C   0  0  0  0  0  0  0  0  0  0  0  0
   -1.9130    0.4077    6.3254 C   0  0  0  0  0  0  0  0  0  0  0  0
   -2.0169    1.1712    7.6043 C   0  0  0  0  0  0  0  0  0  0  0  0
   -3.4815    1.4593    7.9467 C   0  0  0  0  0  0  0  0  0  0  0  0
   -2.0745   -0.9848    6.1824 C   0  0  0  0  0  0  0  0  0  0  0  0
   -1.9477   -1.4974    4.4967 S   0  0  0  0  0  0  0  0  0  0  0  0
   -1.6697    0.1308    4.0095 C   0  0  0  0  0  0  0  0  0  0  0  0
   -1.3882    0.8050    2.8192 C   0  0  0  0  0  0  0  0  0  0  0  0
   -1.2155    0.4900    1.4988 N   0  0  0  0  0  0  0  0  0  0  0  0
   -0.8506    1.6437    0.8313 C   0  0  0  0  0  0  0  0  0  0  0  0
   -0.5112    1.9138   -0.5205 C   0  0  0  0  0  0  0  0  0  0  0  0
   -0.5790    1.1575   -1.6800 N   0  0  0  0  0  0  0  0  0  0  0  0
    0.0133    1.8794   -2.6809 C   0  0  0  0  0  0  0  0  0  0  0  0
    0.3250    1.7118   -4.0325 C   0  0  0  0  0  0  0  0  0  0  0  0
    0.1001    0.4910   -5.2254 S   0  0  0  0  0  0  0  0  0  0  0  0
   -1.4508    0.0518   -2.0157 C   0  0  0  0  0  0  0  0  0  0  0  0
   -2.9112    0.3791   -1.7171 C   0  0  0  0  0  0  0  0  0  0  0  0
   -1.1094   -0.8961    1.1009 C   0  0  0  0  0  0  0  0  0  0  0  0
    0.3264   -1.2690    0.7419 C   0  0  0  0  0  0  0  0  0  0  0  0
   -2.2751   -1.8405    7.2652 C   0  0  0  0  0  0  0  0  0  0  0  0
   -2.3967   -3.2113    7.3256 C   0  0  0  0  0  0  0  0  0  0  0  0
   -2.3454   -4.1336    6.1929 C   0  0  0  0  0  0  0  0  0  0  0  0
   -2.2366   -3.8658    5.0088 O   0  0  0  0  0  0  0  0  0  0  0  0
   -2.4470   -5.4915    6.7676 C   0  0  0  0  0  0  0  0  0  0  0  0
   -2.4237   -6.7050    6.1105 C   0  0  0  0  0  0  0  0  0  0  0  0
   -2.5207   -7.8534    6.8799 C   0  0  0  0  0  0  0  0  0  0  0  0
   -2.4999   -9.0529    6.2856 F   0  0  0  0  0  0  0  0  0  0  0  0
   -2.6370   -7.7707    8.2673 C   0  0  0  0  0  0  0  0  0  0  0  0
   -2.7242   -8.8954    8.9862 F   0  0  0  0  0  0  0  0  0  0  0  0
   -2.6631   -6.5498    8.9262 C   0  0  0  0  0  0  0  0  0  0  0  0
   -2.5675   -5.3965    8.1639 C   0  0  0  0  0  0  0  0  0  0  0  0
   -2.5576   -3.9812    8.5413 C   0  0  0  0  0  0  0  0  0  0  0  0
   -2.6869   -3.5101    9.8230 C   0  0  0  0  0  0  0  0  0  0  0  0
   -2.8414   -4.3359   10.9567 C   0  0  0  0  0  0  0  0  0  0  0  0
   -2.9696   -4.9482   11.9190 N   0  0  0  0  0  0  0  0  0  0  0  0
   -2.6945   -2.1530   10.2074 C   0  0  0  0  0  0  0  0  0  0  0  0
   -2.7129   -1.0742   10.6027 N   0  0  0  0  0  0  0  0  0  0  0  0
    0.5136    0.1770   -8.0027 H   0  0  0  0  0  0  0  0  0  0  0  0
    6.6486    1.1037   -7.7415 H   0  0  0  0  0  0  0  0  0  0  0  0
    4.4202   -0.6474  -11.8394 H   0  0  0  0  0  0  0  0  0  0  0  0
    2.2400    3.3779   -7.7017 H   0  0  0  0  0  0  0  0  0  0  0  0
    3.1680    3.8275   -6.2705 H   0  0  0  0  0  0  0  0  0  0  0  0
    0.3908    4.9181   -6.9631 H   0  0  0  0  0  0  0  0  0  0  0  0
    1.9152    5.7583   -7.2534 H   0  0  0  0  0  0  0  0  0  0  0  0
    1.3908    5.4386   -5.6022 H   0  0  0  0  0  0  0  0  0  0  0  0
   -1.4870    2.1176    7.4801 H   0  0  0  0  0  0  0  0  0  0  0  0
   -1.5541    0.6257    8.4279 H   0  0  0  0  0  0  0  0  0  0  0  0
   -3.5369    2.0280    8.8702 H   0  0  0  0  0  0  0  0  0  0  0  0
   -3.9497    2.0349    7.1517 H   0  0  0  0  0  0  0  0  0  0  0  0
   -4.0359    0.5334    8.0798 H   0  0  0  0  0  0  0  0  0  0  0  0
   -1.1322   -0.8606   -1.5104 H   0  0  0  0  0  0  0  0  0  0  0  0
   -1.3329   -0.1194   -3.0886 H   0  0  0  0  0  0  0  0  0  0  0  0
   -3.2260    1.2416   -2.3001 H   0  0  0  0  0  0  0  0  0  0  0  0
   -3.5401   -0.4659   -1.9835 H   0  0  0  0  0  0  0  0  0  0  0  0
   -3.0590    0.6093   -0.6647 H   0  0  0  0  0  0  0  0  0  0  0  0
   -1.7989   -1.1119    0.2844 H   0  0  0  0  0  0  0  0  0  0  0  0
   -1.4306   -1.4915    1.9588 H   0  0  0  0  0  0  0  0  0  0  0  0
    0.3711   -2.3109    0.4372 H   0  0  0  0  0  0  0  0  0  0  0  0
    0.7089   -0.6485   -0.0651 H   0  0  0  0  0  0  0  0  0  0  0  0
    0.9709   -1.1355    1.6075 H   0  0  0  0  0  0  0  0  0  0  0  0
   -2.3204   -1.3241    8.2141 H   0  0  0  0  0  0  0  0  0  0  0  0
   -2.3315   -6.7637    5.0377 H   0  0  0  0  0  0  0  0  0  0  0  0
   -2.7533   -6.5427    9.9999 H   0  0  0  0  0  0  0  0  0  0  0  0
  1  2  2  0  0  0  0
  2  3  1  0  0  0  0
  3  4  2  0  0  0  0
  3  5  1  0  0  0  0
  5  6  2  0  0  0  0
  6  7  1  0  0  0  0
  7  8  1  0  0  0  0
  7  9  2  0  0  0  0
  9 10  1  0  0  0  0
  9 11  1  0  0  0  0
 11 12  2  0  0  0  0
 12 13  1  0  0  0  0
 13 14  2  0  0  0  0
 14 15  1  0  0  0  0
 15 16  3  0  0  0  0
 14 17  1  0  0  0  0
 17 18  3  0  0  0  0
  1 19  1  0  0  0  0
 19 20  2  0  0  0  0
 20 21  1  0  0  0  0
 21 22  1  0  0  0  0
 20 23  1  0  0  0  0
 23 24  1  0  0  0  0
 24 25  1  0  0  0  0
 25 26  1  0  0  0  0
 26 27  1  0  0  0  0
 27 28  1  0  0  0  0
 28 29  2  0  0  0  0
 29 30  1  0  0  0  0
 30 31  1  0  0  0  0
 28 32  1  0  0  0  0
 32 33  1  0  0  0  0
 33 34  1  0  0  0  0
 34 35  1  0  0  0  0
 35 36  1  0  0  0  0
 36 37  1  0  0  0  0
 37 38  1  0  0  0  0
 36 39  2  0  0  0  0
 39 40  1  0  0  0  0
 40 41  1  0  0  0  0
 41 42  1  0  0  0  0
 42 43  1  0  0  0  0
 43 44  1  0  0  0  0
 44 45  1  0  0  0  0
 45 46  1  0  0  0  0
 46 47  1  0  0  0  0
 47 48  1  0  0  0  0
 48 49  1  0  0  0  0
 46 50  1  0  0  0  0
 50 51  1  0  0  0  0
 43 52  1  0  0  0  0
 52 53  1  0  0  0  0
 39 54  1  0  0  0  0
 54 55  2  0  0  0  0
 55 56  1  0  0  0  0
 56 57  2  0  0  0  0
 56 58  1  0  0  0  0
 58 59  2  0  0  0  0
 59 60  1  0  0  0  0
 60 61  1  0  0  0  0
 60 62  2  0  0  0  0
 62 63  1  0  0  0  0
 62 64  1  0  0  0  0
 64 65  2  0  0  0  0
 65 66  1  0  0  0  0
 66 67  2  0  0  0  0
 67 68  1  0  0  0  0
 68 69  3  0  0  0  0
 67 70  1  0  0  0  0
 70 71  3  0  0  0  0
 13  2  1  0  0  0  0
 49 19  1  0  0  0  0
 66 55  1  0  0  0  0
 12  5  1  0  0  0  0
 48 23  2  0  0  0  0
 65 58  1  0  0  0  0
 47 25  2  0  0  0  0
 45 26  2  0  0  0  0
 31 27  2  0  0  0  0
 44 32  2  0  0  0  0
 42 33  2  0  0  0  0
 41 35  2  0  0  0  0
  1 72  1  0  0  0  0
  6 73  1  0  0  0  0
 11 74  1  0  0  0  0
 21 75  1  0  0  0  0
 21 76  1  0  0  0  0
 22 77  1  0  0  0  0
 22 78  1  0  0  0  0
 22 79  1  0  0  0  0
 37 80  1  0  0  0  0
 37 81  1  0  0  0  0
 38 82  1  0  0  0  0
 38 83  1  0  0  0  0
 38 84  1  0  0  0  0
 50 85  1  0  0  0  0
 50 86  1  0  0  0  0
 51 87  1  0  0  0  0
 51 88  1  0  0  0  0
 51 89  1  0  0  0  0
 52 90  1  0  0  0  0
 52 91  1  0  0  0  0
 53 92  1  0  0  0  0
 53 93  1  0  0  0  0
 53 94  1  0  0  0  0
 54 95  1  0  0  0  0
 59 96  1  0  0  0  0
 64 97  1  0  0  0  0
M  END
