96

C         -0.29890        6.75120        3.70590
C         -0.94230        6.58760        4.91180
C         -1.34030        5.31590        5.51380
O         -1.19660        4.19300        5.06210
C         -1.96940        5.65540        6.80710
C         -2.50520        4.80160        7.74880
C         -3.05210        5.35340        8.90120
Cl        -3.73780        4.34770       10.11660
C         -3.04160        6.73990        9.06640
F         -3.56960        7.26510       10.17810
C         -2.50480        7.60280        8.12260
C         -1.96010        7.05060        6.97420
C         -1.33100        7.66180        5.80330
C         -1.17020        9.01070        5.61240
C         -0.58510        9.62160        4.48390
N         -0.12610       10.19470        3.59970
C         -1.58360        9.99290        6.53760
N         -1.89330       10.84130        7.24580
C          0.11380        5.81900        2.75270
C          0.77070        6.18130        1.56070
C          1.17680        7.56520        1.17390
C          2.51160        7.93960        1.82460
C          1.05560        5.06890        0.78280
S          1.82600        4.88750       -0.78330
C          1.55780        3.18260       -0.68130
C          1.73810        2.03200       -1.46060
C          2.18880        1.87510       -2.79040
C          2.10650        0.58100       -3.40090
N          2.49740        0.59250       -4.66570
S          2.93640        2.10070       -5.05330
N          2.64330        2.79830       -3.62310
C          1.70130       -0.51890       -2.61320
C          1.65750       -1.89080       -2.90010
S          1.91920       -2.95400       -4.23600
C          1.60560       -4.31530       -3.18500
C          1.59380       -5.70180       -3.41570
C          1.97970       -6.27330       -4.74170
C          1.00630       -5.87530       -5.85180
C          1.32220       -6.40020       -2.24890
S          1.09960       -5.32060       -0.86730
C          1.32960       -3.93750       -1.86690
C          1.33960       -2.54820       -1.70680
N          1.16260       -1.63380       -0.70270
C          1.35170       -0.37330       -1.24010
C          1.24390        0.93350       -0.69670
N          0.74730        1.41860        0.50150
C          0.92770        2.77820        0.50180
C          0.62730        3.85140        1.34330
S         -0.13420        4.07450        2.87120
C         -0.27830        0.87030        1.36430
C         -1.62900        0.84340        0.65260
C          1.16850       -2.07100        0.67500
C         -0.18400       -2.63280        1.11000
C          1.25370       -7.80290       -2.03120
C          0.77900       -8.77920       -2.86960
C          0.02150       -8.59920       -4.03640
N         -0.65830       -8.40930       -4.94030
C          1.04050      -10.06190       -2.25490
C          0.76220      -11.30760       -2.74510
C          0.16610      -11.52160       -4.00170
N         -0.30240      -11.75000       -5.02340
C          1.08670      -12.46140       -2.00200
N          1.34730      -13.40080       -1.39840
O          1.64440       -9.88730       -1.07220
C          1.77750       -8.48970       -0.78320
C          3.25680       -8.17940       -0.54960
C          0.94470       -8.21440        0.47370
H         -0.06520        7.77110        3.43340
H         -2.49840        3.73490        7.59170
H         -2.53040        8.66280        8.31470
H          1.28900        7.59700        0.08840
H          0.41730        8.29380        1.46050
H          2.43410        7.90800        2.90880
H          2.79490        8.94540        1.52870
H          3.29170        7.24970        1.51140
H          2.04960       -7.35950       -4.68620
H          2.97080       -5.88070       -4.99100
H          0.95020       -4.79410       -5.94420
H          1.34890       -6.28680       -6.79680
H          0.01330       -6.26730       -5.65000
H         -0.33620        1.52470        2.23740
H         -0.01340       -0.12340        1.71090
H         -1.58340        0.21880       -0.23760
H         -2.39170        0.45390        1.32100
H         -1.91500        1.84850        0.35160
H          1.49480       -1.24300        1.30530
H          1.92020       -2.86410        0.76540
H         -0.40360       -3.54280        0.55820
H         -0.98790       -1.92580        0.92720
H         -0.15860       -2.87360        2.16920
H          3.83830       -8.43300       -1.43370
H          3.38550       -7.12340       -0.32960
H          3.61960       -8.76930        0.28730
H          1.20380       -8.95990        1.22160
H         -0.11700       -8.29910        0.25130
H          1.15050       -7.22660        0.87220
