
  xtb     02012217563D
 energy: -180.542056576995 gnorm: 0.000826043786 xtb: 6.4.1 (unknown)
 94105  0     0  0            999 V2000
    6.3352    1.2367    4.1345 C   0  0  0  0  0  0  0  0  0  0  0  0
    5.9641    0.8012    5.3876 C   0  0  0  0  0  0  0  0  0  0  0  0
    4.6686    0.2344    5.7572 C   0  0  0  0  0  0  0  0  0  0  0  0
    3.6933    0.0620    5.0467 O   0  0  0  0  0  0  0  0  0  0  0  0
    4.7665   -0.1062    7.1925 C   0  0  0  0  0  0  0  0  0  0  0  0
    3.8091   -0.6765    8.0054 C   0  0  0  0  0  0  0  0  0  0  0  0
    4.1318   -0.9112    9.3369 C   0  0  0  0  0  0  0  0  0  0  0  0
    2.9863   -1.6212   10.4060 Cl  0  0  0  0  0  0  0  0  0  0  0  0
    5.4011   -0.5651    9.8038 C   0  0  0  0  0  0  0  0  0  0  0  0
    5.7060   -0.7939   11.0869 F   0  0  0  0  0  0  0  0  0  0  0  0
    6.3674    0.0086    8.9909 C   0  0  0  0  0  0  0  0  0  0  0  0
    6.0440    0.2408    7.6638 C   0  0  0  0  0  0  0  0  0  0  0  0
    6.8139    0.8150    6.5600 C   0  0  0  0  0  0  0  0  0  0  0  0
    8.1024    1.2769    6.6588 C   0  0  0  0  0  0  0  0  0  0  0  0
    8.8616    1.8408    5.6129 C   0  0  0  0  0  0  0  0  0  0  0  0
    9.5458    2.3146    4.8201 N   0  0  0  0  0  0  0  0  0  0  0  0
    8.8594    1.2544    7.8491 C   0  0  0  0  0  0  0  0  0  0  0  0
    9.5320    1.2622    8.7793 N   0  0  0  0  0  0  0  0  0  0  0  0
    5.6290    1.2839    2.9329 C   0  0  0  0  0  0  0  0  0  0  0  0
    6.1877    1.7707    1.7341 C   0  0  0  0  0  0  0  0  0  0  0  0
    7.5594    2.3403    1.5797 C   0  0  0  0  0  0  0  0  0  0  0  0
    7.5834    3.8144    1.9943 C   0  0  0  0  0  0  0  0  0  0  0  0
    5.2743    1.7186    0.6929 C   0  0  0  0  0  0  0  0  0  0  0  0
    5.3831    2.1745   -0.9988 S   0  0  0  0  0  0  0  0  0  0  0  0
    3.7438    1.6643   -1.2074 C   0  0  0  0  0  0  0  0  0  0  0  0
    2.7678    1.6115   -2.2073 C   0  0  0  0  0  0  0  0  0  0  0  0
    2.8195    2.0489   -3.5490 C   0  0  0  0  0  0  0  0  0  0  0  0
    1.6395    1.9508   -4.3509 C   0  0  0  0  0  0  0  0  0  0  0  0
    1.8170    2.4226   -5.5750 N   0  0  0  0  0  0  0  0  0  0  0  0
    3.3442    2.9440   -5.7053 S   0  0  0  0  0  0  0  0  0  0  0  0
    3.8356    2.5883   -4.2040 N   0  0  0  0  0  0  0  0  0  0  0  0
    0.4827    1.3668   -3.7899 C   0  0  0  0  0  0  0  0  0  0  0  0
   -0.7623    1.1015   -4.3707 C   0  0  0  0  0  0  0  0  0  0  0  0
   -1.5794    1.3083   -5.8816 S   0  0  0  0  0  0  0  0  0  0  0  0
   -2.9790    0.4993   -5.1982 C   0  0  0  0  0  0  0  0  0  0  0  0
   -4.2293    0.1895   -5.7187 C   0  0  0  0  0  0  0  0  0  0  0  0
   -4.6107    0.4802   -7.1333 C   0  0  0  0  0  0  0  0  0  0  0  0
   -4.3664   -0.7416   -8.0234 C   0  0  0  0  0  0  0  0  0  0  0  0
   -5.0302   -0.4677   -4.7693 C   0  0  0  0  0  0  0  0  0  0  0  0
   -4.1978   -0.6825   -3.2295 S   0  0  0  0  0  0  0  0  0  0  0  0
   -2.7991    0.0961   -3.8644 C   0  0  0  0  0  0  0  0  0  0  0  0
   -1.5284    0.4478   -3.4003 C   0  0  0  0  0  0  0  0  0  0  0  0
   -0.8025    0.3007   -2.2519 N   0  0  0  0  0  0  0  0  0  0  0  0
    0.4388    0.8774   -2.4460 C   0  0  0  0  0  0  0  0  0  0  0  0
    1.5863    1.0557   -1.6208 C   0  0  0  0  0  0  0  0  0  0  0  0
    1.8546    0.8177   -0.2867 N   0  0  0  0  0  0  0  0  0  0  0  0
    3.1528    1.1693   -0.0392 C   0  0  0  0  0  0  0  0  0  0  0  0
    4.0178    1.1979    1.0562 C   0  0  0  0  0  0  0  0  0  0  0  0
    3.9560    0.7593    2.7205 S   0  0  0  0  0  0  0  0  0  0  0  0
    1.0528    0.3560    0.8225 C   0  0  0  0  0  0  0  0  0  0  0  0
    1.2907   -1.1262    1.1113 C   0  0  0  0  0  0  0  0  0  0  0  0
   -1.3923   -0.4510   -1.1681 C   0  0  0  0  0  0  0  0  0  0  0  0
   -2.3397    0.4091   -0.3319 C   0  0  0  0  0  0  0  0  0  0  0  0
   -6.3367   -0.8954   -5.0346 C   0  0  0  0  0  0  0  0  0  0  0  0
   -7.2554   -1.5365   -4.2442 C   0  0  0  0  0  0  0  0  0  0  0  0
   -7.0749   -1.9389   -2.8364 C   0  0  0  0  0  0  0  0  0  0  0  0
   -6.0879   -1.7880   -2.1375 O   0  0  0  0  0  0  0  0  0  0  0  0
   -8.3439   -2.5511   -2.4643 C   0  0  0  0  0  0  0  0  0  0  0  0
   -9.0099   -3.2651   -1.0621 S   0  0  0  0  0  0  0  0  0  0  0  0
  -10.4849   -3.5520   -1.9079 C   0  0  0  0  0  0  0  0  0  0  0  0
  -10.4742   -3.1235   -3.2026 C   0  0  0  0  0  0  0  0  0  0  0  0
   -9.2341   -2.5420   -3.5294 C   0  0  0  0  0  0  0  0  0  0  0  0
   -8.5910   -1.9183   -4.6714 C   0  0  0  0  0  0  0  0  0  0  0  0
   -9.1827   -1.7534   -5.8974 C   0  0  0  0  0  0  0  0  0  0  0  0
   -8.5949   -1.1588   -7.0306 C   0  0  0  0  0  0  0  0  0  0  0  0
   -8.1787   -0.6866   -7.9921 N   0  0  0  0  0  0  0  0  0  0  0  0
  -10.5012   -2.1905   -6.1449 C   0  0  0  0  0  0  0  0  0  0  0  0
  -11.5699   -2.5432   -6.3689 N   0  0  0  0  0  0  0  0  0  0  0  0
    7.3470    1.6083    4.0493 H   0  0  0  0  0  0  0  0  0  0  0  0
    2.8373   -0.9332    7.6153 H   0  0  0  0  0  0  0  0  0  0  0  0
    7.3273    0.2502    9.4169 H   0  0  0  0  0  0  0  0  0  0  0  0
    7.8447    2.2616    0.5289 H   0  0  0  0  0  0  0  0  0  0  0  0
    8.2861    1.7853    2.1744 H   0  0  0  0  0  0  0  0  0  0  0  0
    7.3020    3.9258    3.0387 H   0  0  0  0  0  0  0  0  0  0  0  0
    6.8920    4.3901    1.3835 H   0  0  0  0  0  0  0  0  0  0  0  0
    8.5840    4.2159    1.8638 H   0  0  0  0  0  0  0  0  0  0  0  0
   -3.9946    1.3085   -7.4888 H   0  0  0  0  0  0  0  0  0  0  0  0
   -5.6579    0.7772   -7.2056 H   0  0  0  0  0  0  0  0  0  0  0  0
   -4.6333   -0.5079   -9.0499 H   0  0  0  0  0  0  0  0  0  0  0  0
   -4.9696   -1.5846   -7.6948 H   0  0  0  0  0  0  0  0  0  0  0  0
   -3.3182   -1.0296   -7.9907 H   0  0  0  0  0  0  0  0  0  0  0  0
    0.0056    0.5748    0.6382 H   0  0  0  0  0  0  0  0  0  0  0  0
    1.3610    0.9316    1.7013 H   0  0  0  0  0  0  0  0  0  0  0  0
    1.1631   -1.7334    0.2170 H   0  0  0  0  0  0  0  0  0  0  0  0
    0.5987   -1.4689    1.8750 H   0  0  0  0  0  0  0  0  0  0  0  0
    2.3030   -1.2744    1.4775 H   0  0  0  0  0  0  0  0  0  0  0  0
   -0.6117   -0.9056   -0.5657 H   0  0  0  0  0  0  0  0  0  0  0  0
   -1.9738   -1.2610   -1.6204 H   0  0  0  0  0  0  0  0  0  0  0  0
   -3.2057    0.6901   -0.9250 H   0  0  0  0  0  0  0  0  0  0  0  0
   -2.6863   -0.1559    0.5285 H   0  0  0  0  0  0  0  0  0  0  0  0
   -1.8556    1.3212    0.0121 H   0  0  0  0  0  0  0  0  0  0  0  0
   -6.6626   -0.6720   -6.0418 H   0  0  0  0  0  0  0  0  0  0  0  0
  -11.2929   -4.0305   -1.3899 H   0  0  0  0  0  0  0  0  0  0  0  0
  -11.3091   -3.2231   -3.8707 H   0  0  0  0  0  0  0  0  0  0  0  0
  1  2  2  0  0  0  0
  2  3  1  0  0  0  0
  3  4  2  0  0  0  0
  3  5  1  0  0  0  0
  5  6  2  0  0  0  0
  6  7  1  0  0  0  0
  7  8  1  0  0  0  0
  7  9  2  0  0  0  0
  9 10  1  0  0  0  0
  9 11  1  0  0  0  0
 11 12  2  0  0  0  0
 12 13  1  0  0  0  0
 13 14  2  0  0  0  0
 14 15  1  0  0  0  0
 15 16  3  0  0  0  0
 14 17  1  0  0  0  0
 17 18  3  0  0  0  0
  1 19  1  0  0  0  0
 19 20  2  0  0  0  0
 20 21  1  0  0  0  0
 21 22  1  0  0  0  0
 20 23  1  0  0  0  0
 23 24  1  0  0  0  0
 24 25  1  0  0  0  0
 25 26  1  0  0  0  0
 26 27  1  0  0  0  0
 27 28  1  0  0  0  0
 28 29  2  0  0  0  0
 29 30  1  0  0  0  0
 30 31  1  0  0  0  0
 28 32  1  0  0  0  0
 32 33  1  0  0  0  0
 33 34  1  0  0  0  0
 34 35  1  0  0  0  0
 35 36  1  0  0  0  0
 36 37  1  0  0  0  0
 37 38  1  0  0  0  0
 36 39  2  0  0  0  0
 39 40  1  0  0  0  0
 40 41  1  0  0  0  0
 41 42  1  0  0  0  0
 42 43  1  0  0  0  0
 43 44  1  0  0  0  0
 44 45  1  0  0  0  0
 45 46  1  0  0  0  0
 46 47  1  0  0  0  0
 47 48  1  0  0  0  0
 48 49  1  0  0  0  0
 46 50  1  0  0  0  0
 50 51  1  0  0  0  0
 43 52  1  0  0  0  0
 52 53  1  0  0  0  0
 39 54  1  0  0  0  0
 54 55  2  0  0  0  0
 55 56  1  0  0  0  0
 56 57  2  0  0  0  0
 56 58  1  0  0  0  0
 58 59  1  0  0  0  0
 59 60  1  0  0  0  0
 60 61  2  0  0  0  0
 61 62  1  0  0  0  0
 62 63  1  0  0  0  0
 63 64  2  0  0  0  0
 64 65  1  0  0  0  0
 65 66  3  0  0  0  0
 64 67  1  0  0  0  0
 67 68  3  0  0  0  0
 13  2  1  0  0  0  0
 49 19  1  0  0  0  0
 63 55  1  0  0  0  0
 12  5  1  0  0  0  0
 48 23  2  0  0  0  0
 62 58  2  0  0  0  0
 47 25  2  0  0  0  0
 45 26  2  0  0  0  0
 31 27  2  0  0  0  0
 44 32  2  0  0  0  0
 42 33  2  0  0  0  0
 41 35  2  0  0  0  0
  1 69  1  0  0  0  0
  6 70  1  0  0  0  0
 11 71  1  0  0  0  0
 21 72  1  0  0  0  0
 21 73  1  0  0  0  0
 22 74  1  0  0  0  0
 22 75  1  0  0  0  0
 22 76  1  0  0  0  0
 37 77  1  0  0  0  0
 37 78  1  0  0  0  0
 38 79  1  0  0  0  0
 38 80  1  0  0  0  0
 38 81  1  0  0  0  0
 50 82  1  0  0  0  0
 50 83  1  0  0  0  0
 51 84  1  0  0  0  0
 51 85  1  0  0  0  0
 51 86  1  0  0  0  0
 52 87  1  0  0  0  0
 52 88  1  0  0  0  0
 53 89  1  0  0  0  0
 53 90  1  0  0  0  0
 53 91  1  0  0  0  0
 54 92  1  0  0  0  0
 60 93  1  0  0  0  0
 61 94  1  0  0  0  0
M  END
