
  xtb     02012220263D
 energy: -174.573176464675 gnorm: 0.000723170498 xtb: 6.4.1 (unknown)
 91101  0     0  0            999 V2000
   -7.0762   -0.7250   -3.0760 C   0  0  0  0  0  0  0  0  0  0  0  0
   -7.1414   -1.9029   -3.7853 C   0  0  0  0  0  0  0  0  0  0  0  0
   -6.0654   -2.8816   -3.9367 C   0  0  0  0  0  0  0  0  0  0  0  0
   -4.9414   -2.8402   -3.4677 O   0  0  0  0  0  0  0  0  0  0  0  0
   -6.6095   -3.9572   -4.7919 C   0  0  0  0  0  0  0  0  0  0  0  0
   -5.9810   -5.1048   -5.2289 C   0  0  0  0  0  0  0  0  0  0  0  0
   -6.6974   -5.9807   -6.0360 C   0  0  0  0  0  0  0  0  0  0  0  0
   -5.9755   -7.4298   -6.6169 Cl  0  0  0  0  0  0  0  0  0  0  0  0
   -8.0167   -5.6736   -6.3747 C   0  0  0  0  0  0  0  0  0  0  0  0
   -8.7013   -6.5207   -7.1523 F   0  0  0  0  0  0  0  0  0  0  0  0
   -8.6534   -4.5214   -5.9384 C   0  0  0  0  0  0  0  0  0  0  0  0
   -7.9373   -3.6494   -5.1340 C   0  0  0  0  0  0  0  0  0  0  0  0
   -8.2999   -2.3735   -4.5170 C   0  0  0  0  0  0  0  0  0  0  0  0
   -9.5258   -1.7676   -4.6289 C   0  0  0  0  0  0  0  0  0  0  0  0
   -9.8998   -0.5423   -4.0393 C   0  0  0  0  0  0  0  0  0  0  0  0
  -10.2838    0.4456   -3.5948 N   0  0  0  0  0  0  0  0  0  0  0  0
  -10.6057   -2.3019   -5.3635 C   0  0  0  0  0  0  0  0  0  0  0  0
  -11.5233   -2.6792   -5.9404 N   0  0  0  0  0  0  0  0  0  0  0  0
   -6.0428   -0.1599   -2.3270 C   0  0  0  0  0  0  0  0  0  0  0  0
   -6.1750    1.0678   -1.6486 C   0  0  0  0  0  0  0  0  0  0  0  0
   -7.4104    1.9047   -1.5892 C   0  0  0  0  0  0  0  0  0  0  0  0
   -8.3581    1.3977   -0.4982 C   0  0  0  0  0  0  0  0  0  0  0  0
   -5.0124    1.3950   -0.9674 C   0  0  0  0  0  0  0  0  0  0  0  0
   -4.5788    2.7610    0.0444 S   0  0  0  0  0  0  0  0  0  0  0  0
   -3.0146    2.0598    0.2708 C   0  0  0  0  0  0  0  0  0  0  0  0
   -1.8249    2.3226    0.9675 C   0  0  0  0  0  0  0  0  0  0  0  0
   -1.4623    3.2972    1.9265 C   0  0  0  0  0  0  0  0  0  0  0  0
   -0.1963    3.1809    2.6015 C   0  0  0  0  0  0  0  0  0  0  0  0
   -0.0326    4.1131    3.5264 N   0  0  0  0  0  0  0  0  0  0  0  0
   -1.3443    5.0599    3.5446 S   0  0  0  0  0  0  0  0  0  0  0  0
   -2.1778    4.3161    2.3746 N   0  0  0  0  0  0  0  0  0  0  0  0
    0.7189    2.1864    2.1847 C   0  0  0  0  0  0  0  0  0  0  0  0
    2.0450    1.8901    2.5428 C   0  0  0  0  0  0  0  0  0  0  0  0
    3.2270    2.3871    3.7024 S   0  0  0  0  0  0  0  0  0  0  0  0
    4.3495    1.2363    3.0161 C   0  0  0  0  0  0  0  0  0  0  0  0
    5.6653    0.8918    3.3574 C   0  0  0  0  0  0  0  0  0  0  0  0
    6.3973    1.5658    4.4703 C   0  0  0  0  0  0  0  0  0  0  0  0
    7.2374    2.7331    3.9481 C   0  0  0  0  0  0  0  0  0  0  0  0
    6.1544   -0.0994    2.5201 C   0  0  0  0  0  0  0  0  0  0  0  0
    4.9652   -0.6037    1.3140 S   0  0  0  0  0  0  0  0  0  0  0  0
    3.8181    0.5229    1.9364 C   0  0  0  0  0  0  0  0  0  0  0  0
    2.4976    0.8923    1.6683 C   0  0  0  0  0  0  0  0  0  0  0  0
    1.4981    0.5413    0.7944 N   0  0  0  0  0  0  0  0  0  0  0  0
    0.3900    1.3003    1.1259 C   0  0  0  0  0  0  0  0  0  0  0  0
   -0.9344    1.2630    0.6412 C   0  0  0  0  0  0  0  0  0  0  0  0
   -1.5780    0.3519   -0.1708 N   0  0  0  0  0  0  0  0  0  0  0  0
   -2.8402    0.8409   -0.4029 C   0  0  0  0  0  0  0  0  0  0  0  0
   -3.9786    0.4510   -1.1097 C   0  0  0  0  0  0  0  0  0  0  0  0
   -4.4430   -0.8757   -2.1042 S   0  0  0  0  0  0  0  0  0  0  0  0
   -1.3200   -1.0725   -0.2544 C   0  0  0  0  0  0  0  0  0  0  0  0
   -2.2327   -1.8551    0.6887 C   0  0  0  0  0  0  0  0  0  0  0  0
    1.8198    0.0260   -0.5225 C   0  0  0  0  0  0  0  0  0  0  0  0
    2.7569    0.9713   -1.2736 C   0  0  0  0  0  0  0  0  0  0  0  0
    7.4093   -0.7573    2.5008 C   0  0  0  0  0  0  0  0  0  0  0  0
    7.7694   -1.7967    1.6507 C   0  0  0  0  0  0  0  0  0  0  0  0
    9.0572   -2.2659    1.8467 C   0  0  0  0  0  0  0  0  0  0  0  0
    9.7336   -1.5962    2.8551 C   0  0  0  0  0  0  0  0  0  0  0  0
   11.0494   -1.7784    3.3567 C   0  0  0  0  0  0  0  0  0  0  0  0
   11.9846   -2.6980    2.9264 C   0  0  0  0  0  0  0  0  0  0  0  0
   13.2588   -2.7527    3.5304 C   0  0  0  0  0  0  0  0  0  0  0  0
   14.2985   -2.8046    4.0113 N   0  0  0  0  0  0  0  0  0  0  0  0
   11.7850   -3.6326    1.8961 C   0  0  0  0  0  0  0  0  0  0  0  0
   11.6588   -4.4100    1.0602 N   0  0  0  0  0  0  0  0  0  0  0  0
   11.4425   -0.9178    4.4163 C   0  0  0  0  0  0  0  0  0  0  0  0
   11.7393   -0.2133    5.2690 N   0  0  0  0  0  0  0  0  0  0  0  0
    8.7201   -0.3560    3.5600 S   0  0  0  0  0  0  0  0  0  0  0  0
   -7.9735   -0.1218   -3.0867 H   0  0  0  0  0  0  0  0  0  0  0  0
   -4.9605   -5.3138   -4.9502 H   0  0  0  0  0  0  0  0  0  0  0  0
   -9.6736   -4.3469   -6.2385 H   0  0  0  0  0  0  0  0  0  0  0  0
   -7.1165    2.9301   -1.3562 H   0  0  0  0  0  0  0  0  0  0  0  0
   -7.9310    1.9076   -2.5476 H   0  0  0  0  0  0  0  0  0  0  0  0
   -9.2448    2.0237   -0.4630 H   0  0  0  0  0  0  0  0  0  0  0  0
   -7.8687    1.4283    0.4724 H   0  0  0  0  0  0  0  0  0  0  0  0
   -8.6673    0.3751   -0.7006 H   0  0  0  0  0  0  0  0  0  0  0  0
    5.6604    1.9461    5.1808 H   0  0  0  0  0  0  0  0  0  0  0  0
    7.0394    0.8533    4.9913 H   0  0  0  0  0  0  0  0  0  0  0  0
    7.9699    2.3893    3.2219 H   0  0  0  0  0  0  0  0  0  0  0  0
    6.5975    3.4725    3.4725 H   0  0  0  0  0  0  0  0  0  0  0  0
    7.7650    3.2060    4.7712 H   0  0  0  0  0  0  0  0  0  0  0  0
   -1.4890   -1.3967   -1.2857 H   0  0  0  0  0  0  0  0  0  0  0  0
   -0.2879   -1.2671    0.0288 H   0  0  0  0  0  0  0  0  0  0  0  0
   -2.1042   -1.5080    1.7119 H   0  0  0  0  0  0  0  0  0  0  0  0
   -1.9787   -2.9101    0.6424 H   0  0  0  0  0  0  0  0  0  0  0  0
   -3.2752   -1.7414    0.4068 H   0  0  0  0  0  0  0  0  0  0  0  0
    2.2929   -0.9548   -0.4103 H   0  0  0  0  0  0  0  0  0  0  0  0
    0.9017   -0.0736   -1.0987 H   0  0  0  0  0  0  0  0  0  0  0  0
    3.7164    1.0546   -0.7713 H   0  0  0  0  0  0  0  0  0  0  0  0
    2.3125    1.9616   -1.3458 H   0  0  0  0  0  0  0  0  0  0  0  0
    2.9260    0.5908   -2.2769 H   0  0  0  0  0  0  0  0  0  0  0  0
    7.0957   -2.1949    0.9128 H   0  0  0  0  0  0  0  0  0  0  0  0
    9.4893   -3.0679    1.2773 H   0  0  0  0  0  0  0  0  0  0  0  0
  1  2  2  0  0  0  0
  2  3  1  0  0  0  0
  3  4  2  0  0  0  0
  3  5  1  0  0  0  0
  5  6  2  0  0  0  0
  6  7  1  0  0  0  0
  7  8  1  0  0  0  0
  7  9  2  0  0  0  0
  9 10  1  0  0  0  0
  9 11  1  0  0  0  0
 11 12  2  0  0  0  0
 12 13  1  0  0  0  0
 13 14  2  0  0  0  0
 14 15  1  0  0  0  0
 15 16  3  0  0  0  0
 14 17  1  0  0  0  0
 17 18  3  0  0  0  0
  1 19  1  0  0  0  0
 19 20  2  0  0  0  0
 20 21  1  0  0  0  0
 21 22  1  0  0  0  0
 20 23  1  0  0  0  0
 23 24  1  0  0  0  0
 24 25  1  0  0  0  0
 25 26  1  0  0  0  0
 26 27  1  0  0  0  0
 27 28  1  0  0  0  0
 28 29  2  0  0  0  0
 29 30  1  0  0  0  0
 30 31  1  0  0  0  0
 28 32  1  0  0  0  0
 32 33  1  0  0  0  0
 33 34  1  0  0  0  0
 34 35  1  0  0  0  0
 35 36  1  0  0  0  0
 36 37  1  0  0  0  0
 37 38  1  0  0  0  0
 36 39  2  0  0  0  0
 39 40  1  0  0  0  0
 40 41  1  0  0  0  0
 41 42  1  0  0  0  0
 42 43  1  0  0  0  0
 43 44  1  0  0  0  0
 44 45  1  0  0  0  0
 45 46  1  0  0  0  0
 46 47  1  0  0  0  0
 47 48  1  0  0  0  0
 48 49  1  0  0  0  0
 46 50  1  0  0  0  0
 50 51  1  0  0  0  0
 43 52  1  0  0  0  0
 52 53  1  0  0  0  0
 39 54  1  0  0  0  0
 54 55  2  0  0  0  0
 55 56  1  0  0  0  0
 56 57  2  0  0  0  0
 57 58  1  0  0  0  0
 58 59  2  0  0  0  0
 59 60  1  0  0  0  0
 60 61  3  0  0  0  0
 59 62  1  0  0  0  0
 62 63  3  0  0  0  0
 58 64  1  0  0  0  0
 64 65  3  0  0  0  0
 57 66  1  0  0  0  0
 13  2  1  0  0  0  0
 49 19  1  0  0  0  0
 66 54  1  0  0  0  0
 12  5  1  0  0  0  0
 48 23  2  0  0  0  0
 47 25  2  0  0  0  0
 45 26  2  0  0  0  0
 31 27  2  0  0  0  0
 44 32  2  0  0  0  0
 42 33  2  0  0  0  0
 41 35  2  0  0  0  0
  1 67  1  0  0  0  0
  6 68  1  0  0  0  0
 11 69  1  0  0  0  0
 21 70  1  0  0  0  0
 21 71  1  0  0  0  0
 22 72  1  0  0  0  0
 22 73  1  0  0  0  0
 22 74  1  0  0  0  0
 37 75  1  0  0  0  0
 37 76  1  0  0  0  0
 38 77  1  0  0  0  0
 38 78  1  0  0  0  0
 38 79  1  0  0  0  0
 50 80  1  0  0  0  0
 50 81  1  0  0  0  0
 51 82  1  0  0  0  0
 51 83  1  0  0  0  0
 51 84  1  0  0  0  0
 52 85  1  0  0  0  0
 52 86  1  0  0  0  0
 53 87  1  0  0  0  0
 53 88  1  0  0  0  0
 53 89  1  0  0  0  0
 55 90  1  0  0  0  0
 56 91  1  0  0  0  0
M  END
