101

C          7.01230       -0.31450       -3.95560
C          7.71780       -0.27440       -5.13410
C          7.10830       -0.14250       -6.47100
O          5.94420        0.05680       -6.74860
C          8.20050       -0.43690       -7.42910
C          8.14250       -0.45940       -8.80700
C          9.29890       -0.77750       -9.51000
Cl         9.29750       -0.81550      -11.22990
C         10.46950       -1.06890       -8.80710
F         11.57760       -1.38120       -9.49080
C         10.53380       -1.05200       -7.42220
C          9.38060       -0.72960       -6.72490
C          9.11290       -0.61750       -5.29360
C         10.04280       -0.72930       -4.29150
C         11.39890       -1.04950       -4.50640
N         12.50960       -1.31540       -4.62200
C          9.77560       -0.50850       -2.92430
N          9.63390       -0.31960       -1.80030
C          5.72250        0.18780       -3.71980
C          5.05450        1.30120       -4.23360
C          5.67940        2.30780       -5.13760
C          5.40660        3.74840       -4.71220
C          3.77000        1.40830       -3.68880
S          2.44170        2.51260       -3.98040
C          1.47530        1.62390       -2.86070
C          0.16420        1.61410       -2.36700
C         -0.96760        2.37660       -2.72950
C         -2.24080        2.03060       -2.16840
N         -3.22300        2.78010       -2.64440
S         -2.59860        3.83380       -3.70130
N         -1.04970        3.37410       -3.59600
C         -2.29870        1.02840       -1.17540
C         -3.36290        0.59280       -0.37090
S         -5.05520        0.87820       -0.16960
C         -5.05810       -0.20910        1.19920
C         -6.06050       -0.58900        2.11470
C         -7.49590       -0.19990        1.98350
C         -8.05230       -0.50430        0.59390
C         -5.55000       -1.42050        3.08730
S         -3.84980       -1.79860        2.83420
C         -3.80110       -0.75990        1.45890
C         -2.83150       -0.30720        0.55480
N         -1.48980       -0.48180        0.33220
C         -1.13730        0.33100       -0.73790
C          0.08120        0.53770       -1.43530
N          1.29960       -0.11290       -1.41420
C          2.14440        0.54510       -2.27020
C          3.44850        0.41290       -2.74930
S          4.77140       -0.65750       -2.49440
C          1.64820       -1.43100       -0.93570
C          2.60890       -1.37730        0.25130
C         -0.67410       -0.94740        1.43360
C         -0.19840        0.22240        2.29290
C         -6.18010       -2.04880        4.20860
C         -7.07710       -1.51060        5.05980
C         -7.37580       -0.07150        5.09060
O         -6.65350        0.78010        4.62110
N         -8.53180        0.31460        5.78290
C         -8.73430        1.74840        5.97840
C         -8.04340        2.23020        7.24720
C         -9.47150       -0.52690        6.31610
O        -10.41960       -0.13300        6.94770
C         -9.24980       -2.01230        6.02910
C         -9.73850       -2.26360        4.69440
N        -10.08610       -2.43680        3.61950
C         -7.75470       -2.35490        6.10660
C         -7.19990       -2.09390        7.50800
H          7.45820       -0.84200       -3.11980
H          7.22280       -0.23350       -9.32260
H         11.46700       -1.29260       -6.93950
H          6.75770        2.13560       -5.16390
H          5.29970        2.14310       -6.15080
H          5.69540        3.90130       -3.67450
H          4.35650        4.00240       -4.82270
H          5.98710        4.42470       -5.33440
H         -7.58370        0.86980        2.19290
H         -8.08810       -0.73840        2.72540
H         -7.91710       -1.55730        0.35760
H         -7.56030        0.09250       -0.16900
H         -9.11590       -0.28330        0.57360
H          0.73140       -1.97450       -0.70400
H          2.14200       -1.96020       -1.75870
H          3.56650       -0.97260       -0.06530
H          2.22330       -0.74840        1.04890
H          2.77370       -2.37930        0.63760
H         -1.30500       -1.61040        2.03120
H          0.17440       -1.52460        1.08060
H         -1.05080        0.76730        2.69190
H          0.40310        0.91090        1.70250
H          0.39730       -0.14540        3.12390
H         -5.87330       -3.07480        4.38600
H         -9.80980        1.92130        6.03910
H         -8.32080        2.25600        5.10550
H         -6.97360        2.04150        7.18780
H         -8.45150        1.72050        8.11740
H         -8.20170        3.29820        7.36530
H         -9.84500       -2.58900        6.74480
H         -7.61690       -3.41400        5.86420
H         -7.71900       -2.70760        8.24110
H         -7.31340       -1.04950        7.78980
H         -6.14140       -2.34230        7.53490
