93

C          1.68940       -7.31140       -1.14150
C          2.01770       -8.48500       -0.52040
C          2.68470       -9.55830       -1.29740
O          3.13610       -9.47640       -2.41630
C          2.63150      -10.75660       -0.42640
C          3.02500      -12.04780       -0.71190
C          2.85030      -13.02210        0.26450
Cl         3.31730      -14.65140       -0.02840
C          2.28760      -12.66910        1.49300
F          2.10850      -13.61550        2.42210
C          1.90150      -11.37150        1.79230
C          2.07870      -10.40360        0.81770
C          1.81410       -8.96520        0.82600
C          1.65040       -8.20320        1.95580
C          1.69360       -6.79540        1.96940
N          1.77390       -5.65290        2.04930
C          1.51450       -8.73890        3.25230
N          1.37110       -9.12180        4.32490
C          0.78260       -6.30900       -0.74510
C         -0.38850       -6.37440        0.00700
C         -1.06170       -7.63580        0.44020
C         -2.50280       -7.70900       -0.06620
C         -0.92740       -5.10010        0.21210
S         -2.27680       -4.53430        1.17070
C         -1.83240       -2.90900        0.79490
C         -2.20700       -1.60570        1.13950
C         -3.16540       -1.15000        2.07120
C         -3.22990        0.25030        2.36130
N         -4.12640        0.53390        3.29290
S         -4.83140       -0.84630        3.76150
N         -4.01900       -1.85840        2.79310
C         -2.41530        1.13500        1.62120
C         -2.37230        2.53390        1.61380
S         -3.10210        3.86560        2.43990
C         -2.24210        4.95500        1.36870
C         -2.21970        6.34200        1.27090
C         -3.02690        7.23210        2.15860
C         -4.36100        7.59360        1.50050
C         -1.40380        6.76530        0.21480
S         -0.65020        5.41390       -0.63110
C         -1.43340        4.29990        0.42580
C         -1.50080        2.91070        0.58650
N         -0.98690        1.79580       -0.01720
C         -1.51280        0.68260        0.61100
C         -1.32890       -0.71920        0.44610
N         -0.42480       -1.48670       -0.26480
C         -0.72590       -2.80530       -0.05500
C         -0.19860       -4.05740       -0.38160
S          1.14180       -4.66520       -1.27290
C          0.80590       -1.14920       -0.94180
C          0.69000       -1.31890       -2.45630
C         -0.22190        1.94540       -1.23380
C          1.21070        2.40400       -0.96160
C         -1.21720        8.10620       -0.15100
C         -0.51400        8.65000       -1.18790
C          0.27410        7.99320       -2.22510
O          0.50070        6.80150       -2.35060
C          0.76310        9.07600       -3.11270
C          1.53720        8.99180       -4.25410
C          1.85820       10.17060       -4.91600
C          1.41560       11.39830       -4.44460
C          0.63750       11.48570       -3.29640
C          0.31600       10.31550       -2.63660
C         -0.49420       10.10890       -1.41060
O         -1.03610       10.95570       -0.73280
H          2.19530       -7.14570       -2.08870
H          3.45710      -12.29240       -1.66900
H          1.47220      -11.16240        2.75880
H         -1.06280       -7.68520        1.53400
H         -0.51060       -8.49660        0.05890
H         -2.52570       -7.62770       -1.15070
H         -2.94120       -8.66200        0.21840
H         -3.10810       -6.91250        0.35650
H         -2.47390        8.14270        2.39360
H         -3.22170        6.69850        3.09120
H         -4.19730        8.13290        0.57040
H         -4.92920        6.69230        1.28330
H         -4.94680        8.22030        2.16760
H          1.57940       -1.83220       -0.57330
H          1.10070       -0.13960       -0.67170
H         -0.15240       -0.76080       -2.85950
H          1.60160       -0.97210       -2.93420
H          0.54850       -2.36680       -2.70710
H         -0.25030        1.01290       -1.79090
H         -0.71730        2.71220       -1.83940
H          1.21260        3.42730       -0.59720
H          1.69890        1.77970       -0.21580
H          1.78610        2.37060       -1.88220
H         -1.72420        8.83550        0.47380
H          1.87700        8.03290       -4.61460
H          2.46060       10.13160       -5.81160
H          1.67940       12.29890       -4.97920
H          0.28850       12.43630       -2.92310
