
  xtb     02012217183D
 energy: -188.595507828636 gnorm: 0.000645527363 xtb: 6.4.1 (unknown)
103115  0     0  0            999 V2000
   -0.6850   -7.3013   -4.2441 C   0  0  0  0  0  0  0  0  0  0  0  0
   -0.2610   -8.2498   -5.1440 C   0  0  0  0  0  0  0  0  0  0  0  0
    0.8769   -8.0896   -6.0675 C   0  0  0  0  0  0  0  0  0  0  0  0
    1.5639   -7.1053   -6.2469 O   0  0  0  0  0  0  0  0  0  0  0  0
    1.1039   -9.4345   -6.6479 C   0  0  0  0  0  0  0  0  0  0  0  0
    2.0555   -9.8157   -7.5707 C   0  0  0  0  0  0  0  0  0  0  0  0
    2.0924  -11.1476   -7.9676 C   0  0  0  0  0  0  0  0  0  0  0  0
    3.2480  -11.6876   -9.1216 Cl  0  0  0  0  0  0  0  0  0  0  0  0
    1.1798  -12.0510   -7.4193 C   0  0  0  0  0  0  0  0  0  0  0  0
    1.2252  -13.3334   -7.8015 F   0  0  0  0  0  0  0  0  0  0  0  0
    0.2238  -11.6755   -6.4881 C   0  0  0  0  0  0  0  0  0  0  0  0
    0.1865  -10.3460   -6.0989 C   0  0  0  0  0  0  0  0  0  0  0  0
   -0.6831   -9.6329   -5.1668 C   0  0  0  0  0  0  0  0  0  0  0  0
   -1.7595  -10.1684   -4.5064 C   0  0  0  0  0  0  0  0  0  0  0  0
   -2.6513   -9.4355   -3.6958 C   0  0  0  0  0  0  0  0  0  0  0  0
   -3.4321   -8.8986   -3.0470 N   0  0  0  0  0  0  0  0  0  0  0  0
   -2.1319  -11.5266   -4.5768 C   0  0  0  0  0  0  0  0  0  0  0  0
   -2.4743  -12.6221   -4.5874 N   0  0  0  0  0  0  0  0  0  0  0  0
   -0.4870   -5.9130   -4.2965 C   0  0  0  0  0  0  0  0  0  0  0  0
   -0.3959   -5.0251   -5.3717 C   0  0  0  0  0  0  0  0  0  0  0  0
   -0.5756   -5.4256   -6.7952 C   0  0  0  0  0  0  0  0  0  0  0  0
   -1.4262   -4.4503   -7.6035 C   0  0  0  0  0  0  0  0  0  0  0  0
   -0.2433   -3.7083   -4.9213 C   0  0  0  0  0  0  0  0  0  0  0  0
   -0.0260   -2.1793   -5.7502 S   0  0  0  0  0  0  0  0  0  0  0  0
    0.0604   -1.3786   -4.2239 C   0  0  0  0  0  0  0  0  0  0  0  0
    0.1736   -0.0793   -3.7124 C   0  0  0  0  0  0  0  0  0  0  0  0
    0.2193    1.1666   -4.3745 C   0  0  0  0  0  0  0  0  0  0  0  0
    0.1867    2.3650   -3.5907 C   0  0  0  0  0  0  0  0  0  0  0  0
    0.1815    3.4585   -4.3375 N   0  0  0  0  0  0  0  0  0  0  0  0
    0.2204    3.0159   -5.8937 S   0  0  0  0  0  0  0  0  0  0  0  0
    0.2417    1.4119   -5.6753 N   0  0  0  0  0  0  0  0  0  0  0  0
    0.2075    2.2585   -2.1834 C   0  0  0  0  0  0  0  0  0  0  0  0
    0.2539    3.2504   -1.1927 C   0  0  0  0  0  0  0  0  0  0  0  0
    0.2242    4.9752   -1.0630 S   0  0  0  0  0  0  0  0  0  0  0  0
    0.3691    4.8219    0.6711 C   0  0  0  0  0  0  0  0  0  0  0  0
    0.4088    5.7769    1.7109 C   0  0  0  0  0  0  0  0  0  0  0  0
    0.3085    7.2483    1.4615 C   0  0  0  0  0  0  0  0  0  0  0  0
    1.5599    7.7851    0.7657 C   0  0  0  0  0  0  0  0  0  0  0  0
    0.4912    5.1728    2.9391 C   0  0  0  0  0  0  0  0  0  0  0  0
    0.5498    3.4176    2.8276 S   0  0  0  0  0  0  0  0  0  0  0  0
    0.4405    3.4997    1.1046 C   0  0  0  0  0  0  0  0  0  0  0  0
    0.3705    2.5953    0.0340 C   0  0  0  0  0  0  0  0  0  0  0  0
    0.3713    1.2402   -0.1538 N   0  0  0  0  0  0  0  0  0  0  0  0
    0.2573    1.0008   -1.5167 C   0  0  0  0  0  0  0  0  0  0  0  0
    0.1399   -0.1852   -2.2906 C   0  0  0  0  0  0  0  0  0  0  0  0
   -0.0102   -1.5223   -1.9610 N   0  0  0  0  0  0  0  0  0  0  0  0
   -0.0686   -2.2386   -3.1283 C   0  0  0  0  0  0  0  0  0  0  0  0
   -0.2411   -3.5666   -3.5228 C   0  0  0  0  0  0  0  0  0  0  0  0
   -0.4651   -5.0808   -2.7376 S   0  0  0  0  0  0  0  0  0  0  0  0
   -0.4561   -2.1366   -0.7304 C   0  0  0  0  0  0  0  0  0  0  0  0
   -1.8286   -1.6162   -0.3109 C   0  0  0  0  0  0  0  0  0  0  0  0
    0.8397    0.3784    0.9088 C   0  0  0  0  0  0  0  0  0  0  0  0
    2.2152   -0.2037    0.5929 C   0  0  0  0  0  0  0  0  0  0  0  0
    0.5921    5.8065    4.2456 C   0  0  0  0  0  0  0  0  0  0  0  0
    1.5737    6.7589    4.4531 C   0  0  0  0  0  0  0  0  0  0  0  0
    1.7439    7.3677    5.6926 C   0  0  0  0  0  0  0  0  0  0  0  0
    0.9388    7.0204    6.7581 C   0  0  0  0  0  0  0  0  0  0  0  0
    1.1530    7.6565    8.0678 C   0  0  0  0  0  0  0  0  0  0  0  0
    2.0124    8.4936    8.2564 O   0  0  0  0  0  0  0  0  0  0  0  0
    0.3220    7.2455    9.0965 N   0  0  0  0  0  0  0  0  0  0  0  0
    0.5244    7.8652   10.4027 C   0  0  0  0  0  0  0  0  0  0  0  0
   -0.3297    9.1173   10.5545 C   0  0  0  0  0  0  0  0  0  0  0  0
   -0.7137    6.3334    8.9886 C   0  0  0  0  0  0  0  0  0  0  0  0
   -1.4046    6.0594    9.9487 O   0  0  0  0  0  0  0  0  0  0  0  0
   -0.9189    5.7218    7.6636 C   0  0  0  0  0  0  0  0  0  0  0  0
   -1.9424    4.8144    7.4897 C   0  0  0  0  0  0  0  0  0  0  0  0
   -2.1694    4.2480    6.2347 C   0  0  0  0  0  0  0  0  0  0  0  0
   -1.3630    4.5634    5.1712 C   0  0  0  0  0  0  0  0  0  0  0  0
   -0.2817    5.4563    5.3156 C   0  0  0  0  0  0  0  0  0  0  0  0
   -0.0824    6.0654    6.5818 C   0  0  0  0  0  0  0  0  0  0  0  0
   -1.1949   -7.6519   -3.3536 H   0  0  0  0  0  0  0  0  0  0  0  0
    2.7496   -9.0962   -7.9746 H   0  0  0  0  0  0  0  0  0  0  0  0
   -0.4482  -12.4231   -6.0993 H   0  0  0  0  0  0  0  0  0  0  0  0
   -1.0343   -6.4172   -6.8222 H   0  0  0  0  0  0  0  0  0  0  0  0
    0.4149   -5.5188   -7.2530 H   0  0  0  0  0  0  0  0  0  0  0  0
   -1.6286   -4.8758   -8.5832 H   0  0  0  0  0  0  0  0  0  0  0  0
   -0.9164   -3.5020   -7.7452 H   0  0  0  0  0  0  0  0  0  0  0  0
   -2.3755   -4.2654   -7.1056 H   0  0  0  0  0  0  0  0  0  0  0  0
   -0.5551    7.4283    0.8159 H   0  0  0  0  0  0  0  0  0  0  0  0
    0.1493    7.7727    2.4049 H   0  0  0  0  0  0  0  0  0  0  0  0
    1.7005    7.2938   -0.1939 H   0  0  0  0  0  0  0  0  0  0  0  0
    1.4605    8.8538    0.5955 H   0  0  0  0  0  0  0  0  0  0  0  0
    2.4459    7.6133    1.3728 H   0  0  0  0  0  0  0  0  0  0  0  0
   -0.5233   -3.2097   -0.9255 H   0  0  0  0  0  0  0  0  0  0  0  0
    0.2852   -2.0014    0.0570 H   0  0  0  0  0  0  0  0  0  0  0  0
   -2.5655   -1.8587   -1.0730 H   0  0  0  0  0  0  0  0  0  0  0  0
   -1.8182   -0.5365   -0.1811 H   0  0  0  0  0  0  0  0  0  0  0  0
   -2.1320   -2.0817    0.6228 H   0  0  0  0  0  0  0  0  0  0  0  0
    0.1103   -0.4034    1.1229 H   0  0  0  0  0  0  0  0  0  0  0  0
    0.9109    1.0018    1.8037 H   0  0  0  0  0  0  0  0  0  0  0  0
    2.2007   -0.7709   -0.3348 H   0  0  0  0  0  0  0  0  0  0  0  0
    2.5360   -0.8562    1.4004 H   0  0  0  0  0  0  0  0  0  0  0  0
    2.9418    0.5985    0.4869 H   0  0  0  0  0  0  0  0  0  0  0  0
    2.2409    7.0131    3.6441 H   0  0  0  0  0  0  0  0  0  0  0  0
    2.5181    8.1045    5.8441 H   0  0  0  0  0  0  0  0  0  0  0  0
    0.2524    7.1269   11.1592 H   0  0  0  0  0  0  0  0  0  0  0  0
    1.5835    8.1156   10.4827 H   0  0  0  0  0  0  0  0  0  0  0  0
   -0.1588    9.5602   11.5316 H   0  0  0  0  0  0  0  0  0  0  0  0
   -1.3837    8.8652   10.4637 H   0  0  0  0  0  0  0  0  0  0  0  0
   -0.0683    9.8448    9.7895 H   0  0  0  0  0  0  0  0  0  0  0  0
   -2.5670    4.5672    8.3348 H   0  0  0  0  0  0  0  0  0  0  0  0
   -2.9916    3.5613    6.1021 H   0  0  0  0  0  0  0  0  0  0  0  0
   -1.5680    4.1319    4.2039 H   0  0  0  0  0  0  0  0  0  0  0  0
  1  2  2  0  0  0  0
  2  3  1  0  0  0  0
  3  4  2  0  0  0  0
  3  5  1  0  0  0  0
  5  6  2  0  0  0  0
  6  7  1  0  0  0  0
  7  8  1  0  0  0  0
  7  9  2  0  0  0  0
  9 10  1  0  0  0  0
  9 11  1  0  0  0  0
 11 12  2  0  0  0  0
 12 13  1  0  0  0  0
 13 14  2  0  0  0  0
 14 15  1  0  0  0  0
 15 16  3  0  0  0  0
 14 17  1  0  0  0  0
 17 18  3  0  0  0  0
  1 19  1  0  0  0  0
 19 20  2  0  0  0  0
 20 21  1  0  0  0  0
 21 22  1  0  0  0  0
 20 23  1  0  0  0  0
 23 24  1  0  0  0  0
 24 25  1  0  0  0  0
 25 26  1  0  0  0  0
 26 27  1  0  0  0  0
 27 28  1  0  0  0  0
 28 29  2  0  0  0  0
 29 30  1  0  0  0  0
 30 31  1  0  0  0  0
 28 32  1  0  0  0  0
 32 33  1  0  0  0  0
 33 34  1  0  0  0  0
 34 35  1  0  0  0  0
 35 36  1  0  0  0  0
 36 37  1  0  0  0  0
 37 38  1  0  0  0  0
 36 39  2  0  0  0  0
 39 40  1  0  0  0  0
 40 41  1  0  0  0  0
 41 42  1  0  0  0  0
 42 43  1  0  0  0  0
 43 44  1  0  0  0  0
 44 45  1  0  0  0  0
 45 46  1  0  0  0  0
 46 47  1  0  0  0  0
 47 48  1  0  0  0  0
 48 49  1  0  0  0  0
 46 50  1  0  0  0  0
 50 51  1  0  0  0  0
 43 52  1  0  0  0  0
 52 53  1  0  0  0  0
 39 54  1  0  0  0  0
 54 55  2  0  0  0  0
 55 56  1  0  0  0  0
 56 57  2  0  0  0  0
 57 58  1  0  0  0  0
 58 59  2  0  0  0  0
 58 60  1  0  0  0  0
 60 61  1  0  0  0  0
 61 62  1  0  0  0  0
 60 63  1  0  0  0  0
 63 64  2  0  0  0  0
 63 65  1  0  0  0  0
 65 66  1  0  0  0  0
 66 67  2  0  0  0  0
 67 68  1  0  0  0  0
 68 69  2  0  0  0  0
 69 70  1  0  0  0  0
 13  2  1  0  0  0  0
 49 19  1  0  0  0  0
 69 54  1  0  0  0  0
 12  5  1  0  0  0  0
 48 23  2  0  0  0  0
 70 57  1  0  0  0  0
 47 25  2  0  0  0  0
 70 65  2  0  0  0  0
 45 26  2  0  0  0  0
 31 27  2  0  0  0  0
 44 32  2  0  0  0  0
 42 33  2  0  0  0  0
 41 35  2  0  0  0  0
  1 71  1  0  0  0  0
  6 72  1  0  0  0  0
 11 73  1  0  0  0  0
 21 74  1  0  0  0  0
 21 75  1  0  0  0  0
 22 76  1  0  0  0  0
 22 77  1  0  0  0  0
 22 78  1  0  0  0  0
 37 79  1  0  0  0  0
 37 80  1  0  0  0  0
 38 81  1  0  0  0  0
 38 82  1  0  0  0  0
 38 83  1  0  0  0  0
 50 84  1  0  0  0  0
 50 85  1  0  0  0  0
 51 86  1  0  0  0  0
 51 87  1  0  0  0  0
 51 88  1  0  0  0  0
 52 89  1  0  0  0  0
 52 90  1  0  0  0  0
 53 91  1  0  0  0  0
 53 92  1  0  0  0  0
 53 93  1  0  0  0  0
 55 94  1  0  0  0  0
 56 95  1  0  0  0  0
 61 96  1  0  0  0  0
 61 97  1  0  0  0  0
 62 98  1  0  0  0  0
 62 99  1  0  0  0  0
 62100  1  0  0  0  0
 66101  1  0  0  0  0
 67102  1  0  0  0  0
 68103  1  0  0  0  0
M  END
