103

C         -7.73810       -1.28660       -3.36630
C         -7.50670       -0.81940       -4.64110
C         -6.23320       -0.32880       -5.16460
O         -5.16800       -0.22890       -4.58040
C         -6.48370        0.03420       -6.57520
C         -5.59430        0.54120       -7.49950
C         -6.06040        0.81140       -8.78080
Cl        -5.00580        1.44330       -9.98380
C         -7.40010        0.56440       -9.08660
F         -7.84290        0.82690      -10.32200
C         -8.29850        0.05500       -8.16090
C         -7.83160       -0.21490       -6.88450
C         -8.49760       -0.74660       -5.69520
C         -9.82270       -1.09660       -5.62780
C        -10.48690       -1.60530       -4.49260
N        -11.10070       -2.02410       -3.61600
C        -10.72170       -0.99140       -6.71020
N        -11.50390       -0.93210       -7.54800
C         -6.88900       -1.40560       -2.26590
C         -7.30440       -1.93570       -1.02830
C         -8.65610       -2.49640       -0.73130
C         -8.75670       -3.94690       -1.21220
C         -6.27030       -1.93270       -0.10490
S         -6.18290       -2.43920        1.57270
C         -4.53170       -1.92700        1.60900
C         -3.48480       -1.79440        2.52950
C         -3.44120       -1.97570        3.93130
C         -2.28460       -1.52810        4.65420
N         -2.41730       -1.68080        5.96190
S         -3.86530       -2.33900        6.25970
N         -4.38350       -2.44980        4.72990
C         -1.16770       -1.04840        3.93260
C          0.10280       -0.62420        4.34770
S          0.97880       -0.33230        5.81070
C          2.37830        0.11390        4.84910
C          3.65680        0.53180        5.18930
C          4.09040        0.74330        6.60270
C          3.92310        2.21110        7.00650
C          4.43570        0.78250        4.04310
S          3.54330        0.47880        2.55010
C          2.15590        0.02860        3.46320
C          0.85190       -0.38550        3.18810
N          0.09040       -0.62580        2.07360
C         -1.16650       -1.00550        2.50740
C         -2.37990       -1.24320        1.81550
N         -2.77080       -1.00530        0.51490
C         -4.07010       -1.41780        0.38590
C         -5.06130       -1.40520       -0.59680
S         -5.19520       -0.90960       -2.24000
C         -2.17110       -0.16680       -0.49990
C         -1.72070       -0.96900       -1.72140
C          0.77250       -0.96500        0.84180
C          1.50850       -2.29790        0.97460
C          5.76030        1.22150        4.10740
C          6.65620        1.53660        3.11230
C          6.40300        1.48330        1.67150
O          5.38090        1.13720        1.10400
C          7.64820        1.93230        1.01900
C          7.91250        2.06530       -0.32700
C          9.17980        2.51150       -0.70220
C          9.55560        2.68750       -2.12980
O         10.63790        3.06610       -2.50300
O          8.55440        2.37670       -2.96260
C          8.83300        2.52030       -4.34750
C         10.13570        2.80730        0.26920
C          9.86550        2.67190        1.62240
C          8.60740        2.22980        2.00430
C          8.01670        1.98820        3.32230
C          8.66580        2.16350        4.51830
C         10.00130        2.60250        4.64040
N         11.07970        2.95300        4.81920
C          8.11600        1.93730        5.79720
N          7.74630        1.77250        6.87280
H         -8.74490       -1.62670       -3.16720
H         -4.56550        0.72180       -7.23210
H         -9.31870       -0.11150       -8.46530
H         -8.80780       -2.46800        0.34940
H         -9.44100       -1.90340       -1.20270
H         -8.60470       -4.00780       -2.28730
H         -9.74090       -4.34340       -0.98080
H         -8.00670       -4.56130       -0.71960
H          5.12990        0.44490        6.74550
H          3.46460        0.12350        7.24770
H          2.88310        2.51390        6.90990
H          4.23230        2.34560        8.03890
H          4.53280        2.85590        6.37780
H         -1.35090        0.39550       -0.05180
H         -2.92950        0.55510       -0.82240
H         -2.58420       -1.30550       -2.28790
H         -1.11460       -0.34160       -2.36860
H         -1.14320       -1.84600       -1.43630
H          1.48980       -0.16750        0.62700
H          0.06150       -1.03850        0.02850
H          1.99890       -2.53690        0.03530
H          0.80840       -3.09470        1.21860
H          2.26440       -2.24720        1.75350
H          6.12380        1.33170        5.11970
H          7.15990        1.83120       -1.06290
H          7.95980        2.14410       -4.87410
H          9.00500        3.57070       -4.59180
H          9.72310        1.94810       -4.61680
H         11.10520        3.14920       -0.06090
H         10.62700        2.90990        2.34650
