
  xtb     02012218283D
 energy: -188.068233127085 gnorm: 0.000429710148 xtb: 6.4.1 (unknown)
 97109  0     0  0            999 V2000
    2.7744    7.4242    3.9621 C   0  0  0  0  0  0  0  0  0  0  0  0
    1.8366    7.9626    4.8154 C   0  0  0  0  0  0  0  0  0  0  0  0
    0.4964    7.4371    5.0692 C   0  0  0  0  0  0  0  0  0  0  0  0
   -0.0280    6.4494    4.5846 O   0  0  0  0  0  0  0  0  0  0  0  0
   -0.1201    8.3502    6.0548 C   0  0  0  0  0  0  0  0  0  0  0  0
   -1.3786    8.2824    6.6154 C   0  0  0  0  0  0  0  0  0  0  0  0
   -1.7421    9.2585    7.5357 C   0  0  0  0  0  0  0  0  0  0  0  0
   -3.2955    9.2342    8.2742 Cl  0  0  0  0  0  0  0  0  0  0  0  0
   -0.8308   10.2653    7.8598 C   0  0  0  0  0  0  0  0  0  0  0  0
   -1.1859   11.2015    8.7482 F   0  0  0  0  0  0  0  0  0  0  0  0
    0.4353   10.3388    7.2984 C   0  0  0  0  0  0  0  0  0  0  0  0
    0.7954    9.3651    6.3807 C   0  0  0  0  0  0  0  0  0  0  0  0
    2.0268    9.1516    5.6197 C   0  0  0  0  0  0  0  0  0  0  0  0
    3.1397    9.9517    5.6869 C   0  0  0  0  0  0  0  0  0  0  0  0
    4.3355    9.7679    4.9624 C   0  0  0  0  0  0  0  0  0  0  0  0
    5.3404    9.6910    4.4101 N   0  0  0  0  0  0  0  0  0  0  0  0
    3.2420   11.0932    6.5097 C   0  0  0  0  0  0  0  0  0  0  0  0
    3.3931   12.0302    7.1552 N   0  0  0  0  0  0  0  0  0  0  0  0
    2.7340    6.2885    3.1537 C   0  0  0  0  0  0  0  0  0  0  0  0
    3.8115    5.8887    2.3388 C   0  0  0  0  0  0  0  0  0  0  0  0
    5.0972    6.6289    2.1687 C   0  0  0  0  0  0  0  0  0  0  0  0
    4.9452    7.7543    1.1413 C   0  0  0  0  0  0  0  0  0  0  0  0
    3.5193    4.7211    1.6511 C   0  0  0  0  0  0  0  0  0  0  0  0
    4.4500    3.7519    0.5224 S   0  0  0  0  0  0  0  0  0  0  0  0
    3.1218    2.6492    0.4260 C   0  0  0  0  0  0  0  0  0  0  0  0
    2.7970    1.4339   -0.1871 C   0  0  0  0  0  0  0  0  0  0  0  0
    3.5788    0.5710   -0.9866 C   0  0  0  0  0  0  0  0  0  0  0  0
    3.0323   -0.6950   -1.3731 C   0  0  0  0  0  0  0  0  0  0  0  0
    3.8887   -1.4247   -2.0706 N   0  0  0  0  0  0  0  0  0  0  0  0
    5.2636   -0.5860   -2.2318 S   0  0  0  0  0  0  0  0  0  0  0  0
    4.8199    0.7392   -1.4148 N   0  0  0  0  0  0  0  0  0  0  0  0
    1.6971   -0.9948   -1.0248 C   0  0  0  0  0  0  0  0  0  0  0  0
    0.9004   -2.1044   -1.3384 C   0  0  0  0  0  0  0  0  0  0  0  0
    1.0319   -3.6296   -2.1372 S   0  0  0  0  0  0  0  0  0  0  0  0
   -0.6584   -3.9395   -1.7972 C   0  0  0  0  0  0  0  0  0  0  0  0
   -1.5173   -5.0095   -2.0993 C   0  0  0  0  0  0  0  0  0  0  0  0
   -1.0912   -6.2964   -2.7197 C   0  0  0  0  0  0  0  0  0  0  0  0
    0.2691   -6.7877   -2.2343 C   0  0  0  0  0  0  0  0  0  0  0  0
   -2.8042   -4.7579   -1.6364 C   0  0  0  0  0  0  0  0  0  0  0  0
   -2.9220   -3.2277   -0.7669 S   0  0  0  0  0  0  0  0  0  0  0  0
   -1.2675   -2.8886   -1.0972 C   0  0  0  0  0  0  0  0  0  0  0  0
   -0.3761   -1.8440   -0.8321 C   0  0  0  0  0  0  0  0  0  0  0  0
   -0.3932   -0.6309   -0.1986 N   0  0  0  0  0  0  0  0  0  0  0  0
    0.8789   -0.0870   -0.2900 C   0  0  0  0  0  0  0  0  0  0  0  0
    1.4686    1.1016    0.2194 C   0  0  0  0  0  0  0  0  0  0  0  0
    1.0221    2.0898    1.0780 N   0  0  0  0  0  0  0  0  0  0  0  0
    2.0208    3.0171    1.2097 C   0  0  0  0  0  0  0  0  0  0  0  0
    2.2394    4.1999    1.9194 C   0  0  0  0  0  0  0  0  0  0  0  0
    1.3659    5.1774    3.0366 S   0  0  0  0  0  0  0  0  0  0  0  0
   -0.0739    2.0965    2.0214 C   0  0  0  0  0  0  0  0  0  0  0  0
    0.0551    0.9618    3.0345 C   0  0  0  0  0  0  0  0  0  0  0  0
   -1.6630   -0.0013    0.0898 C   0  0  0  0  0  0  0  0  0  0  0  0
   -1.9378    1.1625   -0.8594 C   0  0  0  0  0  0  0  0  0  0  0  0
   -3.9805   -5.5411   -1.6505 C   0  0  0  0  0  0  0  0  0  0  0  0
   -4.4070   -6.4049   -2.6166 C   0  0  0  0  0  0  0  0  0  0  0  0
   -3.9450   -6.4308   -4.0295 C   0  0  0  0  0  0  0  0  0  0  0  0
   -3.1096   -5.7227   -4.5506 O   0  0  0  0  0  0  0  0  0  0  0  0
   -4.8142   -7.4147   -4.6908 C   0  0  0  0  0  0  0  0  0  0  0  0
   -5.7388   -7.9007   -3.7744 C   0  0  0  0  0  0  0  0  0  0  0  0
   -6.8407   -9.0545   -4.4355 S   0  0  0  0  0  0  0  0  0  0  0  0
   -6.0616   -8.8917   -5.9782 C   0  0  0  0  0  0  0  0  0  0  0  0
   -6.2630   -9.4819   -7.2392 C   0  0  0  0  0  0  0  0  0  0  0  0
   -5.3640   -9.0131   -8.1454 C   0  0  0  0  0  0  0  0  0  0  0  0
   -4.2532   -7.8517   -7.5047 S   0  0  0  0  0  0  0  0  0  0  0  0
   -4.9997   -7.9767   -5.9584 C   0  0  0  0  0  0  0  0  0  0  0  0
   -5.5403   -7.3123   -2.4821 C   0  0  0  0  0  0  0  0  0  0  0  0
   -6.2665   -7.6158   -1.3571 C   0  0  0  0  0  0  0  0  0  0  0  0
   -6.0449   -7.0894   -0.0712 C   0  0  0  0  0  0  0  0  0  0  0  0
   -5.9088   -6.7060    1.0030 N   0  0  0  0  0  0  0  0  0  0  0  0
   -7.3333   -8.5364   -1.4134 C   0  0  0  0  0  0  0  0  0  0  0  0
   -8.2045   -9.2825   -1.4520 N   0  0  0  0  0  0  0  0  0  0  0  0
    3.7116    7.9596    3.8985 H   0  0  0  0  0  0  0  0  0  0  0  0
   -2.0598    7.4915    6.3451 H   0  0  0  0  0  0  0  0  0  0  0  0
    1.0882   11.1434    7.5943 H   0  0  0  0  0  0  0  0  0  0  0  0
    5.4382    7.0482    3.1163 H   0  0  0  0  0  0  0  0  0  0  0  0
    5.8519    5.9238    1.8150 H   0  0  0  0  0  0  0  0  0  0  0  0
    5.8921    8.2728    1.0226 H   0  0  0  0  0  0  0  0  0  0  0  0
    4.1971    8.4739    1.4653 H   0  0  0  0  0  0  0  0  0  0  0  0
    4.6443    7.3490    0.1781 H   0  0  0  0  0  0  0  0  0  0  0  0
   -1.8497   -7.0535   -2.5047 H   0  0  0  0  0  0  0  0  0  0  0  0
   -1.0697   -6.1633   -3.8062 H   0  0  0  0  0  0  0  0  0  0  0  0
    0.4488   -7.7894   -2.6167 H   0  0  0  0  0  0  0  0  0  0  0  0
    0.2993   -6.8230   -1.1474 H   0  0  0  0  0  0  0  0  0  0  0  0
    1.0704   -6.1434   -2.5841 H   0  0  0  0  0  0  0  0  0  0  0  0
   -1.0298    2.0670    1.4993 H   0  0  0  0  0  0  0  0  0  0  0  0
   -0.0257    3.0532    2.5468 H   0  0  0  0  0  0  0  0  0  0  0  0
    0.0911   -0.0076    2.5424 H   0  0  0  0  0  0  0  0  0  0  0  0
    0.9691    1.0831    3.6112 H   0  0  0  0  0  0  0  0  0  0  0  0
   -0.7885    0.9797    3.7189 H   0  0  0  0  0  0  0  0  0  0  0  0
   -2.4280   -0.7684   -0.0520 H   0  0  0  0  0  0  0  0  0  0  0  0
   -1.7122    0.3079    1.1335 H   0  0  0  0  0  0  0  0  0  0  0  0
   -1.1526    1.9130   -0.8027 H   0  0  0  0  0  0  0  0  0  0  0  0
   -1.9876    0.8017   -1.8841 H   0  0  0  0  0  0  0  0  0  0  0  0
   -2.8880    1.6269   -0.6102 H   0  0  0  0  0  0  0  0  0  0  0  0
   -4.6261   -5.3947   -0.7915 H   0  0  0  0  0  0  0  0  0  0  0  0
   -7.0254  -10.2061   -7.4572 H   0  0  0  0  0  0  0  0  0  0  0  0
   -5.2815   -9.2847   -9.1792 H   0  0  0  0  0  0  0  0  0  0  0  0
  1  2  2  0  0  0  0
  2  3  1  0  0  0  0
  3  4  2  0  0  0  0
  3  5  1  0  0  0  0
  5  6  2  0  0  0  0
  6  7  1  0  0  0  0
  7  8  1  0  0  0  0
  7  9  2  0  0  0  0
  9 10  1  0  0  0  0
  9 11  1  0  0  0  0
 11 12  2  0  0  0  0
 12 13  1  0  0  0  0
 13 14  2  0  0  0  0
 14 15  1  0  0  0  0
 15 16  3  0  0  0  0
 14 17  1  0  0  0  0
 17 18  3  0  0  0  0
  1 19  1  0  0  0  0
 19 20  2  0  0  0  0
 20 21  1  0  0  0  0
 21 22  1  0  0  0  0
 20 23  1  0  0  0  0
 23 24  1  0  0  0  0
 24 25  1  0  0  0  0
 25 26  1  0  0  0  0
 26 27  1  0  0  0  0
 27 28  1  0  0  0  0
 28 29  2  0  0  0  0
 29 30  1  0  0  0  0
 30 31  1  0  0  0  0
 28 32  1  0  0  0  0
 32 33  1  0  0  0  0
 33 34  1  0  0  0  0
 34 35  1  0  0  0  0
 35 36  1  0  0  0  0
 36 37  1  0  0  0  0
 37 38  1  0  0  0  0
 36 39  2  0  0  0  0
 39 40  1  0  0  0  0
 40 41  1  0  0  0  0
 41 42  1  0  0  0  0
 42 43  1  0  0  0  0
 43 44  1  0  0  0  0
 44 45  1  0  0  0  0
 45 46  1  0  0  0  0
 46 47  1  0  0  0  0
 47 48  1  0  0  0  0
 48 49  1  0  0  0  0
 46 50  1  0  0  0  0
 50 51  1  0  0  0  0
 43 52  1  0  0  0  0
 52 53  1  0  0  0  0
 39 54  1  0  0  0  0
 54 55  2  0  0  0  0
 55 56  1  0  0  0  0
 56 57  2  0  0  0  0
 56 58  1  0  0  0  0
 58 59  2  0  0  0  0
 59 60  1  0  0  0  0
 60 61  1  0  0  0  0
 61 62  1  0  0  0  0
 62 63  2  0  0  0  0
 63 64  1  0  0  0  0
 64 65  1  0  0  0  0
 59 66  1  0  0  0  0
 66 67  2  0  0  0  0
 67 68  1  0  0  0  0
 68 69  3  0  0  0  0
 67 70  1  0  0  0  0
 70 71  3  0  0  0  0
 13  2  1  0  0  0  0
 49 19  1  0  0  0  0
 66 55  1  0  0  0  0
 12  5  1  0  0  0  0
 48 23  2  0  0  0  0
 65 58  1  0  0  0  0
 47 25  2  0  0  0  0
 65 61  2  0  0  0  0
 45 26  2  0  0  0  0
 31 27  2  0  0  0  0
 44 32  2  0  0  0  0
 42 33  2  0  0  0  0
 41 35  2  0  0  0  0
  1 72  1  0  0  0  0
  6 73  1  0  0  0  0
 11 74  1  0  0  0  0
 21 75  1  0  0  0  0
 21 76  1  0  0  0  0
 22 77  1  0  0  0  0
 22 78  1  0  0  0  0
 22 79  1  0  0  0  0
 37 80  1  0  0  0  0
 37 81  1  0  0  0  0
 38 82  1  0  0  0  0
 38 83  1  0  0  0  0
 38 84  1  0  0  0  0
 50 85  1  0  0  0  0
 50 86  1  0  0  0  0
 51 87  1  0  0  0  0
 51 88  1  0  0  0  0
 51 89  1  0  0  0  0
 52 90  1  0  0  0  0
 52 91  1  0  0  0  0
 53 92  1  0  0  0  0
 53 93  1  0  0  0  0
 53 94  1  0  0  0  0
 54 95  1  0  0  0  0
 62 96  1  0  0  0  0
 63 97  1  0  0  0  0
M  END
