103

C         -7.30870       -3.37600       -3.19660
C         -7.79780       -2.22380       -3.74540
C         -9.26220       -2.01970       -3.84470
O        -10.12920       -2.84930       -3.69260
C         -9.42890       -0.56930       -4.10690
C        -10.59450        0.16560       -4.17840
C        -10.49920        1.53360       -4.40810
Cl       -11.91400        2.50700       -4.50440
C         -9.24010        2.11880       -4.56020
F         -9.15700        3.43900       -4.76600
C         -8.06480        1.38580       -4.50390
C         -8.16430        0.02410       -4.27340
C         -7.14450       -1.01940       -4.20120
C         -5.88740       -0.93730       -4.74440
C         -5.07330       -2.06820       -4.96400
N         -4.41430       -2.97570       -5.20920
C         -5.31050        0.25660       -5.21730
N         -4.78260        1.20900       -5.58110
C         -6.05480       -3.61440       -2.60470
C         -5.50410       -4.85670       -2.30010
C         -6.12950       -6.17560       -2.61220
C         -6.96590       -6.66450       -1.42630
C         -4.27530       -4.72650       -1.65170
S         -3.12140       -5.90450       -1.06870
C         -2.10650       -4.60980       -0.54260
C         -0.87320       -4.42160        0.09250
C          0.02410       -5.35970        0.64840
C          1.18920       -4.88000        1.32820
N          1.91670       -5.86050        1.83950
S          1.19760       -7.26780        1.49010
N         -0.07140       -6.67980        0.67490
C          1.44770       -3.49170        1.33750
C          2.54770       -2.77520        1.82300
S          4.03170       -3.06200        2.65610
C          4.41180       -1.34800        2.53520
C          5.48630       -0.56820        2.94790
C          6.71470       -1.03880        3.66510
C          6.78390       -2.54010        3.90480
C          5.29420        0.78720        2.60470
S          3.77060        1.06390        1.76770
C          3.40620       -0.61440        1.87420
C          2.34820       -1.43550        1.47350
N          1.15650       -1.29530        0.81440
C          0.57280       -2.54710        0.71940
C         -0.65300       -3.01380        0.17280
N         -1.75480       -2.37450       -0.37230
C         -2.62960       -3.33600       -0.80020
C         -3.87350       -3.40040       -1.42910
S         -5.04040       -2.28600       -2.03280
C         -2.21440       -1.01030       -0.23600
C         -2.41250       -0.63180        1.22970
C          0.89620       -0.07810        0.07760
C          1.04120       -0.29470       -1.42670
C          6.22910        1.78380        2.89920
C          6.21300        3.13780        2.66130
C          5.12540        3.89590        2.03850
O          4.07730        3.45860        1.58970
C          5.54010        5.30660        2.06110
C          4.86340        6.40570        1.61870
C          5.46130        7.67970        1.74840
C          4.81170        8.85160        1.31490
C          5.41060       10.07490        1.45170
C          6.68540       10.17860        2.02700
C          7.34310        9.05870        2.45870
C          6.75520        7.78400        2.33430
C          7.43140        6.62510        2.78270
C          6.83330        5.40080        2.65030
C          7.27370        4.05810        3.01880
C          8.48730        3.75450        3.58550
C          9.47490        4.71210        3.89570
N         10.32220        5.43520        4.17490
C          8.93880        2.46610        3.93390
N          9.38010        1.45090        4.24510
H         -8.02680       -4.18700       -3.12820
H        -11.55420       -0.31140       -4.05980
H         -7.12140        1.89240       -4.62910
H         -5.33400       -6.89650       -2.81000
H         -6.75340       -6.09800       -3.50230
H         -7.40430       -7.63170       -1.65620
H         -6.34250       -6.76800       -0.54140
H         -7.76780       -5.96360       -1.20530
H          6.77380       -0.52390        4.62930
H          7.59460       -0.73480        3.08990
H          6.75590       -3.08720        2.96600
H          5.96180       -2.87650        4.53100
H          7.71670       -2.77770        4.41010
H         -3.17450       -0.95360       -0.75500
H         -1.53800       -0.32330       -0.74360
H         -2.73760        0.40230        1.30430
H         -1.49250       -0.75410        1.79660
H         -3.17310       -1.26670        1.67810
H         -0.08180        0.32640        0.33660
H          1.64030        0.65020        0.40800
H          0.37130       -1.07390       -1.78360
H          2.06060       -0.59210       -1.66090
H          0.82190        0.62850       -1.95590
H          7.10800        1.41000        3.40510
H          3.88340        6.30570        1.17600
H          3.83000        8.76570        0.87230
H          4.90520       10.96850        1.11730
H          7.14450       11.15070        2.12690
H          8.32510        9.13330        2.90250
H          8.40850        6.74080        3.22340
