
  xtb     02012219053D
 energy: -192.472621079081 gnorm: 0.000522060816 xtb: 6.4.1 (unknown)
103114  0     0  0            999 V2000
    4.0050   -7.9455   -1.1174 C   0  0  0  0  0  0  0  0  0  0  0  0
    5.0633   -7.4146   -1.7993 C   0  0  0  0  0  0  0  0  0  0  0  0
    5.7692   -8.2342   -2.8132 C   0  0  0  0  0  0  0  0  0  0  0  0
    5.6700   -9.4268   -2.9873 O   0  0  0  0  0  0  0  0  0  0  0  0
    6.5684   -7.2642   -3.6004 C   0  0  0  0  0  0  0  0  0  0  0  0
    7.3306   -7.4893   -4.7284 C   0  0  0  0  0  0  0  0  0  0  0  0
    7.9771   -6.4071   -5.3150 C   0  0  0  0  0  0  0  0  0  0  0  0
    8.9427   -6.6203   -6.7223 Cl  0  0  0  0  0  0  0  0  0  0  0  0
    7.8376   -5.1360   -4.7527 C   0  0  0  0  0  0  0  0  0  0  0  0
    8.4506   -4.0976   -5.3332 F   0  0  0  0  0  0  0  0  0  0  0  0
    7.0852   -4.9031   -3.6118 C   0  0  0  0  0  0  0  0  0  0  0  0
    6.4445   -5.9841   -3.0300 C   0  0  0  0  0  0  0  0  0  0  0  0
    5.6340   -6.0879   -1.8190 C   0  0  0  0  0  0  0  0  0  0  0  0
    5.6616   -5.2039   -0.7706 C   0  0  0  0  0  0  0  0  0  0  0  0
    6.2724   -3.9364   -0.8242 C   0  0  0  0  0  0  0  0  0  0  0  0
    6.7228   -2.8805   -0.8265 N   0  0  0  0  0  0  0  0  0  0  0  0
    5.1514   -5.5155    0.5070 C   0  0  0  0  0  0  0  0  0  0  0  0
    4.7984   -5.7596    1.5720 N   0  0  0  0  0  0  0  0  0  0  0  0
    2.9432   -7.2879   -0.4684 C   0  0  0  0  0  0  0  0  0  0  0  0
    2.0337   -7.8585    0.4185 C   0  0  0  0  0  0  0  0  0  0  0  0
    2.0696   -9.2716    0.8982 C   0  0  0  0  0  0  0  0  0  0  0  0
    1.2005  -10.1620    0.0055 C   0  0  0  0  0  0  0  0  0  0  0  0
    1.0627   -6.9385    0.8164 C   0  0  0  0  0  0  0  0  0  0  0  0
   -0.2811   -7.0561    1.9288 S   0  0  0  0  0  0  0  0  0  0  0  0
   -0.6489   -5.3976    1.6192 C   0  0  0  0  0  0  0  0  0  0  0  0
   -1.5240   -4.4061    2.0832 C   0  0  0  0  0  0  0  0  0  0  0  0
   -2.4642   -4.4100    3.1386 C   0  0  0  0  0  0  0  0  0  0  0  0
   -3.0534   -3.1669    3.5483 C   0  0  0  0  0  0  0  0  0  0  0  0
   -3.8470   -3.3068    4.5983 N   0  0  0  0  0  0  0  0  0  0  0  0
   -3.8595   -4.8663    5.0297 S   0  0  0  0  0  0  0  0  0  0  0  0
   -2.8491   -5.4248    3.8959 N   0  0  0  0  0  0  0  0  0  0  0  0
   -2.7820   -2.0010    2.7978 C   0  0  0  0  0  0  0  0  0  0  0  0
   -3.2593   -0.6857    2.9065 C   0  0  0  0  0  0  0  0  0  0  0  0
   -4.2493    0.2701    3.9551 S   0  0  0  0  0  0  0  0  0  0  0  0
   -3.9863    1.6492    2.9089 C   0  0  0  0  0  0  0  0  0  0  0  0
   -4.4123    2.9782    2.9706 C   0  0  0  0  0  0  0  0  0  0  0  0
   -5.3006    3.5092    4.0473 C   0  0  0  0  0  0  0  0  0  0  0  0
   -6.7680    3.4720    3.6132 C   0  0  0  0  0  0  0  0  0  0  0  0
   -3.9399    3.7098    1.8829 C   0  0  0  0  0  0  0  0  0  0  0  0
   -2.9500    2.7341    0.7979 S   0  0  0  0  0  0  0  0  0  0  0  0
   -3.1787    1.3535    1.8011 C   0  0  0  0  0  0  0  0  0  0  0  0
   -2.7557    0.0225    1.8092 C   0  0  0  0  0  0  0  0  0  0  0  0
   -1.9693   -0.7932    1.0389 N   0  0  0  0  0  0  0  0  0  0  0  0
   -1.9442   -2.0363    1.6462 C   0  0  0  0  0  0  0  0  0  0  0  0
   -1.2012   -3.2125    1.3763 C   0  0  0  0  0  0  0  0  0  0  0  0
   -0.1298   -3.4680    0.5424 N   0  0  0  0  0  0  0  0  0  0  0  0
    0.2056   -4.7888    0.6882 C   0  0  0  0  0  0  0  0  0  0  0  0
    1.1902   -5.6677    0.2341 C   0  0  0  0  0  0  0  0  0  0  0  0
    2.5437   -5.6072   -0.8301 S   0  0  0  0  0  0  0  0  0  0  0  0
    0.8046   -2.5473   -0.0704 C   0  0  0  0  0  0  0  0  0  0  0  0
    0.8006   -2.6475   -1.5954 C   0  0  0  0  0  0  0  0  0  0  0  0
   -1.7693   -0.4583   -0.3553 C   0  0  0  0  0  0  0  0  0  0  0  0
   -3.0934   -0.4557   -1.1189 C   0  0  0  0  0  0  0  0  0  0  0  0
   -4.1757    5.0703    1.6170 C   0  0  0  0  0  0  0  0  0  0  0  0
   -3.7632    5.7899    0.5409 C   0  0  0  0  0  0  0  0  0  0  0  0
   -2.8357    5.2080   -0.8237 S   0  0  0  0  0  0  0  0  0  0  0  0
   -2.8807    6.7924   -1.5728 C   0  0  0  0  0  0  0  0  0  0  0  0
   -2.3047    6.9808   -2.8027 C   0  0  0  0  0  0  0  0  0  0  0  0
   -1.6479    5.8958   -3.4193 C   0  0  0  0  0  0  0  0  0  0  0  0
   -1.1133    5.0096   -3.9145 N   0  0  0  0  0  0  0  0  0  0  0  0
   -2.3359    8.1577   -3.5684 C   0  0  0  0  0  0  0  0  0  0  0  0
   -2.3547    9.0738   -4.2605 N   0  0  0  0  0  0  0  0  0  0  0  0
   -3.5404    7.6932   -0.8015 N   0  0  0  0  0  0  0  0  0  0  0  0
   -3.5927    9.1147   -1.0757 C   0  0  0  0  0  0  0  0  0  0  0  0
   -2.2347    9.7675   -0.9778 C   0  0  0  0  0  0  0  0  0  0  0  0
   -1.2801    9.2972   -0.0860 C   0  0  0  0  0  0  0  0  0  0  0  0
   -0.0398    9.9053   -0.0036 C   0  0  0  0  0  0  0  0  0  0  0  0
    0.2536   10.9942   -0.8051 C   0  0  0  0  0  0  0  0  0  0  0  0
   -0.7002   11.4767   -1.6853 C   0  0  0  0  0  0  0  0  0  0  0  0
   -1.9376   10.8660   -1.7731 C   0  0  0  0  0  0  0  0  0  0  0  0
   -4.0634    7.2081    0.3924 C   0  0  0  0  0  0  0  0  0  0  0  0
   -4.6800    7.8957    1.1755 O   0  0  0  0  0  0  0  0  0  0  0  0
    3.9298   -9.0269   -1.1694 H   0  0  0  0  0  0  0  0  0  0  0  0
    7.4229   -8.4809   -5.1417 H   0  0  0  0  0  0  0  0  0  0  0  0
    7.0146   -3.8999   -3.2232 H   0  0  0  0  0  0  0  0  0  0  0  0
    3.0945   -9.6417    0.9095 H   0  0  0  0  0  0  0  0  0  0  0  0
    1.6812   -9.3000    1.9180 H   0  0  0  0  0  0  0  0  0  0  0  0
    0.1698   -9.8158    0.0153 H   0  0  0  0  0  0  0  0  0  0  0  0
    1.2257  -11.1860    0.3678 H   0  0  0  0  0  0  0  0  0  0  0  0
    1.5610  -10.1479   -1.0206 H   0  0  0  0  0  0  0  0  0  0  0  0
   -5.1733    2.8878    4.9358 H   0  0  0  0  0  0  0  0  0  0  0  0
   -5.0188    4.5328    4.2986 H   0  0  0  0  0  0  0  0  0  0  0  0
   -7.4012    3.8445    4.4139 H   0  0  0  0  0  0  0  0  0  0  0  0
   -6.9229    4.0888    2.7310 H   0  0  0  0  0  0  0  0  0  0  0  0
   -7.0668    2.4526    3.3810 H   0  0  0  0  0  0  0  0  0  0  0  0
    1.8073   -2.8023    0.2918 H   0  0  0  0  0  0  0  0  0  0  0  0
    0.5811   -1.5364    0.2715 H   0  0  0  0  0  0  0  0  0  0  0  0
    1.1995   -3.6079   -1.9100 H   0  0  0  0  0  0  0  0  0  0  0  0
   -0.2027   -2.5539   -2.0053 H   0  0  0  0  0  0  0  0  0  0  0  0
    1.4254   -1.8637   -2.0139 H   0  0  0  0  0  0  0  0  0  0  0  0
   -1.1081   -1.1832   -0.8136 H   0  0  0  0  0  0  0  0  0  0  0  0
   -1.3112    0.5343   -0.4056 H   0  0  0  0  0  0  0  0  0  0  0  0
   -2.9071   -0.2212   -2.1631 H   0  0  0  0  0  0  0  0  0  0  0  0
   -3.5676   -1.4332   -1.0566 H   0  0  0  0  0  0  0  0  0  0  0  0
   -3.7754    0.2884   -0.7173 H   0  0  0  0  0  0  0  0  0  0  0  0
   -4.7559    5.6243    2.3448 H   0  0  0  0  0  0  0  0  0  0  0  0
   -4.0317    9.2889   -2.0616 H   0  0  0  0  0  0  0  0  0  0  0  0
   -4.2624    9.5303   -0.3121 H   0  0  0  0  0  0  0  0  0  0  0  0
   -1.5013    8.4548    0.5554 H   0  0  0  0  0  0  0  0  0  0  0  0
    0.6965    9.5257    0.6892 H   0  0  0  0  0  0  0  0  0  0  0  0
    1.2231   11.4652   -0.7435 H   0  0  0  0  0  0  0  0  0  0  0  0
   -0.4781   12.3264   -2.3126 H   0  0  0  0  0  0  0  0  0  0  0  0
   -2.6737   11.2345   -2.4711 H   0  0  0  0  0  0  0  0  0  0  0  0
  1  2  2  0  0  0  0
  2  3  1  0  0  0  0
  3  4  2  0  0  0  0
  3  5  1  0  0  0  0
  5  6  2  0  0  0  0
  6  7  1  0  0  0  0
  7  8  1  0  0  0  0
  7  9  2  0  0  0  0
  9 10  1  0  0  0  0
  9 11  1  0  0  0  0
 11 12  2  0  0  0  0
 12 13  1  0  0  0  0
 13 14  2  0  0  0  0
 14 15  1  0  0  0  0
 15 16  3  0  0  0  0
 14 17  1  0  0  0  0
 17 18  3  0  0  0  0
  1 19  1  0  0  0  0
 19 20  2  0  0  0  0
 20 21  1  0  0  0  0
 21 22  1  0  0  0  0
 20 23  1  0  0  0  0
 23 24  1  0  0  0  0
 24 25  1  0  0  0  0
 25 26  1  0  0  0  0
 26 27  1  0  0  0  0
 27 28  1  0  0  0  0
 28 29  2  0  0  0  0
 29 30  1  0  0  0  0
 30 31  1  0  0  0  0
 28 32  1  0  0  0  0
 32 33  1  0  0  0  0
 33 34  1  0  0  0  0
 34 35  1  0  0  0  0
 35 36  1  0  0  0  0
 36 37  1  0  0  0  0
 37 38  1  0  0  0  0
 36 39  2  0  0  0  0
 39 40  1  0  0  0  0
 40 41  1  0  0  0  0
 41 42  1  0  0  0  0
 42 43  1  0  0  0  0
 43 44  1  0  0  0  0
 44 45  1  0  0  0  0
 45 46  1  0  0  0  0
 46 47  1  0  0  0  0
 47 48  1  0  0  0  0
 48 49  1  0  0  0  0
 46 50  1  0  0  0  0
 50 51  1  0  0  0  0
 43 52  1  0  0  0  0
 52 53  1  0  0  0  0
 39 54  1  0  0  0  0
 54 55  2  0  0  0  0
 55 56  1  0  0  0  0
 56 57  1  0  0  0  0
 57 58  2  0  0  0  0
 58 59  1  0  0  0  0
 59 60  3  0  0  0  0
 58 61  1  0  0  0  0
 61 62  3  0  0  0  0
 57 63  1  0  0  0  0
 63 64  1  0  0  0  0
 64 65  1  0  0  0  0
 65 66  2  0  0  0  0
 66 67  1  0  0  0  0
 67 68  2  0  0  0  0
 68 69  1  0  0  0  0
 69 70  2  0  0  0  0
 63 71  1  0  0  0  0
 71 72  2  0  0  0  0
 13  2  1  0  0  0  0
 49 19  1  0  0  0  0
 71 55  1  0  0  0  0
 12  5  1  0  0  0  0
 48 23  2  0  0  0  0
 70 65  1  0  0  0  0
 47 25  2  0  0  0  0
 45 26  2  0  0  0  0
 31 27  2  0  0  0  0
 44 32  2  0  0  0  0
 42 33  2  0  0  0  0
 41 35  2  0  0  0  0
  1 73  1  0  0  0  0
  6 74  1  0  0  0  0
 11 75  1  0  0  0  0
 21 76  1  0  0  0  0
 21 77  1  0  0  0  0
 22 78  1  0  0  0  0
 22 79  1  0  0  0  0
 22 80  1  0  0  0  0
 37 81  1  0  0  0  0
 37 82  1  0  0  0  0
 38 83  1  0  0  0  0
 38 84  1  0  0  0  0
 38 85  1  0  0  0  0
 50 86  1  0  0  0  0
 50 87  1  0  0  0  0
 51 88  1  0  0  0  0
 51 89  1  0  0  0  0
 51 90  1  0  0  0  0
 52 91  1  0  0  0  0
 52 92  1  0  0  0  0
 53 93  1  0  0  0  0
 53 94  1  0  0  0  0
 53 95  1  0  0  0  0
 54 96  1  0  0  0  0
 64 97  1  0  0  0  0
 64 98  1  0  0  0  0
 66 99  1  0  0  0  0
 67100  1  0  0  0  0
 68101  1  0  0  0  0
 69102  1  0  0  0  0
 70103  1  0  0  0  0
M  END
