97

C          1.54230        3.19540        7.11960
C          2.66460        2.56730        7.61130
C          3.34720        1.42230        7.01090
O          3.08400        0.85440        5.96510
C          4.44670        1.07240        7.93470
C          5.36650        0.05060        7.82340
C          6.31870       -0.08930        8.82630
Cl         7.49320       -1.34370        8.75340
C          6.31440        0.80140        9.90160
F          7.23380        0.66150       10.86410
C          5.39260        1.83100       10.01800
C          4.44270        1.96710        9.01830
C          3.34700        2.91980        8.83940
C          3.05640        3.95260        9.69460
C          3.78120        4.22850       10.87340
N          4.32430        4.50820       11.84510
C          2.01420        4.88920        9.53520
N          1.19100        5.68910        9.47840
C          0.78980        2.95980        5.96850
C         -0.37550        3.68620        5.65360
C         -0.99230        4.75210        6.49820
C         -1.86270        4.14030        7.59960
C         -0.93360        3.25240        4.46100
S         -2.36160        3.75560        3.57450
C         -1.97980        2.58600        2.35990
C         -2.44880        2.16790        1.10910
C         -3.48670        2.67050        0.29280
C         -3.63380        2.15210       -1.03530
N         -4.59770        2.75760       -1.71050
S         -5.26750        3.87920       -0.75510
N         -4.35070        3.63760        0.55690
C         -2.81720        1.07290       -1.44180
C         -2.81760        0.31310       -2.61870
S         -3.62410        0.26930       -4.14720
C         -2.69650       -1.16230       -4.55730
C         -2.66850       -1.96340       -5.68960
C         -3.50080       -1.68510       -6.89800
C         -2.71560       -0.86100       -7.92250
C         -1.72750       -3.00210       -5.55910
S         -0.90840       -2.96510       -3.99510
C         -1.81150       -1.57020       -3.54270
C         -1.88610       -0.71690       -2.43920
N         -1.29090       -0.60830       -1.20820
C         -1.83860        0.49770       -0.57800
C         -1.57180        1.13300        0.66270
N         -0.57650        0.97270        1.60450
C         -0.82420        1.84110        2.63340
C         -0.21470        2.21830        3.83160
S          1.16810        1.74680        4.74280
C          0.71580        0.33140        1.51000
C          0.81260       -0.90860        2.39730
C         -0.71270       -1.80480       -0.63120
C         -1.76550       -2.59550        0.14270
C         -1.47830       -3.93010       -6.57250
C         -0.57420       -4.96390       -6.64930
C          0.38510       -5.35170       -5.61550
O          0.52450       -4.87120       -4.50380
C          1.16810       -6.46820       -6.18310
C          2.20810       -7.16690       -5.60570
C          2.77920       -8.17660       -6.36610
F          3.79720       -8.88400       -5.84820
C          2.33820       -8.48320       -7.64440
C          1.29020       -7.77250       -8.21090
C          0.69830       -6.75520       -7.47660
C         -0.39920       -5.83920       -7.79110
C         -1.11440       -5.84030       -8.96170
C         -0.88460       -6.73390      -10.02910
N         -0.75100       -7.42560      -10.93550
C         -2.17750       -4.97080       -9.28210
N         -3.05160       -4.30500       -9.61900
H          1.15710        4.00630        7.72220
H          5.34410       -0.62090        6.98010
H          5.44670        2.48180       10.87520
H         -0.22800        5.38570        6.95060
H         -1.61760        5.37580        5.85640
H         -1.26920        3.50360        8.25160
H         -2.66060        3.54380        7.16350
H         -2.30470        4.93060        8.19930
H         -4.37840       -1.11700       -6.58320
H         -3.84170       -2.61120       -7.36280
H         -1.83090       -1.39940       -8.25420
H         -2.40400        0.08580       -7.48760
H         -3.34030       -0.65990       -8.78780
H          0.92300        0.11240        0.46180
H          1.46530        1.05550        1.84760
H          0.79270       -0.61710        3.44380
H          1.75070       -1.42260        2.20810
H         -0.01080       -1.59460        2.21780
H          0.12720       -1.56890        0.01350
H         -0.33950       -2.40560       -1.46420
H         -1.32210       -3.49910        0.55130
H         -2.17080       -1.99930        0.95830
H         -2.58400       -2.87870       -0.51490
H         -2.10020       -3.78450       -7.44490
H          2.56100       -6.93830       -4.61280
H          2.82060       -9.27880       -8.19000
H          0.95850       -8.02080       -9.20530
