
  xtb     02012217533D
 energy: -180.755767977310 gnorm: 0.000849162618 xtb: 6.4.1 (unknown)
 96106  0     0  0            999 V2000
   -2.9818    0.5269    6.1516 C   0  0  0  0  0  0  0  0  0  0  0  0
   -3.8931    1.1007    6.9936 C   0  0  0  0  0  0  0  0  0  0  0  0
   -3.7920    0.8353    8.4515 C   0  0  0  0  0  0  0  0  0  0  0  0
   -2.8844    0.2853    9.0303 O   0  0  0  0  0  0  0  0  0  0  0  0
   -5.0604    1.3424    9.0252 C   0  0  0  0  0  0  0  0  0  0  0  0
   -5.5192    1.2432   10.3226 C   0  0  0  0  0  0  0  0  0  0  0  0
   -6.7686    1.7742   10.6229 C   0  0  0  0  0  0  0  0  0  0  0  0
   -7.4018    1.6789   12.2190 Cl  0  0  0  0  0  0  0  0  0  0  0  0
   -7.5136    2.3877    9.6132 C   0  0  0  0  0  0  0  0  0  0  0  0
   -8.7213    2.8832    9.9066 F   0  0  0  0  0  0  0  0  0  0  0  0
   -7.0540    2.5027    8.3099 C   0  0  0  0  0  0  0  0  0  0  0  0
   -5.8093    1.9720    8.0149 C   0  0  0  0  0  0  0  0  0  0  0  0
   -5.0404    1.9471    6.7710 C   0  0  0  0  0  0  0  0  0  0  0  0
   -5.2536    2.7691    5.6927 C   0  0  0  0  0  0  0  0  0  0  0  0
   -6.3640    3.6276    5.5660 C   0  0  0  0  0  0  0  0  0  0  0  0
   -7.2623    4.3230    5.4020 N   0  0  0  0  0  0  0  0  0  0  0  0
   -4.3371    2.9156    4.6332 C   0  0  0  0  0  0  0  0  0  0  0  0
   -3.6085    3.0955    3.7645 N   0  0  0  0  0  0  0  0  0  0  0  0
   -3.0279    0.3069    4.7606 C   0  0  0  0  0  0  0  0  0  0  0  0
   -4.0971    0.0848    3.8934 C   0  0  0  0  0  0  0  0  0  0  0  0
   -5.5196   -0.0589    4.3270 C   0  0  0  0  0  0  0  0  0  0  0  0
   -6.1810   -1.3179    3.7678 C   0  0  0  0  0  0  0  0  0  0  0  0
   -3.6485   -0.1027    2.5802 C   0  0  0  0  0  0  0  0  0  0  0  0
   -4.4813   -0.3746    1.0648 S   0  0  0  0  0  0  0  0  0  0  0  0
   -2.9601   -0.3819    0.2476 C   0  0  0  0  0  0  0  0  0  0  0  0
   -2.4464   -0.6064   -1.0362 C   0  0  0  0  0  0  0  0  0  0  0  0
   -3.0806   -1.0331   -2.2240 C   0  0  0  0  0  0  0  0  0  0  0  0
   -2.2686   -1.3926   -3.3495 C   0  0  0  0  0  0  0  0  0  0  0  0
   -2.9849   -1.8484   -4.3652 N   0  0  0  0  0  0  0  0  0  0  0  0
   -4.5475   -1.8196   -3.9443 S   0  0  0  0  0  0  0  0  0  0  0  0
   -4.3702   -1.2303   -2.4476 N   0  0  0  0  0  0  0  0  0  0  0  0
   -0.8732   -1.1865   -3.2774 C   0  0  0  0  0  0  0  0  0  0  0  0
    0.1345   -1.3622   -4.2372 C   0  0  0  0  0  0  0  0  0  0  0  0
    0.3180   -1.9540   -5.8518 S   0  0  0  0  0  0  0  0  0  0  0  0
    2.0182   -1.5430   -5.7813 C   0  0  0  0  0  0  0  0  0  0  0  0
    3.0564   -1.6653   -6.7071 C   0  0  0  0  0  0  0  0  0  0  0  0
    2.8879   -2.2866   -8.0545 C   0  0  0  0  0  0  0  0  0  0  0  0
    3.2636   -3.7702   -8.0162 C   0  0  0  0  0  0  0  0  0  0  0  0
    4.2577   -1.1917   -6.1836 C   0  0  0  0  0  0  0  0  0  0  0  0
    4.0769   -0.5841   -4.5379 S   0  0  0  0  0  0  0  0  0  0  0  0
    2.3994   -0.9759   -4.5561 C   0  0  0  0  0  0  0  0  0  0  0  0
    1.3206   -0.8823   -3.6731 C   0  0  0  0  0  0  0  0  0  0  0  0
    1.0952   -0.4408   -2.3944 N   0  0  0  0  0  0  0  0  0  0  0  0
   -0.2501   -0.6363   -2.1198 C   0  0  0  0  0  0  0  0  0  0  0  0
   -1.0293   -0.4699   -0.9446 C   0  0  0  0  0  0  0  0  0  0  0  0
   -0.7040   -0.2231    0.3739 N   0  0  0  0  0  0  0  0  0  0  0  0
   -1.8662   -0.1683    1.0939 C   0  0  0  0  0  0  0  0  0  0  0  0
   -2.2550   -0.0248    2.4281 C   0  0  0  0  0  0  0  0  0  0  0  0
   -1.4722    0.2137    3.9398 S   0  0  0  0  0  0  0  0  0  0  0  0
    0.5643   -0.2556    1.0650 C   0  0  0  0  0  0  0  0  0  0  0  0
    1.0045    1.1408    1.5061 C   0  0  0  0  0  0  0  0  0  0  0  0
    2.0185    0.5372   -1.8567 C   0  0  0  0  0  0  0  0  0  0  0  0
    1.8206    1.8980   -2.5232 C   0  0  0  0  0  0  0  0  0  0  0  0
    5.5049   -1.1761   -6.8314 C   0  0  0  0  0  0  0  0  0  0  0  0
    6.6980   -0.7533   -6.3379 C   0  0  0  0  0  0  0  0  0  0  0  0
    7.0135   -0.1057   -4.7445 S   0  0  0  0  0  0  0  0  0  0  0  0
    8.7166    0.0821   -5.1209 C   0  0  0  0  0  0  0  0  0  0  0  0
    9.5673    0.5785   -4.1651 C   0  0  0  0  0  0  0  0  0  0  0  0
    9.0439    0.9260   -2.9025 C   0  0  0  0  0  0  0  0  0  0  0  0
    8.6169    1.2086   -1.8757 N   0  0  0  0  0  0  0  0  0  0  0  0
   10.9501    0.7883   -4.2977 C   0  0  0  0  0  0  0  0  0  0  0  0
   12.0808    0.9862   -4.3397 N   0  0  0  0  0  0  0  0  0  0  0  0
    8.9991   -0.3254   -6.3833 N   0  0  0  0  0  0  0  0  0  0  0  0
   10.3041   -0.2460   -7.0136 C   0  0  0  0  0  0  0  0  0  0  0  0
   10.5836    1.1537   -7.5477 C   0  0  0  0  0  0  0  0  0  0  0  0
    7.9226   -0.8016   -7.1253 C   0  0  0  0  0  0  0  0  0  0  0  0
    8.0264   -1.2036   -8.2628 O   0  0  0  0  0  0  0  0  0  0  0  0
   -2.0918    0.1527    6.6514 H   0  0  0  0  0  0  0  0  0  0  0  0
   -4.9219    0.7646   11.0822 H   0  0  0  0  0  0  0  0  0  0  0  0
   -7.6771    2.9865    7.5752 H   0  0  0  0  0  0  0  0  0  0  0  0
   -5.5599   -0.0949    5.4172 H   0  0  0  0  0  0  0  0  0  0  0  0
   -6.0857    0.8188    3.9962 H   0  0  0  0  0  0  0  0  0  0  0  0
   -5.5977   -2.1989    4.0259 H   0  0  0  0  0  0  0  0  0  0  0  0
   -6.2768   -1.2672    2.6874 H   0  0  0  0  0  0  0  0  0  0  0  0
   -7.1752   -1.4244    4.1943 H   0  0  0  0  0  0  0  0  0  0  0  0
    3.5058   -1.7702   -8.7905 H   0  0  0  0  0  0  0  0  0  0  0  0
    1.8420   -2.1885   -8.3512 H   0  0  0  0  0  0  0  0  0  0  0  0
    2.6399   -4.2983   -7.2989 H   0  0  0  0  0  0  0  0  0  0  0  0
    3.1181   -4.2160   -8.9964 H   0  0  0  0  0  0  0  0  0  0  0  0
    4.3048   -3.8949   -7.7280 H   0  0  0  0  0  0  0  0  0  0  0  0
    0.4346   -0.8776    1.9577 H   0  0  0  0  0  0  0  0  0  0  0  0
    1.3042   -0.7462    0.4313 H   0  0  0  0  0  0  0  0  0  0  0  0
    2.0060    1.0981    1.9249 H   0  0  0  0  0  0  0  0  0  0  0  0
    0.9964    1.8442    0.6767 H   0  0  0  0  0  0  0  0  0  0  0  0
    0.3295    1.5189    2.2690 H   0  0  0  0  0  0  0  0  0  0  0  0
    3.0301    0.1709   -2.0555 H   0  0  0  0  0  0  0  0  0  0  0  0
    1.8922    0.6418   -0.7869 H   0  0  0  0  0  0  0  0  0  0  0  0
    2.5300    2.6117   -2.1141 H   0  0  0  0  0  0  0  0  0  0  0  0
    1.9809    1.8277   -3.5965 H   0  0  0  0  0  0  0  0  0  0  0  0
    0.8107    2.2638   -2.3469 H   0  0  0  0  0  0  0  0  0  0  0  0
    5.5379   -1.5489   -7.8479 H   0  0  0  0  0  0  0  0  0  0  0  0
   10.2754   -0.9589   -7.8426 H   0  0  0  0  0  0  0  0  0  0  0  0
   11.0698   -0.5514   -6.2987 H   0  0  0  0  0  0  0  0  0  0  0  0
    9.8215    1.4388   -8.2696 H   0  0  0  0  0  0  0  0  0  0  0  0
   10.6032    1.8843   -6.7424 H   0  0  0  0  0  0  0  0  0  0  0  0
   11.5517    1.1627   -8.0393 H   0  0  0  0  0  0  0  0  0  0  0  0
  1  2  2  0  0  0  0
  2  3  1  0  0  0  0
  3  4  2  0  0  0  0
  3  5  1  0  0  0  0
  5  6  2  0  0  0  0
  6  7  1  0  0  0  0
  7  8  1  0  0  0  0
  7  9  2  0  0  0  0
  9 10  1  0  0  0  0
  9 11  1  0  0  0  0
 11 12  2  0  0  0  0
 12 13  1  0  0  0  0
 13 14  2  0  0  0  0
 14 15  1  0  0  0  0
 15 16  3  0  0  0  0
 14 17  1  0  0  0  0
 17 18  3  0  0  0  0
  1 19  1  0  0  0  0
 19 20  2  0  0  0  0
 20 21  1  0  0  0  0
 21 22  1  0  0  0  0
 20 23  1  0  0  0  0
 23 24  1  0  0  0  0
 24 25  1  0  0  0  0
 25 26  1  0  0  0  0
 26 27  1  0  0  0  0
 27 28  1  0  0  0  0
 28 29  2  0  0  0  0
 29 30  1  0  0  0  0
 30 31  1  0  0  0  0
 28 32  1  0  0  0  0
 32 33  1  0  0  0  0
 33 34  1  0  0  0  0
 34 35  1  0  0  0  0
 35 36  1  0  0  0  0
 36 37  1  0  0  0  0
 37 38  1  0  0  0  0
 36 39  2  0  0  0  0
 39 40  1  0  0  0  0
 40 41  1  0  0  0  0
 41 42  1  0  0  0  0
 42 43  1  0  0  0  0
 43 44  1  0  0  0  0
 44 45  1  0  0  0  0
 45 46  1  0  0  0  0
 46 47  1  0  0  0  0
 47 48  1  0  0  0  0
 48 49  1  0  0  0  0
 46 50  1  0  0  0  0
 50 51  1  0  0  0  0
 43 52  1  0  0  0  0
 52 53  1  0  0  0  0
 39 54  1  0  0  0  0
 54 55  2  0  0  0  0
 55 56  1  0  0  0  0
 56 57  1  0  0  0  0
 57 58  2  0  0  0  0
 58 59  1  0  0  0  0
 59 60  3  0  0  0  0
 58 61  1  0  0  0  0
 61 62  3  0  0  0  0
 57 63  1  0  0  0  0
 63 64  1  0  0  0  0
 64 65  1  0  0  0  0
 63 66  1  0  0  0  0
 66 67  2  0  0  0  0
 13  2  1  0  0  0  0
 49 19  1  0  0  0  0
 66 55  1  0  0  0  0
 12  5  1  0  0  0  0
 48 23  2  0  0  0  0
 47 25  2  0  0  0  0
 45 26  2  0  0  0  0
 31 27  2  0  0  0  0
 44 32  2  0  0  0  0
 42 33  2  0  0  0  0
 41 35  2  0  0  0  0
  1 68  1  0  0  0  0
  6 69  1  0  0  0  0
 11 70  1  0  0  0  0
 21 71  1  0  0  0  0
 21 72  1  0  0  0  0
 22 73  1  0  0  0  0
 22 74  1  0  0  0  0
 22 75  1  0  0  0  0
 37 76  1  0  0  0  0
 37 77  1  0  0  0  0
 38 78  1  0  0  0  0
 38 79  1  0  0  0  0
 38 80  1  0  0  0  0
 50 81  1  0  0  0  0
 50 82  1  0  0  0  0
 51 83  1  0  0  0  0
 51 84  1  0  0  0  0
 51 85  1  0  0  0  0
 52 86  1  0  0  0  0
 52 87  1  0  0  0  0
 53 88  1  0  0  0  0
 53 89  1  0  0  0  0
 53 90  1  0  0  0  0
 54 91  1  0  0  0  0
 64 92  1  0  0  0  0
 64 93  1  0  0  0  0
 65 94  1  0  0  0  0
 65 95  1  0  0  0  0
 65 96  1  0  0  0  0
M  END
