103

C         -1.67700        8.00820        0.24370
C         -2.46420        8.06030       -0.88460
C         -2.67110        6.97840       -1.84640
O         -2.22640        5.84440       -1.80900
C         -3.54500        7.53260       -2.90200
C         -4.01190        6.91090       -4.04140
C         -4.82480        7.63920       -4.90190
Cl        -5.43810        6.92800       -6.34310
C         -5.14110        8.96230       -4.58710
F         -5.92380        9.65850       -5.42010
C         -4.67560        9.59170       -3.44250
C         -3.86320        8.86460       -2.58720
C         -3.21140        9.22000       -1.32660
C         -3.31990       10.43680       -0.70220
C         -4.07790       11.51620       -1.20380
N         -4.67500       12.43310       -1.55040
C         -2.70970       10.79800        0.51680
N         -2.25010       11.17080        1.50190
C         -0.91080        6.97310        0.78110
C         -0.13120        7.12300        1.94530
C          0.03460        8.38450        2.72700
C          1.09980        9.28270        2.09140
C          0.53310        5.94770        2.26210
S          1.64270        5.52320        3.55430
C          1.74350        3.92420        2.90240
C          2.40480        2.71340        3.15090
C          3.40930        2.36400        4.08220
C          3.98490        1.05060        4.02410
N          4.95400        0.88470        4.90950
S          5.12570        2.25820        5.74840
N          3.96910        3.11930        5.01340
C          3.43250        0.10030        3.13470
C          3.64190       -1.27780        3.00400
S          4.65870       -2.51060        3.66310
C          3.75860       -3.69990        2.73960
C          3.86000       -5.07980        2.65040
C          4.91720       -5.86030        3.35970
C          6.12000       -6.10060        2.44270
C          2.88850       -5.61000        1.77900
S          1.86200       -4.35210        1.08570
C          2.72870       -3.14510        1.95690
C          2.67860       -1.75710        2.10370
N          1.90660       -0.71880        1.65460
C          2.36220        0.43670        2.25410
C          1.95060        1.78980        2.16380
N          1.08400        2.44380        1.30710
C          0.95710        3.73250        1.75860
C          0.26990        4.88540        1.37730
S         -0.80110        5.34280        0.11050
C          0.81210        2.18340       -0.09120
C          1.84760        2.86670       -0.98370
C          0.65760       -0.98120        0.97350
C          0.86660       -1.37280       -0.48970
C          2.76380       -6.97620        1.52290
C          1.88600       -7.66870        0.71900
C          0.83540       -7.08290       -0.11220
O          0.55760       -5.90180       -0.24500
C          0.15830       -8.21000       -0.77790
C         -0.89170       -8.18120       -1.64830
C         -1.38780       -9.39970       -2.16310
C         -2.46930       -9.42960       -3.06420
C         -2.92920      -10.62270       -3.54720
F         -3.95860      -10.64890       -4.40550
C         -2.32940      -11.83420       -3.15060
F         -2.80120      -12.98880       -3.64000
C         -1.27820      -11.83680       -2.27690
C         -0.77990      -10.62390       -1.76110
C          0.30770      -10.61870       -0.85660
C          0.77280       -9.42630       -0.36960
C          1.85430       -9.10820        0.56250
C          2.66800      -10.03520        1.16530
C          3.71030       -9.75500        2.07200
N          4.57440       -9.60900        2.81600
C          2.56950      -11.42640        0.95520
N          2.54680      -12.56760        0.83050
H         -1.62560        8.92090        0.82120
H         -3.75070        5.88710       -4.25650
H         -4.95840       10.61570       -3.26160
H         -0.90670        8.93180        2.79480
H          0.35020        8.12000        3.73810
H          0.81570        9.56150        1.07940
H          2.05650        8.76690        2.05460
H          1.21380       10.18890        2.67900
H          5.24150       -5.28340        4.22810
H          4.53250       -6.81900        3.71010
H          6.54080       -5.15310        2.11450
H          6.88430       -6.65620        2.97820
H          5.82790       -6.67420        1.56630
H          0.82840        1.11850       -0.28560
H         -0.18390        2.57660       -0.31430
H          1.62690        2.65370       -2.02570
H          1.82890        3.94390       -0.84220
H          2.84660        2.50140       -0.75350
H          0.16980       -1.81690        1.48730
H          0.01120       -0.10860        1.07770
H          1.53790       -0.68420       -0.99850
H          1.29560       -2.36860       -0.55320
H         -0.08880       -1.38200       -1.00630
H          3.48470       -7.57800        2.05880
H         -1.33860       -7.24260       -1.93900
H         -2.93940       -8.51040       -3.37710
H         -0.83110      -12.77380       -1.98360
H          0.74310      -11.56310       -0.57340
