97

C          7.92980        0.73910        1.87900
C          7.94630        1.87930        2.65060
C          6.78510        2.68120        3.03310
O          5.61720        2.50150        2.73510
C          7.30750        3.78340        3.86810
C          6.60670        4.80520        4.47450
C          7.31780        5.73910        5.21880
Cl         6.50780        7.03930        6.00120
C          8.70420        5.61370        5.32780
F          9.38330        6.51550        6.04670
C          9.41380        4.58900        4.71960
C          8.70300        3.65940        3.97740
C          9.13270        2.48240        3.22220
C         10.43340        2.06500        3.09170
C         10.87190        0.94100        2.36180
N         11.31050        0.04520        1.79120
C         11.53550        2.72270        3.67790
N         12.47510        3.20660        4.12550
C          6.87660        0.06340        1.26200
C          7.06040       -1.10860        0.50220
C          8.35480       -1.82650        0.30450
C          8.65230       -2.74210        1.49570
C          5.85860       -1.57110       -0.01130
S          5.46000       -2.94450       -1.02800
C          3.80420       -2.44940       -0.99080
C          2.57200       -2.83060       -1.53650
C          2.24600       -3.82110       -2.49060
C          0.90490       -3.88380       -2.99360
N          0.75840       -4.80920       -3.92820
S          2.18360       -5.54350       -4.15190
N          3.04370       -4.70660       -3.06580
C         -0.07770       -3.04490       -2.42140
C         -1.46560       -2.99760       -2.59850
S         -2.68420       -3.74570       -3.57010
C         -3.89900       -2.84890       -2.67680
C         -5.28260       -2.81480       -2.76340
C         -6.04840       -3.58970       -3.78490
C         -6.33820       -2.72770       -5.01710
C         -5.83330       -1.92720       -1.81890
S         -4.59220       -1.15860       -0.82660
C         -3.36360       -2.01210       -1.68010
C         -1.96950       -2.09600       -1.65070
N         -0.94060       -1.57240       -0.91450
C          0.23720       -2.11620       -1.38410
C          1.59830       -1.91560       -1.03670
N          2.23940       -0.98060       -0.24180
C          3.57280       -1.30010       -0.22360
C          4.74450       -0.78230        0.33210
S          5.18300        0.56200        1.31510
C          1.86080        0.38490        0.05800
C          1.87220        1.24040       -1.20680
C         -1.22410       -0.88530        0.32630
C         -1.64110        0.56760        0.10500
C         -7.20590       -1.69600       -1.70830
C         -7.92060       -0.86550       -0.87600
C         -7.35820        0.00710        0.15750
O         -6.18510        0.14720        0.45100
C         -8.51070        0.68700        0.78220
C         -8.56030        1.61150        1.80890
F         -7.44300        2.03570        2.40900
C         -9.78480        2.11460        2.23140
C        -10.94760        1.68320        1.61800
C        -10.92250        0.75440        0.58400
C         -9.70020        0.25590        0.16580
C         -9.35870       -0.71400       -0.87840
C        -10.26630       -1.34040       -1.69520
C         -9.95960       -2.27040       -2.71010
N         -9.79750       -3.03440       -3.55340
C        -11.66140       -1.13830       -1.63910
N        -12.80370       -1.02340       -1.65650
H          8.89100        0.27320        1.71170
H          5.53560        4.87470        4.37190
H         10.48340        4.55270        4.84530
H          8.27360       -2.43350       -0.59930
H          9.17960       -1.12490        0.17240
H          7.85750       -3.47420        1.61780
H          9.58880       -3.26680        1.33060
H          8.73780       -2.16540        2.41360
H         -5.44340       -4.44740       -4.08550
H         -6.98830       -3.96130       -3.37440
H         -5.40890       -2.38080       -5.46290
H         -6.94050       -1.86270       -4.74980
H         -6.88340       -3.31120       -5.75310
H          2.59890        0.76680        0.76740
H          0.88620        0.42940        0.53300
H          1.60850        2.26530       -0.96150
H          1.16200        0.85670       -1.93690
H          2.86250        1.23640       -1.65610
H         -2.05440       -1.41160        0.81010
H         -0.35590       -0.97450        0.98080
H         -2.61360        0.60530       -0.37770
H         -1.72150        1.07500        1.06210
H         -0.92850        1.09850       -0.52030
H         -7.79230       -2.27440       -2.40870
H         -9.80890        2.83530        3.03340
H        -11.89640        2.07600        1.94940
H        -11.84590        0.43930        0.12800
