97

C          1.95090        1.55470       -7.85270
C          2.98220        0.69980       -8.16900
C          3.70110       -0.16910       -7.23810
O          3.55570       -0.26030       -6.03150
C          4.66610       -0.93350       -8.05560
C          5.56280       -1.89760       -7.64400
C          6.37420       -2.49330       -8.60250
Cl         7.51190       -3.70500       -8.16000
C          6.25730       -2.09950       -9.93700
F          7.03960       -2.67830      -10.85550
C          5.35910       -1.12940      -10.35600
C          4.55060       -0.53720       -9.39890
C          3.51550        0.49150       -9.50010
C          3.14610        1.12310      -10.66050
C          2.15500        2.11930      -10.78000
N          1.36450        2.93330      -10.96210
C          3.72350        0.85840      -11.92070
N          4.14820        0.69160      -12.97380
C          1.31770        1.81730       -6.63690
C          0.20880        2.67730       -6.52120
C         -0.45140        3.40540       -7.64550
C         -1.45540        2.49970       -8.36460
C         -0.26500        2.71880       -5.21820
S         -1.63380        3.53660       -4.48620
C         -1.22230        2.80220       -2.97570
C         -1.72690        2.70440       -1.67370
C         -2.93420        3.17940       -1.11340
C         -3.30120        2.74790        0.20260
N         -4.48620        3.20630        0.57340
S         -5.08550        4.10990       -0.62820
N         -3.85770        3.94680       -1.66990
C         -2.38900        1.96240        0.94210
C         -2.45470        1.46470        2.25020
S         -3.57400        1.37170        3.56170
C         -2.38140        0.49390        4.49530
C         -2.42200       -0.11810        5.75450
C         -3.55350        0.01150        6.71660
C         -3.99560        1.46150        6.90600
C         -1.21980       -0.76360        6.03270
S         -0.01910       -0.53230        4.75890
C         -1.16950        0.32350        3.80660
C         -1.21950        0.86340        2.51970
N         -0.40700        0.94310        1.42050
C         -1.11450        1.59250        0.42140
C         -0.83350        1.86360       -0.94370
N          0.16680        1.44640       -1.80170
C         -0.07760        1.99590       -3.03070
C          0.47060        1.93070       -4.31410
S          1.76630        1.09990       -5.08700
C          1.11560        0.36220       -1.67950
C          0.41390       -0.97560       -1.46130
C          1.01920        0.74750        1.57070
C          1.78550        2.05600        1.39790
C         -0.81830       -1.52400        7.14730
C         -1.60600       -2.39870        7.85110
C         -2.82510       -3.03080        7.30570
O         -3.42330       -2.75820        6.28720
C         -3.10480       -4.16970        8.21080
C         -4.09980       -5.11840        8.10970
C         -4.15360       -6.11960        9.07160
Br        -5.50640       -7.43560        8.95990
C         -3.21700       -6.15580       10.10590
Br        -3.28960       -7.53040       11.40280
C         -2.21370       -5.19780       10.20510
C         -2.15800       -4.19750        9.24980
C         -1.23840       -3.07690        9.07390
C         -0.26720       -2.68090        9.95570
C          0.03100       -3.35880       11.15550
N          0.31090       -3.88040       12.13860
C          0.51820       -1.52040        9.78970
N          1.16630       -0.57550        9.72060
H          1.53120        2.10990       -8.68010
H          5.62900       -2.18060       -6.60570
H          5.32130       -0.87440      -11.40230
H          0.28430        3.77230       -8.36240
H         -0.98250        4.26400       -7.23000
H         -2.22160        2.15960       -7.67190
H         -0.95710        1.63020       -8.78690
H         -1.93220        3.04850       -9.17140
H         -3.25420       -0.40370        7.68040
H         -4.39100       -0.58520        6.34410
H         -4.76830        1.50820        7.66890
H         -4.39890        1.87490        5.98620
H         -3.15670        2.07530        7.22710
H          1.83700        0.57370       -0.89010
H          1.66990        0.32650       -2.62030
H         -0.22370       -1.20190       -2.31250
H          1.15190       -1.76700       -1.36440
H         -0.20580       -0.95910       -0.56780
H          1.37870       -0.02220        0.88710
H          1.17420        0.37150        2.58500
H          1.46830        2.77510        2.14970
H          1.61020        2.49170        0.41720
H          2.85060        1.87800        1.51800
H          0.23410       -1.46420        7.40170
H         -4.81580       -5.08320        7.30340
H         -1.50180       -5.26020       11.01230
