
  xtb     02012220533D
 energy: -186.639284785215 gnorm: 0.000527674273 xtb: 6.4.1 (unknown)
 97108  0     0  0            999 V2000
   -4.2241    5.6719   -0.1770 C   0  0  0  0  0  0  0  0  0  0  0  0
   -5.0576    6.2565    0.7408 C   0  0  0  0  0  0  0  0  0  0  0  0
   -4.9618    6.0520    2.2016 C   0  0  0  0  0  0  0  0  0  0  0  0
   -4.0838    5.4949    2.8244 O   0  0  0  0  0  0  0  0  0  0  0  0
   -6.2387    6.5666    2.7499 C   0  0  0  0  0  0  0  0  0  0  0  0
   -6.6604    6.5714    4.0635 C   0  0  0  0  0  0  0  0  0  0  0  0
   -7.9155    7.0953    4.3510 C   0  0  0  0  0  0  0  0  0  0  0  0
   -8.5002    7.1359    5.9677 Cl  0  0  0  0  0  0  0  0  0  0  0  0
   -8.7057    7.5908    3.3111 C   0  0  0  0  0  0  0  0  0  0  0  0
   -9.9154    8.0877    3.5950 F   0  0  0  0  0  0  0  0  0  0  0  0
   -8.2898    7.5862    1.9886 C   0  0  0  0  0  0  0  0  0  0  0  0
   -7.0367    7.0657    1.7063 C   0  0  0  0  0  0  0  0  0  0  0  0
   -6.3130    6.9143    0.4479 C   0  0  0  0  0  0  0  0  0  0  0  0
   -6.7107    7.3910   -0.7739 C   0  0  0  0  0  0  0  0  0  0  0  0
   -5.9283    7.3230   -1.9461 C   0  0  0  0  0  0  0  0  0  0  0  0
   -5.3328    7.3234   -2.9277 N   0  0  0  0  0  0  0  0  0  0  0  0
   -7.9389    8.0449   -1.0037 C   0  0  0  0  0  0  0  0  0  0  0  0
   -8.9276    8.5739   -1.2480 N   0  0  0  0  0  0  0  0  0  0  0  0
   -2.9364    5.1569    0.0682 C   0  0  0  0  0  0  0  0  0  0  0  0
   -1.9139    5.6016    0.9025 C   0  0  0  0  0  0  0  0  0  0  0  0
   -1.9501    6.8781    1.6716 C   0  0  0  0  0  0  0  0  0  0  0  0
   -0.7048    7.7350    1.4535 C   0  0  0  0  0  0  0  0  0  0  0  0
   -0.8024    4.7509    0.8289 C   0  0  0  0  0  0  0  0  0  0  0  0
    0.7333    4.7241    1.6698 S   0  0  0  0  0  0  0  0  0  0  0  0
    1.1373    3.2574    0.8532 C   0  0  0  0  0  0  0  0  0  0  0  0
    2.1889    2.3341    0.7844 C   0  0  0  0  0  0  0  0  0  0  0  0
    3.4669    2.3457    1.3850 C   0  0  0  0  0  0  0  0  0  0  0  0
    4.3869    1.2934    1.0722 C   0  0  0  0  0  0  0  0  0  0  0  0
    5.5598    1.4535    1.6648 N   0  0  0  0  0  0  0  0  0  0  0  0
    5.5079    2.8103    2.5452 S   0  0  0  0  0  0  0  0  0  0  0  0
    3.9878    3.2471    2.2028 N   0  0  0  0  0  0  0  0  0  0  0  0
    3.9481    0.2255    0.2584 C   0  0  0  0  0  0  0  0  0  0  0  0
    4.5714   -0.9853   -0.0708 C   0  0  0  0  0  0  0  0  0  0  0  0
    6.0658   -1.8069    0.2085 S   0  0  0  0  0  0  0  0  0  0  0  0
    5.4221   -3.2059   -0.6209 C   0  0  0  0  0  0  0  0  0  0  0  0
    5.9431   -4.4796   -0.8648 C   0  0  0  0  0  0  0  0  0  0  0  0
    7.3206   -4.8926   -0.4647 C   0  0  0  0  0  0  0  0  0  0  0  0
    8.3240   -4.5363   -1.5652 C   0  0  0  0  0  0  0  0  0  0  0  0
    5.0195   -5.2908   -1.5143 C   0  0  0  0  0  0  0  0  0  0  0  0
    3.5204   -4.4310   -1.8725 S   0  0  0  0  0  0  0  0  0  0  0  0
    4.1181   -3.0134   -1.0976 C   0  0  0  0  0  0  0  0  0  0  0  0
    3.6343   -1.7417   -0.7854 C   0  0  0  0  0  0  0  0  0  0  0  0
    2.4746   -1.0324   -0.9391 N   0  0  0  0  0  0  0  0  0  0  0  0
    2.6370    0.1871   -0.3022 C   0  0  0  0  0  0  0  0  0  0  0  0
    1.7841    1.3083   -0.1199 C   0  0  0  0  0  0  0  0  0  0  0  0
    0.5341    1.6391   -0.6180 N   0  0  0  0  0  0  0  0  0  0  0  0
    0.1470    2.8130   -0.0296 C   0  0  0  0  0  0  0  0  0  0  0  0
   -0.9566    3.6695   -0.0528 C   0  0  0  0  0  0  0  0  0  0  0  0
   -2.4726    3.7319   -0.8655 S   0  0  0  0  0  0  0  0  0  0  0  0
   -0.1476    1.1809   -1.8086 C   0  0  0  0  0  0  0  0  0  0  0  0
    0.7263    1.3401   -3.0500 C   0  0  0  0  0  0  0  0  0  0  0  0
    1.2731   -1.7261   -1.3478 C   0  0  0  0  0  0  0  0  0  0  0  0
    0.3269   -1.9514   -0.1717 C   0  0  0  0  0  0  0  0  0  0  0  0
    5.2143   -6.6213   -1.9391 C   0  0  0  0  0  0  0  0  0  0  0  0
    4.2816   -7.5509   -2.2946 C   0  0  0  0  0  0  0  0  0  0  0  0
    4.6727   -8.6969   -3.1564 C   0  0  0  0  0  0  0  0  0  0  0  0
    5.7975   -9.0553   -3.4218 O   0  0  0  0  0  0  0  0  0  0  0  0
    3.3972   -9.2514   -3.6571 C   0  0  0  0  0  0  0  0  0  0  0  0
    3.1836  -10.2548   -4.5832 C   0  0  0  0  0  0  0  0  0  0  0  0
    1.8792  -10.5842   -4.9164 C   0  0  0  0  0  0  0  0  0  0  0  0
    0.8189   -9.9073   -4.3237 C   0  0  0  0  0  0  0  0  0  0  0  0
   -0.7934  -10.3222   -4.7658 Cl  0  0  0  0  0  0  0  0  0  0  0  0
    1.0175   -8.9025   -3.3816 C   0  0  0  0  0  0  0  0  0  0  0  0
    2.3206   -8.5791   -3.0492 C   0  0  0  0  0  0  0  0  0  0  0  0
    2.8547   -7.6230   -2.0795 C   0  0  0  0  0  0  0  0  0  0  0  0
    2.1727   -7.1305   -0.9972 C   0  0  0  0  0  0  0  0  0  0  0  0
    2.8088   -6.4933    0.0891 C   0  0  0  0  0  0  0  0  0  0  0  0
    3.2964   -6.0206    1.0148 N   0  0  0  0  0  0  0  0  0  0  0  0
    0.7843   -7.2686   -0.8061 C   0  0  0  0  0  0  0  0  0  0  0  0
   -0.3475   -7.3135   -0.6186 N   0  0  0  0  0  0  0  0  0  0  0  0
   -4.6032    5.5116   -1.1802 H   0  0  0  0  0  0  0  0  0  0  0  0
   -6.0296    6.1786    4.8448 H   0  0  0  0  0  0  0  0  0  0  0  0
   -8.9500    7.9769    1.2314 H   0  0  0  0  0  0  0  0  0  0  0  0
   -2.8352    7.4455    1.3781 H   0  0  0  0  0  0  0  0  0  0  0  0
   -2.0517    6.6363    2.7336 H   0  0  0  0  0  0  0  0  0  0  0  0
    0.1846    7.2469    1.8409 H   0  0  0  0  0  0  0  0  0  0  0  0
   -0.8243    8.6845    1.9688 H   0  0  0  0  0  0  0  0  0  0  0  0
   -0.5607    7.9338    0.3937 H   0  0  0  0  0  0  0  0  0  0  0  0
    7.3520   -5.9633   -0.2640 H   0  0  0  0  0  0  0  0  0  0  0  0
    7.5890   -4.3618    0.4506 H   0  0  0  0  0  0  0  0  0  0  0  0
    9.3262   -4.8253   -1.2608 H   0  0  0  0  0  0  0  0  0  0  0  0
    8.0799   -5.0530   -2.4907 H   0  0  0  0  0  0  0  0  0  0  0  0
    8.3139   -3.4654   -1.7535 H   0  0  0  0  0  0  0  0  0  0  0  0
   -0.4920    0.1539   -1.6844 H   0  0  0  0  0  0  0  0  0  0  0  0
   -1.0383    1.8050   -1.9150 H   0  0  0  0  0  0  0  0  0  0  0  0
    1.6613    0.7940   -2.9490 H   0  0  0  0  0  0  0  0  0  0  0  0
    0.9631    2.3902   -3.2050 H   0  0  0  0  0  0  0  0  0  0  0  0
    0.1965    0.9732   -3.9248 H   0  0  0  0  0  0  0  0  0  0  0  0
    0.7849   -1.1976   -2.1662 H   0  0  0  0  0  0  0  0  0  0  0  0
    1.5931   -2.6948   -1.7395 H   0  0  0  0  0  0  0  0  0  0  0  0
   -0.5687   -2.4649   -0.5105 H   0  0  0  0  0  0  0  0  0  0  0  0
    0.0411   -1.0099    0.2917 H   0  0  0  0  0  0  0  0  0  0  0  0
    0.8122   -2.5680    0.5813 H   0  0  0  0  0  0  0  0  0  0  0  0
    6.2448   -6.9284   -2.0865 H   0  0  0  0  0  0  0  0  0  0  0  0
    4.0212  -10.7663   -5.0312 H   0  0  0  0  0  0  0  0  0  0  0  0
    1.6768  -11.3624   -5.6351 H   0  0  0  0  0  0  0  0  0  0  0  0
    0.1725   -8.3968   -2.9433 H   0  0  0  0  0  0  0  0  0  0  0  0
  1  2  2  0  0  0  0
  2  3  1  0  0  0  0
  3  4  2  0  0  0  0
  3  5  1  0  0  0  0
  5  6  2  0  0  0  0
  6  7  1  0  0  0  0
  7  8  1  0  0  0  0
  7  9  2  0  0  0  0
  9 10  1  0  0  0  0
  9 11  1  0  0  0  0
 11 12  2  0  0  0  0
 12 13  1  0  0  0  0
 13 14  2  0  0  0  0
 14 15  1  0  0  0  0
 15 16  3  0  0  0  0
 14 17  1  0  0  0  0
 17 18  3  0  0  0  0
  1 19  1  0  0  0  0
 19 20  2  0  0  0  0
 20 21  1  0  0  0  0
 21 22  1  0  0  0  0
 20 23  1  0  0  0  0
 23 24  1  0  0  0  0
 24 25  1  0  0  0  0
 25 26  1  0  0  0  0
 26 27  1  0  0  0  0
 27 28  1  0  0  0  0
 28 29  2  0  0  0  0
 29 30  1  0  0  0  0
 30 31  1  0  0  0  0
 28 32  1  0  0  0  0
 32 33  1  0  0  0  0
 33 34  1  0  0  0  0
 34 35  1  0  0  0  0
 35 36  1  0  0  0  0
 36 37  1  0  0  0  0
 37 38  1  0  0  0  0
 36 39  2  0  0  0  0
 39 40  1  0  0  0  0
 40 41  1  0  0  0  0
 41 42  1  0  0  0  0
 42 43  1  0  0  0  0
 43 44  1  0  0  0  0
 44 45  1  0  0  0  0
 45 46  1  0  0  0  0
 46 47  1  0  0  0  0
 47 48  1  0  0  0  0
 48 49  1  0  0  0  0
 46 50  1  0  0  0  0
 50 51  1  0  0  0  0
 43 52  1  0  0  0  0
 52 53  1  0  0  0  0
 39 54  1  0  0  0  0
 54 55  2  0  0  0  0
 55 56  1  0  0  0  0
 56 57  2  0  0  0  0
 56 58  1  0  0  0  0
 58 59  2  0  0  0  0
 59 60  1  0  0  0  0
 60 61  2  0  0  0  0
 61 62  1  0  0  0  0
 61 63  1  0  0  0  0
 63 64  2  0  0  0  0
 64 65  1  0  0  0  0
 65 66  2  0  0  0  0
 66 67  1  0  0  0  0
 67 68  3  0  0  0  0
 66 69  1  0  0  0  0
 69 70  3  0  0  0  0
 13  2  1  0  0  0  0
 49 19  1  0  0  0  0
 65 55  1  0  0  0  0
 12  5  1  0  0  0  0
 48 23  2  0  0  0  0
 64 58  1  0  0  0  0
 47 25  2  0  0  0  0
 45 26  2  0  0  0  0
 31 27  2  0  0  0  0
 44 32  2  0  0  0  0
 42 33  2  0  0  0  0
 41 35  2  0  0  0  0
  1 71  1  0  0  0  0
  6 72  1  0  0  0  0
 11 73  1  0  0  0  0
 21 74  1  0  0  0  0
 21 75  1  0  0  0  0
 22 76  1  0  0  0  0
 22 77  1  0  0  0  0
 22 78  1  0  0  0  0
 37 79  1  0  0  0  0
 37 80  1  0  0  0  0
 38 81  1  0  0  0  0
 38 82  1  0  0  0  0
 38 83  1  0  0  0  0
 50 84  1  0  0  0  0
 50 85  1  0  0  0  0
 51 86  1  0  0  0  0
 51 87  1  0  0  0  0
 51 88  1  0  0  0  0
 52 89  1  0  0  0  0
 52 90  1  0  0  0  0
 53 91  1  0  0  0  0
 53 92  1  0  0  0  0
 53 93  1  0  0  0  0
 54 94  1  0  0  0  0
 59 95  1  0  0  0  0
 60 96  1  0  0  0  0
 63 97  1  0  0  0  0
M  END
