
  xtb     02012219063D
 energy: -268.398596202539 gnorm: 0.000479821097 xtb: 6.4.1 (unknown)
156171  0     0  0            999 V2000
    2.1051    1.8139    8.8255 C   0  0  0  0  0  0  0  0  0  0  0  0
    3.3357    1.6576    9.4219 C   0  0  0  0  0  0  0  0  0  0  0  0
    4.4424    0.8573    8.8971 C   0  0  0  0  0  0  0  0  0  0  0  0
    4.4604    0.1744    7.8889 O   0  0  0  0  0  0  0  0  0  0  0  0
    5.5627    1.0404    9.8445 C   0  0  0  0  0  0  0  0  0  0  0  0
    6.8327    0.5056    9.7835 C   0  0  0  0  0  0  0  0  0  0  0  0
    7.7297    0.8236   10.7966 C   0  0  0  0  0  0  0  0  0  0  0  0
    9.3306    0.1950   10.7815 Cl  0  0  0  0  0  0  0  0  0  0  0  0
    7.3196    1.6637   11.8336 C   0  0  0  0  0  0  0  0  0  0  0  0
    8.1876    1.9659   12.8069 F   0  0  0  0  0  0  0  0  0  0  0  0
    6.0440    2.2038   11.9000 C   0  0  0  0  0  0  0  0  0  0  0  0
    5.1521    1.8877   10.8877 C   0  0  0  0  0  0  0  0  0  0  0  0
    3.7628    2.2840   10.6555 C   0  0  0  0  0  0  0  0  0  0  0  0
    3.0311    3.1016   11.4791 C   0  0  0  0  0  0  0  0  0  0  0  0
    1.6899    3.4894   11.2805 C   0  0  0  0  0  0  0  0  0  0  0  0
    0.6026    3.8519   11.1989 N   0  0  0  0  0  0  0  0  0  0  0  0
    3.5314    3.6781   12.6657 C   0  0  0  0  0  0  0  0  0  0  0  0
    3.8742    4.1797   13.6395 N   0  0  0  0  0  0  0  0  0  0  0  0
    1.5957    1.2883    7.6363 C   0  0  0  0  0  0  0  0  0  0  0  0
    2.4200    0.1966    6.5280 S   0  0  0  0  0  0  0  0  0  0  0  0
    1.0570    0.2266    5.5011 C   0  0  0  0  0  0  0  0  0  0  0  0
    0.6901   -0.2777    4.2341 C   0  0  0  0  0  0  0  0  0  0  0  0
   -0.5777    0.1630    3.8795 C   0  0  0  0  0  0  0  0  0  0  0  0
   -1.1539    1.0253    4.9933 C   0  0  0  0  0  0  0  0  0  0  0  0
    0.0071    1.0292    5.9730 C   0  0  0  0  0  0  0  0  0  0  0  0
    0.3097    1.6212    7.1742 C   0  0  0  0  0  0  0  0  0  0  0  0
   -2.3361    0.3939    5.7039 C   0  0  0  0  0  0  0  0  0  0  0  0
   -2.9281    1.0486    6.7789 C   0  0  0  0  0  0  0  0  0  0  0  0
   -3.9845    0.4741    7.4586 C   0  0  0  0  0  0  0  0  0  0  0  0
   -4.4706   -0.7763    7.0984 C   0  0  0  0  0  0  0  0  0  0  0  0
   -5.6535   -1.3744    7.8020 C   0  0  0  0  0  0  0  0  0  0  0  0
   -6.9501   -0.9780    7.0924 C   0  0  0  0  0  0  0  0  0  0  0  0
   -3.8591   -1.4388    6.0435 C   0  0  0  0  0  0  0  0  0  0  0  0
   -2.8019   -0.8673    5.3590 C   0  0  0  0  0  0  0  0  0  0  0  0
   -1.3825    2.4373    4.4668 C   0  0  0  0  0  0  0  0  0  0  0  0
   -0.3049    3.0914    3.8789 C   0  0  0  0  0  0  0  0  0  0  0  0
   -0.4455    4.3631    3.3598 C   0  0  0  0  0  0  0  0  0  0  0  0
   -1.6658    5.0240    3.4154 C   0  0  0  0  0  0  0  0  0  0  0  0
   -1.8376    6.3851    2.8068 C   0  0  0  0  0  0  0  0  0  0  0  0
   -2.3338    6.2644    1.3643 C   0  0  0  0  0  0  0  0  0  0  0  0
   -2.7380    4.3697    4.0045 C   0  0  0  0  0  0  0  0  0  0  0  0
   -2.6033    3.0943    4.5232 C   0  0  0  0  0  0  0  0  0  0  0  0
   -0.9269   -0.2125    2.5568 C   0  0  0  0  0  0  0  0  0  0  0  0
   -2.0887    0.0505    1.7754 C   0  0  0  0  0  0  0  0  0  0  0  0
   -3.3273    0.6712    2.3528 C   0  0  0  0  0  0  0  0  0  0  0  0
   -4.5108   -0.2977    2.3051 C   0  0  0  0  0  0  0  0  0  0  0  0
   -2.0793   -0.2980    0.4529 C   0  0  0  0  0  0  0  0  0  0  0  0
   -0.9992   -0.9688   -0.1581 C   0  0  0  0  0  0  0  0  0  0  0  0
   -0.9580   -1.2844   -1.5254 C   0  0  0  0  0  0  0  0  0  0  0  0
   -2.2150   -0.8139   -2.6371 S   0  0  0  0  0  0  0  0  0  0  0  0
   -1.3088   -1.5135   -3.9200 C   0  0  0  0  0  0  0  0  0  0  0  0
   -1.4565   -1.5681   -5.3215 C   0  0  0  0  0  0  0  0  0  0  0  0
   -0.3331   -2.2222   -5.8548 C   0  0  0  0  0  0  0  0  0  0  0  0
    0.5922   -2.6893   -4.7428 C   0  0  0  0  0  0  0  0  0  0  0  0
    0.5918   -4.2095   -4.7510 C   0  0  0  0  0  0  0  0  0  0  0  0
    1.0354   -4.8902   -5.8807 C   0  0  0  0  0  0  0  0  0  0  0  0
    1.0262   -6.2705   -5.9243 C   0  0  0  0  0  0  0  0  0  0  0  0
    0.5669   -7.0163   -4.8460 C   0  0  0  0  0  0  0  0  0  0  0  0
    0.5184   -8.5148   -4.9133 C   0  0  0  0  0  0  0  0  0  0  0  0
   -0.8083   -8.9786   -5.5182 C   0  0  0  0  0  0  0  0  0  0  0  0
    0.1067   -6.3351   -3.7288 C   0  0  0  0  0  0  0  0  0  0  0  0
    0.1145   -4.9523   -3.6797 C   0  0  0  0  0  0  0  0  0  0  0  0
    1.9584   -2.0474   -4.9386 C   0  0  0  0  0  0  0  0  0  0  0  0
    3.1283   -2.7692   -5.1234 C   0  0  0  0  0  0  0  0  0  0  0  0
    4.3333   -2.1148   -5.3069 C   0  0  0  0  0  0  0  0  0  0  0  0
    4.4066   -0.7293   -5.3072 C   0  0  0  0  0  0  0  0  0  0  0  0
    5.7280   -0.0302   -5.4366 C   0  0  0  0  0  0  0  0  0  0  0  0
    6.3750    0.1348   -4.0595 C   0  0  0  0  0  0  0  0  0  0  0  0
    3.2325   -0.0098   -5.1225 C   0  0  0  0  0  0  0  0  0  0  0  0
    2.0260   -0.6580   -4.9451 C   0  0  0  0  0  0  0  0  0  0  0  0
   -0.1159   -2.1078   -3.5276 C   0  0  0  0  0  0  0  0  0  0  0  0
    0.1152   -1.9746   -2.1344 C   0  0  0  0  0  0  0  0  0  0  0  0
    1.1972   -2.3951   -1.3082 C   0  0  0  0  0  0  0  0  0  0  0  0
    2.3914   -3.1344   -1.8367 C   0  0  0  0  0  0  0  0  0  0  0  0
    3.6144   -2.2164   -1.8828 C   0  0  0  0  0  0  0  0  0  0  0  0
    1.1701   -2.0762    0.0214 C   0  0  0  0  0  0  0  0  0  0  0  0
    0.1185   -1.3515    0.6195 C   0  0  0  0  0  0  0  0  0  0  0  0
    0.1292   -0.9367    1.9604 C   0  0  0  0  0  0  0  0  0  0  0  0
    1.4932   -1.1900    3.0170 S   0  0  0  0  0  0  0  0  0  0  0  0
   -0.3501   -2.2358   -7.2261 C   0  0  0  0  0  0  0  0  0  0  0  0
   -1.4861   -1.6003   -7.7650 C   0  0  0  0  0  0  0  0  0  0  0  0
   -2.5445   -0.9846   -6.4983 S   0  0  0  0  0  0  0  0  0  0  0  0
   -1.6733   -1.4869   -9.1412 C   0  0  0  0  0  0  0  0  0  0  0  0
   -2.6770   -0.8821   -9.8690 C   0  0  0  0  0  0  0  0  0  0  0  0
   -3.8310   -0.1863   -9.3021 C   0  0  0  0  0  0  0  0  0  0  0  0
   -4.1180   -0.0508   -8.1290 O   0  0  0  0  0  0  0  0  0  0  0  0
   -4.5960    0.3324  -10.4618 C   0  0  0  0  0  0  0  0  0  0  0  0
   -3.9486   -0.0420  -11.6525 C   0  0  0  0  0  0  0  0  0  0  0  0
   -4.4683    0.3296  -12.8802 C   0  0  0  0  0  0  0  0  0  0  0  0
   -5.6378    1.0772  -12.8959 C   0  0  0  0  0  0  0  0  0  0  0  0
   -6.1545    1.4480  -14.0704 F   0  0  0  0  0  0  0  0  0  0  0  0
   -6.2903    1.4555  -11.7256 C   0  0  0  0  0  0  0  0  0  0  0  0
   -7.4135    2.1767  -11.7833 F   0  0  0  0  0  0  0  0  0  0  0  0
   -5.7610    1.0766  -10.4895 C   0  0  0  0  0  0  0  0  0  0  0  0
   -6.3853    1.4405   -9.3732 F   0  0  0  0  0  0  0  0  0  0  0  0
   -2.7486   -0.8114  -11.3090 C   0  0  0  0  0  0  0  0  0  0  0  0
   -1.8785   -1.3520  -12.2229 C   0  0  0  0  0  0  0  0  0  0  0  0
   -2.0241   -1.2398  -13.6215 C   0  0  0  0  0  0  0  0  0  0  0  0
   -2.0824   -1.1907  -14.7670 N   0  0  0  0  0  0  0  0  0  0  0  0
   -0.7200   -2.0967  -11.9186 C   0  0  0  0  0  0  0  0  0  0  0  0
    0.2374   -2.7127  -11.7635 N   0  0  0  0  0  0  0  0  0  0  0  0
    1.4010    2.4598    9.3360 H   0  0  0  0  0  0  0  0  0  0  0  0
    7.1190   -0.1407    8.9692 H   0  0  0  0  0  0  0  0  0  0  0  0
    5.7947    2.8458   12.7289 H   0  0  0  0  0  0  0  0  0  0  0  0
   -0.3263    2.2883    7.7273 H   0  0  0  0  0  0  0  0  0  0  0  0
   -2.5634    2.0170    7.0860 H   0  0  0  0  0  0  0  0  0  0  0  0
   -4.4337    1.0031    8.2868 H   0  0  0  0  0  0  0  0  0  0  0  0
   -5.5675   -2.4628    7.8128 H   0  0  0  0  0  0  0  0  0  0  0  0
   -5.6867   -1.0233    8.8351 H   0  0  0  0  0  0  0  0  0  0  0  0
   -7.0595    0.1042    7.0813 H   0  0  0  0  0  0  0  0  0  0  0  0
   -6.9423   -1.3319    6.0638 H   0  0  0  0  0  0  0  0  0  0  0  0
   -7.8090   -1.4083    7.6016 H   0  0  0  0  0  0  0  0  0  0  0  0
   -4.2100   -2.4195    5.7550 H   0  0  0  0  0  0  0  0  0  0  0  0
   -2.3381   -1.4123    4.5504 H   0  0  0  0  0  0  0  0  0  0  0  0
    0.6557    2.5990    3.8250 H   0  0  0  0  0  0  0  0  0  0  0  0
    0.4059    4.8498    2.9061 H   0  0  0  0  0  0  0  0  0  0  0  0
   -2.5597    6.9621    3.3878 H   0  0  0  0  0  0  0  0  0  0  0  0
   -0.8854    6.9188    2.8169 H   0  0  0  0  0  0  0  0  0  0  0  0
   -3.2907    5.7481    1.3347 H   0  0  0  0  0  0  0  0  0  0  0  0
   -1.6225    5.7000    0.7653 H   0  0  0  0  0  0  0  0  0  0  0  0
   -2.4571    7.2497    0.9211 H   0  0  0  0  0  0  0  0  0  0  0  0
   -3.6979    4.8630    4.0607 H   0  0  0  0  0  0  0  0  0  0  0  0
   -3.4648    2.6196    4.9683 H   0  0  0  0  0  0  0  0  0  0  0  0
   -3.1590    0.9598    3.3840 H   0  0  0  0  0  0  0  0  0  0  0  0
   -3.5758    1.5706    1.7837 H   0  0  0  0  0  0  0  0  0  0  0  0
   -4.7440   -0.5856    1.2833 H   0  0  0  0  0  0  0  0  0  0  0  0
   -5.3894    0.1713    2.7411 H   0  0  0  0  0  0  0  0  0  0  0  0
   -4.2867   -1.1972    2.8732 H   0  0  0  0  0  0  0  0  0  0  0  0
   -2.9325   -0.0565   -0.1648 H   0  0  0  0  0  0  0  0  0  0  0  0
    1.3983   -4.3381   -6.7335 H   0  0  0  0  0  0  0  0  0  0  0  0
    1.3820   -6.7760   -6.8105 H   0  0  0  0  0  0  0  0  0  0  0  0
    1.3418   -8.8845   -5.5276 H   0  0  0  0  0  0  0  0  0  0  0  0
    0.6233   -8.9343   -3.9109 H   0  0  0  0  0  0  0  0  0  0  0  0
   -0.8452  -10.0642   -5.5662 H   0  0  0  0  0  0  0  0  0  0  0  0
   -0.9250   -8.5821   -6.5243 H   0  0  0  0  0  0  0  0  0  0  0  0
   -1.6425   -8.6285   -4.9142 H   0  0  0  0  0  0  0  0  0  0  0  0
   -0.2641   -6.8911   -2.8796 H   0  0  0  0  0  0  0  0  0  0  0  0
   -0.2544   -4.4592   -2.7934 H   0  0  0  0  0  0  0  0  0  0  0  0
    3.1148   -3.8487   -5.1158 H   0  0  0  0  0  0  0  0  0  0  0  0
    5.2333   -2.6955   -5.4495 H   0  0  0  0  0  0  0  0  0  0  0  0
    6.3932   -0.6102   -6.0792 H   0  0  0  0  0  0  0  0  0  0  0  0
    5.5863    0.9532   -5.8886 H   0  0  0  0  0  0  0  0  0  0  0  0
    5.7329    0.7223   -3.4070 H   0  0  0  0  0  0  0  0  0  0  0  0
    7.3345    0.6384   -4.1480 H   0  0  0  0  0  0  0  0  0  0  0  0
    6.5331   -0.8365   -3.5963 H   0  0  0  0  0  0  0  0  0  0  0  0
    3.2626    1.0704   -5.1181 H   0  0  0  0  0  0  0  0  0  0  0  0
    1.1246   -0.0780   -4.8054 H   0  0  0  0  0  0  0  0  0  0  0  0
    2.1950   -3.5305   -2.8284 H   0  0  0  0  0  0  0  0  0  0  0  0
    2.6059   -3.9765   -1.1738 H   0  0  0  0  0  0  0  0  0  0  0  0
    4.4694   -2.7534   -2.2851 H   0  0  0  0  0  0  0  0  0  0  0  0
    3.8646   -1.8601   -0.8865 H   0  0  0  0  0  0  0  0  0  0  0  0
    3.4198   -1.3557   -2.5174 H   0  0  0  0  0  0  0  0  0  0  0  0
    1.9906   -2.3827    0.6547 H   0  0  0  0  0  0  0  0  0  0  0  0
    0.4081   -2.6503   -7.8657 H   0  0  0  0  0  0  0  0  0  0  0  0
   -0.8783   -1.9474   -9.7149 H   0  0  0  0  0  0  0  0  0  0  0  0
   -4.0090    0.0683  -13.8188 H   0  0  0  0  0  0  0  0  0  0  0  0
  1  2  2  0  0  0  0
  2  3  1  0  0  0  0
  3  4  2  0  0  0  0
  3  5  1  0  0  0  0
  5  6  2  0  0  0  0
  6  7  1  0  0  0  0
  7  8  1  0  0  0  0
  7  9  2  0  0  0  0
  9 10  1  0  0  0  0
  9 11  1  0  0  0  0
 11 12  2  0  0  0  0
 12 13  1  0  0  0  0
 13 14  2  0  0  0  0
 14 15  1  0  0  0  0
 15 16  3  0  0  0  0
 14 17  1  0  0  0  0
 17 18  3  0  0  0  0
  1 19  1  0  0  0  0
 19 20  1  0  0  0  0
 20 21  1  0  0  0  0
 21 22  1  0  0  0  0
 22 23  2  0  0  0  0
 23 24  1  0  0  0  0
 24 25  1  0  0  0  0
 25 26  1  0  0  0  0
 24 27  1  0  0  0  0
 27 28  2  0  0  0  0
 28 29  1  0  0  0  0
 29 30  2  0  0  0  0
 30 31  1  0  0  0  0
 31 32  1  0  0  0  0
 30 33  1  0  0  0  0
 33 34  2  0  0  0  0
 24 35  1  0  0  0  0
 35 36  2  0  0  0  0
 36 37  1  0  0  0  0
 37 38  2  0  0  0  0
 38 39  1  0  0  0  0
 39 40  1  0  0  0  0
 38 41  1  0  0  0  0
 41 42  2  0  0  0  0
 23 43  1  0  0  0  0
 43 44  2  0  0  0  0
 44 45  1  0  0  0  0
 45 46  1  0  0  0  0
 44 47  1  0  0  0  0
 47 48  2  0  0  0  0
 48 49  1  0  0  0  0
 49 50  1  0  0  0  0
 50 51  1  0  0  0  0
 51 52  1  0  0  0  0
 52 53  2  0  0  0  0
 53 54  1  0  0  0  0
 54 55  1  0  0  0  0
 55 56  2  0  0  0  0
 56 57  1  0  0  0  0
 57 58  2  0  0  0  0
 58 59  1  0  0  0  0
 59 60  1  0  0  0  0
 58 61  1  0  0  0  0
 61 62  2  0  0  0  0
 54 63  1  0  0  0  0
 63 64  2  0  0  0  0
 64 65  1  0  0  0  0
 65 66  2  0  0  0  0
 66 67  1  0  0  0  0
 67 68  1  0  0  0  0
 66 69  1  0  0  0  0
 69 70  2  0  0  0  0
 54 71  1  0  0  0  0
 71 72  1  0  0  0  0
 72 73  1  0  0  0  0
 73 74  1  0  0  0  0
 74 75  1  0  0  0  0
 73 76  2  0  0  0  0
 76 77  1  0  0  0  0
 77 78  2  0  0  0  0
 78 79  1  0  0  0  0
 53 80  1  0  0  0  0
 80 81  2  0  0  0  0
 81 82  1  0  0  0  0
 81 83  1  0  0  0  0
 83 84  2  0  0  0  0
 84 85  1  0  0  0  0
 85 86  2  0  0  0  0
 85 87  1  0  0  0  0
 87 88  2  0  0  0  0
 88 89  1  0  0  0  0
 89 90  2  0  0  0  0
 90 91  1  0  0  0  0
 90 92  1  0  0  0  0
 92 93  1  0  0  0  0
 92 94  2  0  0  0  0
 94 95  1  0  0  0  0
 88 96  1  0  0  0  0
 96 97  2  0  0  0  0
 97 98  1  0  0  0  0
 98 99  3  0  0  0  0
 97100  1  0  0  0  0
100101  3  0  0  0  0
 13  2  1  0  0  0  0
 26 19  2  0  0  0  0
 34 27  1  0  0  0  0
 42 35  1  0  0  0  0
 78 43  1  0  0  0  0
 96 84  1  0  0  0  0
 12  5  1  0  0  0  0
 25 21  2  0  0  0  0
 77 48  1  0  0  0  0
 94 87  1  0  0  0  0
 79 22  1  0  0  0  0
 72 49  2  0  0  0  0
 71 51  2  0  0  0  0
 82 52  1  0  0  0  0
 62 55  1  0  0  0  0
 70 63  1  0  0  0  0
  1102  1  0  0  0  0
  6103  1  0  0  0  0
 11104  1  0  0  0  0
 26105  1  0  0  0  0
 28106  1  0  0  0  0
 29107  1  0  0  0  0
 31108  1  0  0  0  0
 31109  1  0  0  0  0
 32110  1  0  0  0  0
 32111  1  0  0  0  0
 32112  1  0  0  0  0
 33113  1  0  0  0  0
 34114  1  0  0  0  0
 36115  1  0  0  0  0
 37116  1  0  0  0  0
 39117  1  0  0  0  0
 39118  1  0  0  0  0
 40119  1  0  0  0  0
 40120  1  0  0  0  0
 40121  1  0  0  0  0
 41122  1  0  0  0  0
 42123  1  0  0  0  0
 45124  1  0  0  0  0
 45125  1  0  0  0  0
 46126  1  0  0  0  0
 46127  1  0  0  0  0
 46128  1  0  0  0  0
 47129  1  0  0  0  0
 56130  1  0  0  0  0
 57131  1  0  0  0  0
 59132  1  0  0  0  0
 59133  1  0  0  0  0
 60134  1  0  0  0  0
 60135  1  0  0  0  0
 60136  1  0  0  0  0
 61137  1  0  0  0  0
 62138  1  0  0  0  0
 64139  1  0  0  0  0
 65140  1  0  0  0  0
 67141  1  0  0  0  0
 67142  1  0  0  0  0
 68143  1  0  0  0  0
 68144  1  0  0  0  0
 68145  1  0  0  0  0
 69146  1  0  0  0  0
 70147  1  0  0  0  0
 74148  1  0  0  0  0
 74149  1  0  0  0  0
 75150  1  0  0  0  0
 75151  1  0  0  0  0
 75152  1  0  0  0  0
 76153  1  0  0  0  0
 80154  1  0  0  0  0
 83155  1  0  0  0  0
 89156  1  0  0  0  0
M  END
