
  xtb     02012217383D
 energy: -259.135901798534 gnorm: 0.000475320660 xtb: 6.4.1 (unknown)
151167  0     0  0            999 V2000
   -0.9999    9.6062   -2.1163 C   0  0  0  0  0  0  0  0  0  0  0  0
   -0.4768   10.4204   -3.0955 C   0  0  0  0  0  0  0  0  0  0  0  0
    0.3059    9.9766   -4.2501 C   0  0  0  0  0  0  0  0  0  0  0  0
    0.6109    8.8394   -4.5576 O   0  0  0  0  0  0  0  0  0  0  0  0
    0.6638   11.2046   -4.9941 C   0  0  0  0  0  0  0  0  0  0  0  0
    1.4044   11.3194   -6.1518 C   0  0  0  0  0  0  0  0  0  0  0  0
    1.6189   12.5905   -6.6720 C   0  0  0  0  0  0  0  0  0  0  0  0
    2.5350   12.8068   -8.1119 Cl  0  0  0  0  0  0  0  0  0  0  0  0
    1.0828   13.6980   -6.0130 C   0  0  0  0  0  0  0  0  0  0  0  0
    1.2935   14.9203   -6.5183 F   0  0  0  0  0  0  0  0  0  0  0  0
    0.3365   13.5881   -4.8493 C   0  0  0  0  0  0  0  0  0  0  0  0
    0.1241   12.3202   -4.3321 C   0  0  0  0  0  0  0  0  0  0  0  0
   -0.5986   11.8611   -3.1452 C   0  0  0  0  0  0  0  0  0  0  0  0
   -1.2577   12.6804   -2.2625 C   0  0  0  0  0  0  0  0  0  0  0  0
   -1.9597   12.2642   -1.1131 C   0  0  0  0  0  0  0  0  0  0  0  0
   -2.5543   12.0150   -0.1616 N   0  0  0  0  0  0  0  0  0  0  0  0
   -1.3247   14.0838   -2.3873 C   0  0  0  0  0  0  0  0  0  0  0  0
   -1.4175   15.2274   -2.4269 N   0  0  0  0  0  0  0  0  0  0  0  0
   -0.9274    8.2226   -1.9405 C   0  0  0  0  0  0  0  0  0  0  0  0
   -0.1117    7.0696   -3.0031 S   0  0  0  0  0  0  0  0  0  0  0  0
   -0.5543    5.7874   -1.9470 C   0  0  0  0  0  0  0  0  0  0  0  0
   -0.4090    4.4142   -1.7835 C   0  0  0  0  0  0  0  0  0  0  0  0
    0.3575    3.0714   -2.5675 S   0  0  0  0  0  0  0  0  0  0  0  0
   -0.1826    2.0592   -1.2728 C   0  0  0  0  0  0  0  0  0  0  0  0
    0.0104    0.6802   -0.9559 C   0  0  0  0  0  0  0  0  0  0  0  0
    0.7165   -0.3147   -1.6262 C   0  0  0  0  0  0  0  0  0  0  0  0
    0.7707   -1.5539   -1.0332 C   0  0  0  0  0  0  0  0  0  0  0  0
    1.4844   -2.8021   -1.5244 C   0  0  0  0  0  0  0  0  0  0  0  0
    0.9076   -3.1941   -2.8716 C   0  0  0  0  0  0  0  0  0  0  0  0
    1.4009   -2.6085   -4.0310 C   0  0  0  0  0  0  0  0  0  0  0  0
    0.8651   -2.9324   -5.2624 C   0  0  0  0  0  0  0  0  0  0  0  0
   -0.1747   -3.8471   -5.3705 C   0  0  0  0  0  0  0  0  0  0  0  0
   -0.7772   -4.1708   -6.7071 C   0  0  0  0  0  0  0  0  0  0  0  0
   -1.9217   -3.2065   -7.0257 C   0  0  0  0  0  0  0  0  0  0  0  0
   -0.6723   -4.4190   -4.2079 C   0  0  0  0  0  0  0  0  0  0  0  0
   -0.1424   -4.0952   -2.9722 C   0  0  0  0  0  0  0  0  0  0  0  0
    2.9962   -2.6664   -1.5762 C   0  0  0  0  0  0  0  0  0  0  0  0
    3.6628   -1.6544   -0.9014 C   0  0  0  0  0  0  0  0  0  0  0  0
    5.0444   -1.5898   -0.9285 C   0  0  0  0  0  0  0  0  0  0  0  0
    5.7918   -2.5343   -1.6180 C   0  0  0  0  0  0  0  0  0  0  0  0
    7.2923   -2.4863   -1.6102 C   0  0  0  0  0  0  0  0  0  0  0  0
    7.8473   -3.3280   -0.4593 C   0  0  0  0  0  0  0  0  0  0  0  0
    5.1185   -3.5567   -2.2752 C   0  0  0  0  0  0  0  0  0  0  0  0
    3.7394   -3.6248   -2.2549 C   0  0  0  0  0  0  0  0  0  0  0  0
    1.1586   -3.7676   -0.4165 C   0  0  0  0  0  0  0  0  0  0  0  0
    0.3842   -3.1527    0.5542 C   0  0  0  0  0  0  0  0  0  0  0  0
    0.1140   -1.7956    0.1957 C   0  0  0  0  0  0  0  0  0  0  0  0
   -0.6135   -0.8061    0.8522 C   0  0  0  0  0  0  0  0  0  0  0  0
   -0.6537    0.4373    0.2681 C   0  0  0  0  0  0  0  0  0  0  0  0
   -1.3438    1.7024    0.7719 C   0  0  0  0  0  0  0  0  0  0  0  0
   -2.8573    1.5432    0.7030 C   0  0  0  0  0  0  0  0  0  0  0  0
   -3.4139    0.9073   -0.4021 C   0  0  0  0  0  0  0  0  0  0  0  0
   -4.7829    0.7771   -0.5282 C   0  0  0  0  0  0  0  0  0  0  0  0
   -5.6410    1.2826    0.4406 C   0  0  0  0  0  0  0  0  0  0  0  0
   -7.1263    1.0997    0.3251 C   0  0  0  0  0  0  0  0  0  0  0  0
   -7.5514   -0.2285    0.9547 C   0  0  0  0  0  0  0  0  0  0  0  0
   -5.0836    1.9227    1.5377 C   0  0  0  0  0  0  0  0  0  0  0  0
   -3.7121    2.0583    1.6670 C   0  0  0  0  0  0  0  0  0  0  0  0
   -0.8126    2.0197    2.1545 C   0  0  0  0  0  0  0  0  0  0  0  0
    0.1743    2.9780    2.3449 C   0  0  0  0  0  0  0  0  0  0  0  0
    0.6847    3.2254    3.6066 C   0  0  0  0  0  0  0  0  0  0  0  0
    0.2362    2.5157    4.7113 C   0  0  0  0  0  0  0  0  0  0  0  0
    0.7566    2.8164    6.0866 C   0  0  0  0  0  0  0  0  0  0  0  0
   -0.1181    3.8700    6.7695 C   0  0  0  0  0  0  0  0  0  0  0  0
   -0.7415    1.5482    4.5169 C   0  0  0  0  0  0  0  0  0  0  0  0
   -1.2564    1.2998    3.2594 C   0  0  0  0  0  0  0  0  0  0  0  0
   -0.9261    2.6964   -0.2899 C   0  0  0  0  0  0  0  0  0  0  0  0
   -1.0667    4.0579   -0.5739 C   0  0  0  0  0  0  0  0  0  0  0  0
   -1.5959    5.1811    0.0020 N   0  0  0  0  0  0  0  0  0  0  0  0
   -1.3041    6.2378   -0.8239 C   0  0  0  0  0  0  0  0  0  0  0  0
   -1.5129    7.6006   -0.8279 C   0  0  0  0  0  0  0  0  0  0  0  0
   -2.3924    5.2683    1.1984 C   0  0  0  0  0  0  0  0  0  0  0  0
   -3.8826    5.3316    0.8734 C   0  0  0  0  0  0  0  0  0  0  0  0
    0.0178   -4.1621    1.9097 S   0  0  0  0  0  0  0  0  0  0  0  0
    0.9317   -5.4437    1.1760 C   0  0  0  0  0  0  0  0  0  0  0  0
    1.4778   -5.0768   -0.0676 C   0  0  0  0  0  0  0  0  0  0  0  0
    2.3964   -6.3548   -0.8065 S   0  0  0  0  0  0  0  0  0  0  0  0
    2.0590   -7.3783    0.5681 C   0  0  0  0  0  0  0  0  0  0  0  0
    2.4201   -8.6648    0.9095 C   0  0  0  0  0  0  0  0  0  0  0  0
    1.9177   -9.0484    2.1572 C   0  0  0  0  0  0  0  0  0  0  0  0
    0.9654   -7.7654    2.9009 S   0  0  0  0  0  0  0  0  0  0  0  0
    1.2623   -6.7482    1.5450 C   0  0  0  0  0  0  0  0  0  0  0  0
    2.1930  -10.3109    2.6985 C   0  0  0  0  0  0  0  0  0  0  0  0
    1.8357  -10.8648    3.9029 C   0  0  0  0  0  0  0  0  0  0  0  0
    1.0300  -10.2056    4.9367 C   0  0  0  0  0  0  0  0  0  0  0  0
    0.5339   -9.0951    4.8863 O   0  0  0  0  0  0  0  0  0  0  0  0
    0.9394  -11.1629    6.0545 C   0  0  0  0  0  0  0  0  0  0  0  0
    0.3051  -11.0384    7.2796 C   0  0  0  0  0  0  0  0  0  0  0  0
   -0.5462   -9.6072    7.6932 Cl  0  0  0  0  0  0  0  0  0  0  0  0
    0.3708  -12.1008    8.1792 C   0  0  0  0  0  0  0  0  0  0  0  0
    1.0585  -13.2529    7.8435 C   0  0  0  0  0  0  0  0  0  0  0  0
    1.6987  -13.3902    6.6166 C   0  0  0  0  0  0  0  0  0  0  0  0
    1.6380  -12.3387    5.7188 C   0  0  0  0  0  0  0  0  0  0  0  0
    2.2024  -12.1822    4.3762 C   0  0  0  0  0  0  0  0  0  0  0  0
    2.9395  -13.1326    3.7174 C   0  0  0  0  0  0  0  0  0  0  0  0
    3.4876  -13.0032    2.4239 C   0  0  0  0  0  0  0  0  0  0  0  0
    3.9703  -12.9859    1.3815 N   0  0  0  0  0  0  0  0  0  0  0  0
    3.2605  -14.4008    4.2463 C   0  0  0  0  0  0  0  0  0  0  0  0
    3.5612  -15.4488    4.6060 N   0  0  0  0  0  0  0  0  0  0  0  0
   -1.5556   10.1014   -1.3292 H   0  0  0  0  0  0  0  0  0  0  0  0
    1.8058   10.4440   -6.6369 H   0  0  0  0  0  0  0  0  0  0  0  0
   -0.0474   14.4854   -4.3924 H   0  0  0  0  0  0  0  0  0  0  0  0
    1.2097   -0.1041   -2.5622 H   0  0  0  0  0  0  0  0  0  0  0  0
    2.2210   -1.9080   -3.9707 H   0  0  0  0  0  0  0  0  0  0  0  0
    1.2652   -2.4722   -6.1546 H   0  0  0  0  0  0  0  0  0  0  0  0
   -0.0150   -4.0931   -7.4849 H   0  0  0  0  0  0  0  0  0  0  0  0
   -1.1590   -5.1936   -6.7035 H   0  0  0  0  0  0  0  0  0  0  0  0
   -2.6997   -3.2796   -6.2689 H   0  0  0  0  0  0  0  0  0  0  0  0
   -1.5586   -2.1813   -7.0442 H   0  0  0  0  0  0  0  0  0  0  0  0
   -2.3564   -3.4391   -7.9949 H   0  0  0  0  0  0  0  0  0  0  0  0
   -1.4830   -5.1312   -4.2682 H   0  0  0  0  0  0  0  0  0  0  0  0
   -0.5492   -4.5533   -2.0823 H   0  0  0  0  0  0  0  0  0  0  0  0
    3.1042   -0.9095   -0.3534 H   0  0  0  0  0  0  0  0  0  0  0  0
    5.5479   -0.7898   -0.4045 H   0  0  0  0  0  0  0  0  0  0  0  0
    7.6794   -2.8712   -2.5558 H   0  0  0  0  0  0  0  0  0  0  0  0
    7.6296   -1.4542   -1.4969 H   0  0  0  0  0  0  0  0  0  0  0  0
    7.5302   -4.3635   -0.5609 H   0  0  0  0  0  0  0  0  0  0  0  0
    8.9343   -3.2961   -0.4541 H   0  0  0  0  0  0  0  0  0  0  0  0
    7.4836   -2.9513    0.4942 H   0  0  0  0  0  0  0  0  0  0  0  0
    5.6802   -4.3078   -2.8116 H   0  0  0  0  0  0  0  0  0  0  0  0
    3.2328   -4.4240   -2.7767 H   0  0  0  0  0  0  0  0  0  0  0  0
   -1.1070   -1.0245    1.7855 H   0  0  0  0  0  0  0  0  0  0  0  0
   -2.7691    0.5087   -1.1719 H   0  0  0  0  0  0  0  0  0  0  0  0
   -5.1916    0.2776   -1.3948 H   0  0  0  0  0  0  0  0  0  0  0  0
   -7.4191    1.1087   -0.7267 H   0  0  0  0  0  0  0  0  0  0  0  0
   -7.6412    1.9189    0.8308 H   0  0  0  0  0  0  0  0  0  0  0  0
   -7.2800   -0.2523    2.0078 H   0  0  0  0  0  0  0  0  0  0  0  0
   -7.0577   -1.0592    0.4556 H   0  0  0  0  0  0  0  0  0  0  0  0
   -8.6272   -0.3618    0.8702 H   0  0  0  0  0  0  0  0  0  0  0  0
   -5.7290    2.3292    2.3033 H   0  0  0  0  0  0  0  0  0  0  0  0
   -3.3182    2.5658    2.5348 H   0  0  0  0  0  0  0  0  0  0  0  0
    0.5557    3.5375    1.5033 H   0  0  0  0  0  0  0  0  0  0  0  0
    1.4496    3.9787    3.7302 H   0  0  0  0  0  0  0  0  0  0  0  0
    1.7816    3.1863    6.0222 H   0  0  0  0  0  0  0  0  0  0  0  0
    0.7585    1.9056    6.6885 H   0  0  0  0  0  0  0  0  0  0  0  0
   -0.1227    4.7912    6.1909 H   0  0  0  0  0  0  0  0  0  0  0  0
    0.2579    4.0881    7.7661 H   0  0  0  0  0  0  0  0  0  0  0  0
   -1.1425    3.5142    6.8553 H   0  0  0  0  0  0  0  0  0  0  0  0
   -1.1021    0.9777    5.3608 H   0  0  0  0  0  0  0  0  0  0  0  0
   -2.0204    0.5462    3.1393 H   0  0  0  0  0  0  0  0  0  0  0  0
   -2.0483    8.1587   -0.0806 H   0  0  0  0  0  0  0  0  0  0  0  0
   -2.1700    4.3964    1.8155 H   0  0  0  0  0  0  0  0  0  0  0  0
   -2.0900    6.1675    1.7441 H   0  0  0  0  0  0  0  0  0  0  0  0
   -4.1902    4.4376    0.3360 H   0  0  0  0  0  0  0  0  0  0  0  0
   -4.4593    5.4014    1.7910 H   0  0  0  0  0  0  0  0  0  0  0  0
   -4.0985    6.2014    0.2577 H   0  0  0  0  0  0  0  0  0  0  0  0
    3.0250   -9.3149    0.3036 H   0  0  0  0  0  0  0  0  0  0  0  0
    2.7993  -10.9244    2.0431 H   0  0  0  0  0  0  0  0  0  0  0  0
   -0.1187  -12.0137    9.1360 H   0  0  0  0  0  0  0  0  0  0  0  0
    1.1005  -14.0666    8.5513 H   0  0  0  0  0  0  0  0  0  0  0  0
    2.2263  -14.3006    6.3870 H   0  0  0  0  0  0  0  0  0  0  0  0
  1  2  2  0  0  0  0
  2  3  1  0  0  0  0
  3  4  2  0  0  0  0
  3  5  1  0  0  0  0
  5  6  2  0  0  0  0
  6  7  1  0  0  0  0
  7  8  1  0  0  0  0
  7  9  2  0  0  0  0
  9 10  1  0  0  0  0
  9 11  1  0  0  0  0
 11 12  2  0  0  0  0
 12 13  1  0  0  0  0
 13 14  2  0  0  0  0
 14 15  1  0  0  0  0
 15 16  3  0  0  0  0
 14 17  1  0  0  0  0
 17 18  3  0  0  0  0
  1 19  1  0  0  0  0
 19 20  1  0  0  0  0
 20 21  1  0  0  0  0
 21 22  1  0  0  0  0
 22 23  1  0  0  0  0
 23 24  1  0  0  0  0
 24 25  1  0  0  0  0
 25 26  2  0  0  0  0
 26 27  1  0  0  0  0
 27 28  1  0  0  0  0
 28 29  1  0  0  0  0
 29 30  2  0  0  0  0
 30 31  1  0  0  0  0
 31 32  2  0  0  0  0
 32 33  1  0  0  0  0
 33 34  1  0  0  0  0
 32 35  1  0  0  0  0
 35 36  2  0  0  0  0
 28 37  1  0  0  0  0
 37 38  2  0  0  0  0
 38 39  1  0  0  0  0
 39 40  2  0  0  0  0
 40 41  1  0  0  0  0
 41 42  1  0  0  0  0
 40 43  1  0  0  0  0
 43 44  2  0  0  0  0
 28 45  1  0  0  0  0
 45 46  2  0  0  0  0
 46 47  1  0  0  0  0
 47 48  1  0  0  0  0
 48 49  2  0  0  0  0
 49 50  1  0  0  0  0
 50 51  1  0  0  0  0
 51 52  2  0  0  0  0
 52 53  1  0  0  0  0
 53 54  2  0  0  0  0
 54 55  1  0  0  0  0
 55 56  1  0  0  0  0
 54 57  1  0  0  0  0
 57 58  2  0  0  0  0
 50 59  1  0  0  0  0
 59 60  2  0  0  0  0
 60 61  1  0  0  0  0
 61 62  2  0  0  0  0
 62 63  1  0  0  0  0
 63 64  1  0  0  0  0
 62 65  1  0  0  0  0
 65 66  2  0  0  0  0
 50 67  1  0  0  0  0
 67 68  1  0  0  0  0
 68 69  1  0  0  0  0
 69 70  1  0  0  0  0
 70 71  1  0  0  0  0
 69 72  1  0  0  0  0
 72 73  1  0  0  0  0
 46 74  1  0  0  0  0
 74 75  1  0  0  0  0
 75 76  2  0  0  0  0
 76 77  1  0  0  0  0
 77 78  1  0  0  0  0
 78 79  1  0  0  0  0
 79 80  2  0  0  0  0
 80 81  1  0  0  0  0
 81 82  1  0  0  0  0
 80 83  1  0  0  0  0
 83 84  2  0  0  0  0
 84 85  1  0  0  0  0
 85 86  2  0  0  0  0
 85 87  1  0  0  0  0
 87 88  2  0  0  0  0
 88 89  1  0  0  0  0
 88 90  1  0  0  0  0
 90 91  2  0  0  0  0
 91 92  1  0  0  0  0
 92 93  2  0  0  0  0
 93 94  1  0  0  0  0
 94 95  2  0  0  0  0
 95 96  1  0  0  0  0
 96 97  3  0  0  0  0
 95 98  1  0  0  0  0
 98 99  3  0  0  0  0
 13  2  1  0  0  0  0
 71 19  2  0  0  0  0
 82 75  1  0  0  0  0
 94 84  1  0  0  0  0
 12  5  1  0  0  0  0
 70 21  2  0  0  0  0
 82 78  2  0  0  0  0
 93 87  1  0  0  0  0
 68 22  2  0  0  0  0
 67 24  2  0  0  0  0
 49 25  1  0  0  0  0
 58 51  1  0  0  0  0
 66 59  1  0  0  0  0
 47 27  2  0  0  0  0
 36 29  1  0  0  0  0
 44 37  1  0  0  0  0
 76 45  1  0  0  0  0
  1100  1  0  0  0  0
  6101  1  0  0  0  0
 11102  1  0  0  0  0
 26103  1  0  0  0  0
 30104  1  0  0  0  0
 31105  1  0  0  0  0
 33106  1  0  0  0  0
 33107  1  0  0  0  0
 34108  1  0  0  0  0
 34109  1  0  0  0  0
 34110  1  0  0  0  0
 35111  1  0  0  0  0
 36112  1  0  0  0  0
 38113  1  0  0  0  0
 39114  1  0  0  0  0
 41115  1  0  0  0  0
 41116  1  0  0  0  0
 42117  1  0  0  0  0
 42118  1  0  0  0  0
 42119  1  0  0  0  0
 43120  1  0  0  0  0
 44121  1  0  0  0  0
 48122  1  0  0  0  0
 52123  1  0  0  0  0
 53124  1  0  0  0  0
 55125  1  0  0  0  0
 55126  1  0  0  0  0
 56127  1  0  0  0  0
 56128  1  0  0  0  0
 56129  1  0  0  0  0
 57130  1  0  0  0  0
 58131  1  0  0  0  0
 60132  1  0  0  0  0
 61133  1  0  0  0  0
 63134  1  0  0  0  0
 63135  1  0  0  0  0
 64136  1  0  0  0  0
 64137  1  0  0  0  0
 64138  1  0  0  0  0
 65139  1  0  0  0  0
 66140  1  0  0  0  0
 71141  1  0  0  0  0
 72142  1  0  0  0  0
 72143  1  0  0  0  0
 73144  1  0  0  0  0
 73145  1  0  0  0  0
 73146  1  0  0  0  0
 79147  1  0  0  0  0
 83148  1  0  0  0  0
 90149  1  0  0  0  0
 91150  1  0  0  0  0
 92151  1  0  0  0  0
M  END
