154

C          0.31660       -9.16140        3.35230
C         -0.57470      -10.16460        3.04530
C         -1.64740      -10.08220        2.05240
O         -1.93760       -9.14130        1.33730
C         -2.32820      -11.39520        2.07940
C         -3.40590      -11.81590        1.32870
C         -3.88470      -13.10520        1.53060
Cl        -5.22650      -13.69460        0.62990
C         -3.26530      -13.92350        2.47670
F         -3.73160      -15.16420        2.66790
C         -2.18080      -13.50570        3.23350
C         -1.70490      -12.22010        3.03070
C         -0.60590      -11.47870        3.65080
C          0.21650      -11.97200        4.63300
C          0.11440      -13.27340        5.16770
N          0.08940      -14.31780        5.64350
C          1.27030      -11.27420        5.25740
N          2.14460      -10.77870        5.81540
C          0.42750       -7.85600        2.86690
S         -0.60790       -7.09790        1.65200
C          0.27670       -5.63390        1.81770
C          0.31570       -4.32900        1.34080
S         -0.55180       -3.31630        0.23540
C          0.51580       -2.02180        0.65200
C          0.58360       -0.64830        0.27010
C         -0.22600        0.09750       -0.58250
C          0.03960        1.44240       -0.68260
C         -0.68780        2.48580       -1.51280
C         -2.12310        2.74840       -1.09030
C         -2.95600        3.46880       -1.93840
C         -4.23260        3.81290       -1.53990
C         -4.70620        3.46140       -0.28200
C         -6.10500        3.81160        0.13130
C         -7.08200        2.72270       -0.31690
C         -3.86780        2.74450        0.56050
C         -2.58840        2.39570        0.16730
C         -0.57600        2.09890       -2.97430
C          0.47110        2.55930       -3.75950
C          0.58240        2.16530       -5.08020
C         -0.33980        1.29560       -5.64580
C         -0.24310        0.90820       -7.09310
C         -1.00120        1.91080       -7.96570
C         -1.38090        0.83060       -4.85230
C         -1.49800        1.22270       -3.53270
C          0.08150        3.72320       -1.14190
C          1.09160        3.42450       -0.24090
C          1.10550        2.02480        0.04490
C          1.92450        1.27330        0.88450
C          1.65330       -0.06980        0.98980
C          2.36970       -1.12020        1.83440
C          3.76660       -1.26900        1.25680
C          4.73470       -0.30310        1.51090
C          5.99920       -0.40880        0.96510
C          6.33670       -1.47590        0.14230
C          7.70190       -1.57230       -0.47380
C          7.73050       -0.86140       -1.82830
C          5.36120       -2.42330       -0.13320
C          4.09310       -2.32150        0.41190
C          2.33800       -0.75560        3.30790
C          1.15200       -0.26930        3.84690
C          1.06230        0.04540        5.18880
C          2.15250       -0.11790        6.03430
C          2.04370        0.18360        7.50040
C          1.58860       -1.05960        8.26770
C          3.33090       -0.61590        5.49670
C          3.42560       -0.93480        4.15310
C          1.49920       -2.33320        1.58150
C          1.38810       -3.66410        1.99890
N          1.98830       -4.53330        2.87160
C          1.33220       -5.73420        2.76650
C          1.41290       -6.98190        3.34920
C          3.10550       -4.28850        3.74810
C          4.43770       -4.64630        3.09350
S          1.95640        4.80920        0.33260
C          0.91690        5.83180       -0.61850
C          0.79300        7.20560       -0.77080
C         -0.28320        7.54570       -1.57580
S         -1.08410        6.12130       -2.23630
C         -0.03210        5.09180       -1.35060
C         -0.69510        8.85710       -1.88770
C         -1.90170        9.28970       -2.35550
C         -1.99190       10.60750       -3.03460
O         -1.14780       11.47440       -3.05560
C         -3.30100       10.60070       -3.72170
C         -3.82880       11.52820       -4.57200
C         -5.10120       11.29350       -5.14050
C         -5.69310       12.22150       -6.01910
C         -6.92090       11.96790       -6.56330
F         -7.48240       12.85210       -7.39990
C         -7.60860       10.77770       -6.25400
F         -8.81000       10.55370       -6.80400
C         -7.06100        9.85890       -5.40340
C         -5.79820       10.09190       -4.82270
C         -5.23020        9.15410       -3.92970
C         -4.00370        9.41040       -3.37930
C         -3.20630        8.66890       -2.40400
C         -3.71580        7.76350       -1.50790
C         -5.03660        7.27990       -1.55330
N         -6.09910        6.84350       -1.55310
C         -3.01830        7.30000       -0.37290
N         -2.51250        6.95190        0.59720
H          1.06180       -9.39610        4.10260
H         -3.86280      -11.15870        0.60610
H         -1.75140      -14.19010        3.94650
H         -1.03760       -0.36810       -1.11920
H         -2.60180        3.75630       -2.91870
H         -4.87000        4.37180       -2.20940
H         -6.39390        4.76210       -0.32080
H         -6.15430        3.91710        1.21670
H         -7.06280        2.62070       -1.39960
H         -6.81160        1.76470        0.12260
H         -8.09450        2.97300       -0.01010
H         -4.21530        2.46340        1.54440
H         -1.94850        1.84970        0.84550
H          1.20620        3.23120       -3.33980
H          1.40170        2.53750       -5.67880
H         -0.66600       -0.08760       -7.23910
H          0.80430        0.88380       -7.40070
H         -2.05070        1.94160       -7.68160
H         -0.93300        1.63070       -9.01420
H         -0.58510        2.90850       -7.84460
H         -2.10860        0.15110       -5.27240
H         -2.32010        0.85770       -2.93440
H          2.71960        1.74910        1.43600
H          4.50500        0.53450        2.15210
H          6.73730        0.34940        1.18440
H          8.43930       -1.11400        0.18820
H          7.97180       -2.62110       -0.61260
H          7.47530        0.18930       -1.70990
H          8.72050       -0.93100       -2.27250
H          7.01140       -1.31290       -2.50810
H          5.59420       -3.25680       -0.78040
H          3.35450       -3.07140        0.16880
H          0.29240       -0.13360        3.20630
H          0.13270        0.42780        5.58500
H          1.32420        0.98870        7.66040
H          3.01250        0.50860        7.88480
H          1.50720       -0.84190        9.32970
H          0.61860       -1.39360        7.90600
H          2.30150       -1.87020        8.13310
H          4.19160       -0.75620        6.13520
H          4.36070       -1.31380        3.76640
H          2.12820       -7.28670        4.09190
H          3.09310       -3.23490        4.03350
H          2.95890       -4.89330        4.64750
H          5.24730       -4.49320        3.80150
H          4.43930       -5.68840        2.78220
H          4.61440       -4.02000        2.22220
H          1.41010        7.93670       -0.28130
H          0.06910        9.62450       -1.80510
H         -3.28430       12.42980       -4.80780
H         -5.17910       13.13720       -6.26600
H         -7.60360        8.95530       -5.17360
H         -5.77660        8.25090       -3.70920
