90

C          3.46690       -5.60660        0.01950
C          3.04260       -6.72000        0.69710
C          1.87080       -6.80270        1.57790
O          1.09380       -5.91500        1.87800
C          1.81670       -8.19650        2.05790
C          0.88890       -8.77350        2.90120
C          1.03870      -10.11700        3.22320
Cl        -0.07860      -10.90000        4.26780
C          2.11340      -10.83180        2.68680
F          2.25280      -12.12370        3.00100
C          3.04710      -10.25770        1.83780
C          2.89590       -8.91720        1.51770
C          3.68320       -8.02550        0.66800
C          4.81320       -8.38590       -0.01580
C          5.58820       -7.54340       -0.84210
N          6.27380       -6.93110       -1.53030
C          5.37460       -9.68180        0.01520
N          5.88330      -10.70990       -0.00300
C          2.91890       -4.31390       -0.03760
C          3.49410       -3.29170       -0.79660
C          2.77450       -2.11190       -0.71350
S          2.98580       -0.50940       -1.36410
C          1.54200        0.02700       -0.52790
C          1.05980        1.32420       -0.51650
C          1.70670        2.43790       -1.19920
S          1.73540        2.60170       -2.92480
C          2.47000        4.16520       -2.83450
C          2.67370        4.99540       -4.05170
C          1.35650        5.67180       -4.44380
C          2.68960        4.51810       -1.53620
Cl         3.38330        6.00440       -1.04820
C          2.25920        3.53770       -0.60550
Cl         2.41740        3.71560        1.09120
C         -0.10270        1.57070        0.23220
C         -0.73690        0.53460        0.96490
C         -0.25510       -0.76280        0.95310
C         -0.90080       -1.87530        1.63850
S         -0.93730       -2.02930        3.36500
C         -1.66880       -3.59440        3.28010
C         -1.87750       -4.41890        4.50040
C         -0.56680       -5.11020        4.88840
C         -1.88130       -3.95530        1.98280
C         -1.44800       -2.97980        1.04840
Cl        -1.59850       -3.16750       -0.64770
Cl        -2.57120       -5.44540        1.50090
C          0.90810       -1.00900        0.20550
C          1.63650       -2.21670        0.09420
S          1.46300       -3.77690        0.78140
S         -2.17660        1.07280        1.80740
C         -1.95940        2.67810        1.16590
C         -2.66710        3.86340        1.26640
C         -2.08590        4.88910        0.51590
S         -0.64390        4.34490       -0.32360
C         -0.82540        2.78090        0.35170
C         -2.60880        6.19220        0.49260
C         -2.16370        7.31470       -0.15770
C         -1.00160        7.39330       -1.05070
O         -0.25990        6.49340       -1.39990
C         -0.90530        8.80340       -1.47380
C          0.03430        9.38490       -2.30230
C         -0.08330       10.74250       -2.55100
F          0.80270       11.34960       -3.34740
C         -1.11870       11.48260       -1.97760
F         -1.20760       12.79090       -2.23400
C         -2.06160       10.89670       -1.14570
C         -1.95180        9.53810       -0.89180
C         -2.76400        8.63590       -0.07370
C         -3.88060        9.00290        0.62760
C         -4.68280        8.15010        1.41700
N         -5.38920        7.53110        2.07750
C         -4.40090       10.31600        0.65570
N         -4.87610       11.35810        0.72040
H          4.36140       -5.71200       -0.58240
H          0.06800       -8.19680        3.29670
H          3.85000      -10.86930        1.46020
H          4.39300       -3.42590       -1.37060
H          3.02830        4.37330       -4.87500
H          3.42820        5.75320       -3.83380
H          1.52100        6.37340       -5.25720
H          0.94250        6.20140       -3.58930
H          0.63290        4.92640       -4.76460
H         -2.22120       -3.79020        5.32330
H         -2.64190       -5.16820        4.28750
H          0.16680       -4.37300        5.20560
H         -0.16220       -5.64520        4.03280
H         -0.73620       -5.80900        5.70320
H         -3.55970        4.00050        1.84940
H         -3.49440        6.30240        1.10660
H          0.83520        8.81050       -2.74000
H         -2.83940       11.51490       -0.72880
