
  xtb     02012218203D
 energy: -192.451097132303 gnorm: 0.000811588458 xtb: 6.4.1 (unknown)
 90100  0     0  0            999 V2000
   -5.2407   -4.1001   -1.0073 C   0  0  0  0  0  0  0  0  0  0  0  0
   -6.5511   -4.0114   -1.3868 C   0  0  0  0  0  0  0  0  0  0  0  0
   -7.3024   -2.8169   -1.8377 C   0  0  0  0  0  0  0  0  0  0  0  0
   -6.8879   -1.7102   -2.1042 O   0  0  0  0  0  0  0  0  0  0  0  0
   -8.7186   -3.2404   -1.8967 C   0  0  0  0  0  0  0  0  0  0  0  0
   -9.8195   -2.4696   -2.2117 C   0  0  0  0  0  0  0  0  0  0  0  0
  -11.0718   -3.0712   -2.1944 C   0  0  0  0  0  0  0  0  0  0  0  0
  -12.4861   -2.1717   -2.5723 Cl  0  0  0  0  0  0  0  0  0  0  0  0
  -11.1738   -4.4254   -1.8621 C   0  0  0  0  0  0  0  0  0  0  0  0
  -12.3823   -4.9977   -1.8409 F   0  0  0  0  0  0  0  0  0  0  0  0
  -10.0719   -5.2054   -1.5499 C   0  0  0  0  0  0  0  0  0  0  0  0
   -8.8231   -4.6018   -1.5685 C   0  0  0  0  0  0  0  0  0  0  0  0
   -7.4872   -5.1248   -1.2989 C   0  0  0  0  0  0  0  0  0  0  0  0
   -7.1932   -6.4413   -1.0629 C   0  0  0  0  0  0  0  0  0  0  0  0
   -5.9059   -6.9927   -0.8790 C   0  0  0  0  0  0  0  0  0  0  0  0
   -4.9019   -7.5335   -0.7427 N   0  0  0  0  0  0  0  0  0  0  0  0
   -8.1648   -7.4651   -1.0005 C   0  0  0  0  0  0  0  0  0  0  0  0
   -8.9004   -8.3427   -0.9298 N   0  0  0  0  0  0  0  0  0  0  0  0
   -4.1931   -3.1565   -1.0088 C   0  0  0  0  0  0  0  0  0  0  0  0
   -4.0834   -1.8595   -1.4834 C   0  0  0  0  0  0  0  0  0  0  0  0
   -2.8190   -1.3314   -1.2476 C   0  0  0  0  0  0  0  0  0  0  0  0
   -2.1000    0.2209   -1.5579 S   0  0  0  0  0  0  0  0  0  0  0  0
   -0.6235   -0.2969   -0.7713 C   0  0  0  0  0  0  0  0  0  0  0  0
    0.4936    0.5020   -0.5800 C   0  0  0  0  0  0  0  0  0  0  0  0
    0.5864    1.8629   -1.0862 C   0  0  0  0  0  0  0  0  0  0  0  0
   -0.5115    3.1170   -0.6054 S   0  0  0  0  0  0  0  0  0  0  0  0
    0.3175    4.3051   -1.5495 C   0  0  0  0  0  0  0  0  0  0  0  0
   -0.1705    5.7091   -1.6204 C   0  0  0  0  0  0  0  0  0  0  0  0
   -1.2962    5.8427   -2.6492 C   0  0  0  0  0  0  0  0  0  0  0  0
    1.3688    3.7427   -2.2111 C   0  0  0  0  0  0  0  0  0  0  0  0
    2.4269    4.6063   -3.2433 Cl  0  0  0  0  0  0  0  0  0  0  0  0
    1.5263    2.3575   -1.9476 C   0  0  0  0  0  0  0  0  0  0  0  0
    2.7429    1.4003   -2.6792 Cl  0  0  0  0  0  0  0  0  0  0  0  0
    1.5688   -0.0602    0.1256 C   0  0  0  0  0  0  0  0  0  0  0  0
    1.5329   -1.4156    0.5454 C   0  0  0  0  0  0  0  0  0  0  0  0
    0.4332   -2.2269    0.3168 C   0  0  0  0  0  0  0  0  0  0  0  0
    0.4032   -3.6197    0.7463 C   0  0  0  0  0  0  0  0  0  0  0  0
    0.3336   -4.9261   -0.3963 S   0  0  0  0  0  0  0  0  0  0  0  0
    0.3109   -6.1179    0.8576 C   0  0  0  0  0  0  0  0  0  0  0  0
    0.2805   -7.5707    0.5371 C   0  0  0  0  0  0  0  0  0  0  0  0
    1.6908   -8.1067    0.2798 C   0  0  0  0  0  0  0  0  0  0  0  0
    0.3773   -5.5224    2.0821 C   0  0  0  0  0  0  0  0  0  0  0  0
    0.4314   -4.1036    2.0225 C   0  0  0  0  0  0  0  0  0  0  0  0
    0.4627   -3.1073    3.4157 Cl  0  0  0  0  0  0  0  0  0  0  0  0
    0.3800   -6.3798    3.5673 Cl  0  0  0  0  0  0  0  0  0  0  0  0
   -0.6696   -1.6442   -0.3277 C   0  0  0  0  0  0  0  0  0  0  0  0
   -1.9379   -2.2068   -0.6043 C   0  0  0  0  0  0  0  0  0  0  0  0
   -2.6845   -3.7125   -0.2775 S   0  0  0  0  0  0  0  0  0  0  0  0
    2.9928   -1.9141    1.3750 S   0  0  0  0  0  0  0  0  0  0  0  0
    3.6292   -0.2991    1.2384 C   0  0  0  0  0  0  0  0  0  0  0  0
    4.7800    0.3257    1.6878 C   0  0  0  0  0  0  0  0  0  0  0  0
    4.8018    1.6841    1.3644 C   0  0  0  0  0  0  0  0  0  0  0  0
    3.3645    2.1674    0.4820 S   0  0  0  0  0  0  0  0  0  0  0  0
    2.7659    0.5620    0.5524 C   0  0  0  0  0  0  0  0  0  0  0  0
    5.8733    2.5214    1.7224 C   0  0  0  0  0  0  0  0  0  0  0  0
    6.0579    3.8615    1.5081 C   0  0  0  0  0  0  0  0  0  0  0  0
    5.1160    4.7637    0.8323 C   0  0  0  0  0  0  0  0  0  0  0  0
    4.0332    4.4891    0.3490 O   0  0  0  0  0  0  0  0  0  0  0  0
    5.7394    6.1000    0.8596 C   0  0  0  0  0  0  0  0  0  0  0  0
    5.2425    7.2837    0.3533 C   0  0  0  0  0  0  0  0  0  0  0  0
    6.0321    8.4117    0.5177 C   0  0  0  0  0  0  0  0  0  0  0  0
    5.5923    9.5880    0.0447 F   0  0  0  0  0  0  0  0  0  0  0  0
    7.2626    8.3692    1.1570 C   0  0  0  0  0  0  0  0  0  0  0  0
    7.7491    7.1717    1.6592 C   0  0  0  0  0  0  0  0  0  0  0  0
    6.9831    6.0237    1.5107 C   0  0  0  0  0  0  0  0  0  0  0  0
    7.2143    4.6398    1.9243 C   0  0  0  0  0  0  0  0  0  0  0  0
    8.3280    4.1889    2.5803 C   0  0  0  0  0  0  0  0  0  0  0  0
    8.5712    2.8583    2.9849 C   0  0  0  0  0  0  0  0  0  0  0  0
    8.8504    1.8062    3.3511 N   0  0  0  0  0  0  0  0  0  0  0  0
    9.4152    5.0105    2.9517 C   0  0  0  0  0  0  0  0  0  0  0  0
   10.3304    5.6194    3.2806 N   0  0  0  0  0  0  0  0  0  0  0  0
   -4.9305   -5.0572   -0.6043 H   0  0  0  0  0  0  0  0  0  0  0  0
   -9.7055   -1.4270   -2.4624 H   0  0  0  0  0  0  0  0  0  0  0  0
  -10.2241   -6.2427   -1.3010 H   0  0  0  0  0  0  0  0  0  0  0  0
   -4.8896   -1.3375   -1.9641 H   0  0  0  0  0  0  0  0  0  0  0  0
   -0.5361    6.0170   -0.6393 H   0  0  0  0  0  0  0  0  0  0  0  0
    0.6632    6.3540   -1.9028 H   0  0  0  0  0  0  0  0  0  0  0  0
   -0.9404    5.5576   -3.6361 H   0  0  0  0  0  0  0  0  0  0  0  0
   -1.6457    6.8708   -2.6881 H   0  0  0  0  0  0  0  0  0  0  0  0
   -2.1308    5.1991   -2.3809 H   0  0  0  0  0  0  0  0  0  0  0  0
   -0.3387   -7.7333   -0.3464 H   0  0  0  0  0  0  0  0  0  0  0  0
   -0.1656   -8.1036    1.3786 H   0  0  0  0  0  0  0  0  0  0  0  0
    2.3147   -7.9655    1.1588 H   0  0  0  0  0  0  0  0  0  0  0  0
    1.6486   -9.1675    0.0491 H   0  0  0  0  0  0  0  0  0  0  0  0
    2.1468   -7.5846   -0.5581 H   0  0  0  0  0  0  0  0  0  0  0  0
    5.5725   -0.1584    2.2291 H   0  0  0  0  0  0  0  0  0  0  0  0
    6.6599    1.9960    2.2504 H   0  0  0  0  0  0  0  0  0  0  0  0
    4.2876    7.3281   -0.1455 H   0  0  0  0  0  0  0  0  0  0  0  0
    7.8331    9.2790    1.2572 H   0  0  0  0  0  0  0  0  0  0  0  0
    8.7062    7.1547    2.1531 H   0  0  0  0  0  0  0  0  0  0  0  0
  1  2  2  0  0  0  0
  2  3  1  0  0  0  0
  3  4  2  0  0  0  0
  3  5  1  0  0  0  0
  5  6  2  0  0  0  0
  6  7  1  0  0  0  0
  7  8  1  0  0  0  0
  7  9  2  0  0  0  0
  9 10  1  0  0  0  0
  9 11  1  0  0  0  0
 11 12  2  0  0  0  0
 12 13  1  0  0  0  0
 13 14  2  0  0  0  0
 14 15  1  0  0  0  0
 15 16  3  0  0  0  0
 14 17  1  0  0  0  0
 17 18  3  0  0  0  0
  1 19  1  0  0  0  0
 19 20  2  0  0  0  0
 20 21  1  0  0  0  0
 21 22  1  0  0  0  0
 22 23  1  0  0  0  0
 23 24  2  0  0  0  0
 24 25  1  0  0  0  0
 25 26  1  0  0  0  0
 26 27  1  0  0  0  0
 27 28  1  0  0  0  0
 28 29  1  0  0  0  0
 27 30  2  0  0  0  0
 30 31  1  0  0  0  0
 30 32  1  0  0  0  0
 32 33  1  0  0  0  0
 24 34  1  0  0  0  0
 34 35  2  0  0  0  0
 35 36  1  0  0  0  0
 36 37  1  0  0  0  0
 37 38  1  0  0  0  0
 38 39  1  0  0  0  0
 39 40  1  0  0  0  0
 40 41  1  0  0  0  0
 39 42  2  0  0  0  0
 42 43  1  0  0  0  0
 43 44  1  0  0  0  0
 42 45  1  0  0  0  0
 36 46  2  0  0  0  0
 46 47  1  0  0  0  0
 47 48  1  0  0  0  0
 35 49  1  0  0  0  0
 49 50  1  0  0  0  0
 50 51  1  0  0  0  0
 51 52  2  0  0  0  0
 52 53  1  0  0  0  0
 53 54  1  0  0  0  0
 52 55  1  0  0  0  0
 55 56  2  0  0  0  0
 56 57  1  0  0  0  0
 57 58  2  0  0  0  0
 57 59  1  0  0  0  0
 59 60  2  0  0  0  0
 60 61  1  0  0  0  0
 61 62  1  0  0  0  0
 61 63  2  0  0  0  0
 63 64  1  0  0  0  0
 64 65  2  0  0  0  0
 65 66  1  0  0  0  0
 66 67  2  0  0  0  0
 67 68  1  0  0  0  0
 68 69  3  0  0  0  0
 67 70  1  0  0  0  0
 70 71  3  0  0  0  0
 13  2  1  0  0  0  0
 48 19  1  0  0  0  0
 54 50  2  0  0  0  0
 66 56  1  0  0  0  0
 12  5  1  0  0  0  0
 47 21  2  0  0  0  0
 65 59  1  0  0  0  0
 46 23  1  0  0  0  0
 32 25  2  0  0  0  0
 54 34  1  0  0  0  0
 43 37  2  0  0  0  0
  1 72  1  0  0  0  0
  6 73  1  0  0  0  0
 11 74  1  0  0  0  0
 20 75  1  0  0  0  0
 28 76  1  0  0  0  0
 28 77  1  0  0  0  0
 29 78  1  0  0  0  0
 29 79  1  0  0  0  0
 29 80  1  0  0  0  0
 40 81  1  0  0  0  0
 40 82  1  0  0  0  0
 41 83  1  0  0  0  0
 41 84  1  0  0  0  0
 41 85  1  0  0  0  0
 51 86  1  0  0  0  0
 55 87  1  0  0  0  0
 60 88  1  0  0  0  0
 63 89  1  0  0  0  0
 64 90  1  0  0  0  0
M  END
