
  xtb     02012216453D
 energy: -199.333718214500 gnorm: 0.000203304128 xtb: 6.4.1 (unknown)
 93104  0     0  0            999 V2000
   -1.1744   -6.1878   -2.6767 C   0  0  0  0  0  0  0  0  0  0  0  0
   -1.9003   -7.3266   -2.4625 C   0  0  0  0  0  0  0  0  0  0  0  0
   -2.5436   -7.7885   -1.2113 C   0  0  0  0  0  0  0  0  0  0  0  0
   -2.5792   -7.2479   -0.1274 O   0  0  0  0  0  0  0  0  0  0  0  0
   -3.1603   -9.0918   -1.5398 C   0  0  0  0  0  0  0  0  0  0  0  0
   -3.8758   -9.9234   -0.7021 C   0  0  0  0  0  0  0  0  0  0  0  0
   -4.3697  -11.1140   -1.2202 C   0  0  0  0  0  0  0  0  0  0  0  0
   -5.2719  -12.1958   -0.2359 Cl  0  0  0  0  0  0  0  0  0  0  0  0
   -4.1253  -11.4279   -2.5604 C   0  0  0  0  0  0  0  0  0  0  0  0
   -4.6001  -12.5768   -3.0536 F   0  0  0  0  0  0  0  0  0  0  0  0
   -3.4095  -10.5961   -3.4063 C   0  0  0  0  0  0  0  0  0  0  0  0
   -2.9202   -9.4063   -2.8871 C   0  0  0  0  0  0  0  0  0  0  0  0
   -2.1559   -8.3214   -3.4966 C   0  0  0  0  0  0  0  0  0  0  0  0
   -1.7914   -8.2697   -4.8161 C   0  0  0  0  0  0  0  0  0  0  0  0
   -1.0993   -7.2228   -5.4644 C   0  0  0  0  0  0  0  0  0  0  0  0
   -0.5558   -6.4248   -6.0869 N   0  0  0  0  0  0  0  0  0  0  0  0
   -2.0840   -9.2849   -5.7543 C   0  0  0  0  0  0  0  0  0  0  0  0
   -2.2830  -10.0677   -6.5692 N   0  0  0  0  0  0  0  0  0  0  0  0
   -0.8435   -5.1026   -1.8402 C   0  0  0  0  0  0  0  0  0  0  0  0
   -1.1101   -4.8010   -0.5139 C   0  0  0  0  0  0  0  0  0  0  0  0
   -0.5977   -3.5587   -0.1572 C   0  0  0  0  0  0  0  0  0  0  0  0
   -0.6716   -2.6104    1.2995 S   0  0  0  0  0  0  0  0  0  0  0  0
    0.1380   -1.2844    0.4896 C   0  0  0  0  0  0  0  0  0  0  0  0
    0.3870   -0.0402    1.0519 C   0  0  0  0  0  0  0  0  0  0  0  0
    0.1023    0.2521    2.4466 C   0  0  0  0  0  0  0  0  0  0  0  0
   -1.4707    0.0387    3.1485 S   0  0  0  0  0  0  0  0  0  0  0  0
   -0.9282    0.5649    4.7039 C   0  0  0  0  0  0  0  0  0  0  0  0
   -1.8448    0.5810    5.8761 C   0  0  0  0  0  0  0  0  0  0  0  0
   -1.8486   -0.7787    6.5797 C   0  0  0  0  0  0  0  0  0  0  0  0
    0.4019    0.8666    4.6715 C   0  0  0  0  0  0  0  0  0  0  0  0
    1.2955    1.4148    6.0278 Cl  0  0  0  0  0  0  0  0  0  0  0  0
    0.9887    0.6950    3.3905 C   0  0  0  0  0  0  0  0  0  0  0  0
    2.6554    0.9517    3.0882 Cl  0  0  0  0  0  0  0  0  0  0  0  0
    0.9538    0.9364    0.2156 C   0  0  0  0  0  0  0  0  0  0  0  0
    1.3662    0.6105   -1.1034 C   0  0  0  0  0  0  0  0  0  0  0  0
    1.1970   -0.6584   -1.6345 C   0  0  0  0  0  0  0  0  0  0  0  0
    1.6989   -1.0439   -2.9438 C   0  0  0  0  0  0  0  0  0  0  0  0
    1.2054   -0.2679   -4.4149 S   0  0  0  0  0  0  0  0  0  0  0  0
    2.1750   -1.3243   -5.3818 C   0  0  0  0  0  0  0  0  0  0  0  0
    2.1467   -1.2575   -6.8678 C   0  0  0  0  0  0  0  0  0  0  0  0
    1.0335   -2.1497   -7.4246 C   0  0  0  0  0  0  0  0  0  0  0  0
    2.8446   -2.2155   -4.5953 C   0  0  0  0  0  0  0  0  0  0  0  0
    2.5778   -2.0578   -3.2108 C   0  0  0  0  0  0  0  0  0  0  0  0
    3.3217   -3.0147   -1.9990 Cl  0  0  0  0  0  0  0  0  0  0  0  0
    3.9033   -3.4216   -5.1981 Cl  0  0  0  0  0  0  0  0  0  0  0  0
    0.5179   -1.5966   -0.8404 C   0  0  0  0  0  0  0  0  0  0  0  0
    0.0750   -2.8944   -1.1876 C   0  0  0  0  0  0  0  0  0  0  0  0
    0.0767   -3.8177   -2.6283 S   0  0  0  0  0  0  0  0  0  0  0  0
    2.0708    1.9638   -1.9610 S   0  0  0  0  0  0  0  0  0  0  0  0
    1.7322    3.0035   -0.6095 C   0  0  0  0  0  0  0  0  0  0  0  0
    1.8668    4.3731   -0.4096 C   0  0  0  0  0  0  0  0  0  0  0  0
    1.3811    4.7595    0.8279 C   0  0  0  0  0  0  0  0  0  0  0  0
    0.7832    3.3796    1.7524 S   0  0  0  0  0  0  0  0  0  0  0  0
    1.1624    2.3141    0.4649 C   0  0  0  0  0  0  0  0  0  0  0  0
    1.2681    6.0106    1.4725 C   0  0  0  0  0  0  0  0  0  0  0  0
    1.4939    7.2839    1.0323 C   0  0  0  0  0  0  0  0  0  0  0  0
    1.8595    7.7389   -0.3314 C   0  0  0  0  0  0  0  0  0  0  0  0
    2.1852    7.0762   -1.2936 O   0  0  0  0  0  0  0  0  0  0  0  0
    1.7414    9.2083   -0.3076 C   0  0  0  0  0  0  0  0  0  0  0  0
    1.9152   10.0785   -1.3566 C   0  0  0  0  0  0  0  0  0  0  0  0
    1.7353   11.4426   -1.1080 C   0  0  0  0  0  0  0  0  0  0  0  0
    1.8457   12.5331   -2.0129 C   0  0  0  0  0  0  0  0  0  0  0  0
    1.5930   13.7198   -1.4108 C   0  0  0  0  0  0  0  0  0  0  0  0
    1.6222   15.4079   -2.2262 Br  0  0  0  0  0  0  0  0  0  0  0  0
    1.2083   13.5903    0.2851 S   0  0  0  0  0  0  0  0  0  0  0  0
    1.3895   11.8647    0.1986 C   0  0  0  0  0  0  0  0  0  0  0  0
    1.2188   10.9840    1.2591 C   0  0  0  0  0  0  0  0  0  0  0  0
    1.3983    9.6378    0.9964 C   0  0  0  0  0  0  0  0  0  0  0  0
    1.2889    8.4677    1.8587 C   0  0  0  0  0  0  0  0  0  0  0  0
    1.0711    8.5080    3.2110 C   0  0  0  0  0  0  0  0  0  0  0  0
    0.8979    9.7009    3.9464 C   0  0  0  0  0  0  0  0  0  0  0  0
    0.7477   10.6294    4.6041 N   0  0  0  0  0  0  0  0  0  0  0  0
    1.0076    7.4015    4.0857 C   0  0  0  0  0  0  0  0  0  0  0  0
    0.9455    6.5714    4.8772 N   0  0  0  0  0  0  0  0  0  0  0  0
   -0.7768   -6.0658   -3.6773 H   0  0  0  0  0  0  0  0  0  0  0  0
   -4.0454   -9.6506    0.3273 H   0  0  0  0  0  0  0  0  0  0  0  0
   -3.2594  -10.9021   -4.4285 H   0  0  0  0  0  0  0  0  0  0  0  0
   -1.6570   -5.4544    0.1399 H   0  0  0  0  0  0  0  0  0  0  0  0
   -2.8556    0.8223    5.5440 H   0  0  0  0  0  0  0  0  0  0  0  0
   -1.5098    1.3519    6.5724 H   0  0  0  0  0  0  0  0  0  0  0  0
   -0.8486   -1.0261    6.9262 H   0  0  0  0  0  0  0  0  0  0  0  0
   -2.1831   -1.5565    5.8972 H   0  0  0  0  0  0  0  0  0  0  0  0
   -2.5174   -0.7528    7.4354 H   0  0  0  0  0  0  0  0  0  0  0  0
    1.9823   -0.2262   -7.1837 H   0  0  0  0  0  0  0  0  0  0  0  0
    3.1109   -1.5940   -7.2531 H   0  0  0  0  0  0  0  0  0  0  0  0
    0.0649   -1.8173   -7.0594 H   0  0  0  0  0  0  0  0  0  0  0  0
    1.1838   -3.1811   -7.1172 H   0  0  0  0  0  0  0  0  0  0  0  0
    1.0311   -2.1066   -8.5101 H   0  0  0  0  0  0  0  0  0  0  0  0
    2.2791    5.0617   -1.1230 H   0  0  0  0  0  0  0  0  0  0  0  0
    0.9021    5.9181    2.4885 H   0  0  0  0  0  0  0  0  0  0  0  0
    2.1778    9.7163   -2.3381 H   0  0  0  0  0  0  0  0  0  0  0  0
    2.0981   12.4295   -3.0524 H   0  0  0  0  0  0  0  0  0  0  0  0
    0.9515   11.3575    2.2331 H   0  0  0  0  0  0  0  0  0  0  0  0
  1  2  2  0  0  0  0
  2  3  1  0  0  0  0
  3  4  2  0  0  0  0
  3  5  1  0  0  0  0
  5  6  2  0  0  0  0
  6  7  1  0  0  0  0
  7  8  1  0  0  0  0
  7  9  2  0  0  0  0
  9 10  1  0  0  0  0
  9 11  1  0  0  0  0
 11 12  2  0  0  0  0
 12 13  1  0  0  0  0
 13 14  2  0  0  0  0
 14 15  1  0  0  0  0
 15 16  3  0  0  0  0
 14 17  1  0  0  0  0
 17 18  3  0  0  0  0
  1 19  1  0  0  0  0
 19 20  2  0  0  0  0
 20 21  1  0  0  0  0
 21 22  1  0  0  0  0
 22 23  1  0  0  0  0
 23 24  2  0  0  0  0
 24 25  1  0  0  0  0
 25 26  1  0  0  0  0
 26 27  1  0  0  0  0
 27 28  1  0  0  0  0
 28 29  1  0  0  0  0
 27 30  2  0  0  0  0
 30 31  1  0  0  0  0
 30 32  1  0  0  0  0
 32 33  1  0  0  0  0
 24 34  1  0  0  0  0
 34 35  2  0  0  0  0
 35 36  1  0  0  0  0
 36 37  1  0  0  0  0
 37 38  1  0  0  0  0
 38 39  1  0  0  0  0
 39 40  1  0  0  0  0
 40 41  1  0  0  0  0
 39 42  2  0  0  0  0
 42 43  1  0  0  0  0
 43 44  1  0  0  0  0
 42 45  1  0  0  0  0
 36 46  2  0  0  0  0
 46 47  1  0  0  0  0
 47 48  1  0  0  0  0
 35 49  1  0  0  0  0
 49 50  1  0  0  0  0
 50 51  1  0  0  0  0
 51 52  2  0  0  0  0
 52 53  1  0  0  0  0
 53 54  1  0  0  0  0
 52 55  1  0  0  0  0
 55 56  2  0  0  0  0
 56 57  1  0  0  0  0
 57 58  2  0  0  0  0
 57 59  1  0  0  0  0
 59 60  2  0  0  0  0
 60 61  1  0  0  0  0
 61 62  1  0  0  0  0
 62 63  2  0  0  0  0
 63 64  1  0  0  0  0
 63 65  1  0  0  0  0
 65 66  1  0  0  0  0
 66 67  1  0  0  0  0
 67 68  2  0  0  0  0
 68 69  1  0  0  0  0
 69 70  2  0  0  0  0
 70 71  1  0  0  0  0
 71 72  3  0  0  0  0
 70 73  1  0  0  0  0
 73 74  3  0  0  0  0
 13  2  1  0  0  0  0
 48 19  1  0  0  0  0
 54 50  2  0  0  0  0
 69 56  1  0  0  0  0
 12  5  1  0  0  0  0
 47 21  2  0  0  0  0
 68 59  1  0  0  0  0
 46 23  1  0  0  0  0
 66 61  2  0  0  0  0
 32 25  2  0  0  0  0
 54 34  1  0  0  0  0
 43 37  2  0  0  0  0
  1 75  1  0  0  0  0
  6 76  1  0  0  0  0
 11 77  1  0  0  0  0
 20 78  1  0  0  0  0
 28 79  1  0  0  0  0
 28 80  1  0  0  0  0
 29 81  1  0  0  0  0
 29 82  1  0  0  0  0
 29 83  1  0  0  0  0
 40 84  1  0  0  0  0
 40 85  1  0  0  0  0
 41 86  1  0  0  0  0
 41 87  1  0  0  0  0
 41 88  1  0  0  0  0
 51 89  1  0  0  0  0
 55 90  1  0  0  0  0
 60 91  1  0  0  0  0
 62 92  1  0  0  0  0
 67 93  1  0  0  0  0
M  END
