90

C         -5.24070       -4.10010       -1.00730
C         -6.55110       -4.01140       -1.38680
C         -7.30240       -2.81690       -1.83770
O         -6.88790       -1.71020       -2.10420
C         -8.71860       -3.24040       -1.89670
C         -9.81950       -2.46960       -2.21170
C        -11.07180       -3.07120       -2.19440
Cl       -12.48610       -2.17170       -2.57230
C        -11.17380       -4.42540       -1.86210
F        -12.38230       -4.99770       -1.84090
C        -10.07190       -5.20540       -1.54990
C         -8.82310       -4.60180       -1.56850
C         -7.48720       -5.12480       -1.29890
C         -7.19320       -6.44130       -1.06290
C         -5.90590       -6.99270       -0.87900
N         -4.90190       -7.53350       -0.74270
C         -8.16480       -7.46510       -1.00050
N         -8.90040       -8.34270       -0.92980
C         -4.19310       -3.15650       -1.00880
C         -4.08340       -1.85950       -1.48340
C         -2.81900       -1.33140       -1.24760
S         -2.10000        0.22090       -1.55790
C         -0.62350       -0.29690       -0.77130
C          0.49360        0.50200       -0.58000
C          0.58640        1.86290       -1.08620
S         -0.51150        3.11700       -0.60540
C          0.31750        4.30510       -1.54950
C         -0.17050        5.70910       -1.62040
C         -1.29620        5.84270       -2.64920
C          1.36880        3.74270       -2.21110
Cl         2.42690        4.60630       -3.24330
C          1.52630        2.35750       -1.94760
Cl         2.74290        1.40030       -2.67920
C          1.56880       -0.06020        0.12560
C          1.53290       -1.41560        0.54540
C          0.43320       -2.22690        0.31680
C          0.40320       -3.61970        0.74630
S          0.33360       -4.92610       -0.39630
C          0.31090       -6.11790        0.85760
C          0.28050       -7.57070        0.53710
C          1.69080       -8.10670        0.27980
C          0.37730       -5.52240        2.08210
C          0.43140       -4.10360        2.02250
Cl         0.46270       -3.10730        3.41570
Cl         0.38000       -6.37980        3.56730
C         -0.66960       -1.64420       -0.32770
C         -1.93790       -2.20680       -0.60430
S         -2.68450       -3.71250       -0.27750
S          2.99280       -1.91410        1.37500
C          3.62920       -0.29910        1.23840
C          4.78000        0.32570        1.68780
C          4.80180        1.68410        1.36440
S          3.36450        2.16740        0.48200
C          2.76590        0.56200        0.55240
C          5.87330        2.52140        1.72240
C          6.05790        3.86150        1.50810
C          5.11600        4.76370        0.83230
O          4.03320        4.48910        0.34900
C          5.73940        6.10000        0.85960
C          5.24250        7.28370        0.35330
C          6.03210        8.41170        0.51770
F          5.59230        9.58800        0.04470
C          7.26260        8.36920        1.15700
C          7.74910        7.17170        1.65920
C          6.98310        6.02370        1.51070
C          7.21430        4.63980        1.92430
C          8.32800        4.18890        2.58030
C          8.57120        2.85830        2.98490
N          8.85040        1.80620        3.35110
C          9.41520        5.01050        2.95170
N         10.33040        5.61940        3.28060
H         -4.93050       -5.05720       -0.60430
H         -9.70550       -1.42700       -2.46240
H        -10.22410       -6.24270       -1.30100
H         -4.88960       -1.33750       -1.96410
H         -0.53610        6.01700       -0.63930
H          0.66320        6.35400       -1.90280
H         -0.94040        5.55760       -3.63610
H         -1.64570        6.87080       -2.68810
H         -2.13080        5.19910       -2.38090
H         -0.33870       -7.73330       -0.34640
H         -0.16560       -8.10360        1.37860
H          2.31470       -7.96550        1.15880
H          1.64860       -9.16750        0.04910
H          2.14680       -7.58460       -0.55810
H          5.57250       -0.15840        2.22910
H          6.65990        1.99600        2.25040
H          4.28760        7.32810       -0.14550
H          7.83310        9.27900        1.25720
H          8.70620        7.15470        2.15310
