
  xtb     02012222473D
 energy: -263.347731560288 gnorm: 0.000274987208 xtb: 6.4.1 (unknown)
155170  0     0  0            999 V2000
   -5.8824    5.0633    0.0548 C   0  0  0  0  0  0  0  0  0  0  0  0
   -6.0620    5.8412    1.1751 C   0  0  0  0  0  0  0  0  0  0  0  0
   -5.1938    5.8609    2.3541 C   0  0  0  0  0  0  0  0  0  0  0  0
   -4.1680    5.2327    2.5412 O   0  0  0  0  0  0  0  0  0  0  0  0
   -5.8157    6.8119    3.3008 C   0  0  0  0  0  0  0  0  0  0  0  0
   -5.3851    7.1702    4.5613 C   0  0  0  0  0  0  0  0  0  0  0  0
   -6.1413    8.0900    5.2782 C   0  0  0  0  0  0  0  0  0  0  0  0
   -5.6638    8.5800    6.8564 Cl  0  0  0  0  0  0  0  0  0  0  0  0
   -7.3002    8.6168    4.7049 C   0  0  0  0  0  0  0  0  0  0  0  0
   -8.0250    9.5014    5.4007 F   0  0  0  0  0  0  0  0  0  0  0  0
   -7.7373    8.2608    3.4379 C   0  0  0  0  0  0  0  0  0  0  0  0
   -6.9822    7.3430    2.7251 C   0  0  0  0  0  0  0  0  0  0  0  0
   -7.1596    6.7610    1.3944 C   0  0  0  0  0  0  0  0  0  0  0  0
   -8.1909    7.0568    0.5400 C   0  0  0  0  0  0  0  0  0  0  0  0
   -8.3833    6.5130   -0.7472 C   0  0  0  0  0  0  0  0  0  0  0  0
   -8.6182    6.1243   -1.8026 N   0  0  0  0  0  0  0  0  0  0  0  0
   -9.2259    7.9685    0.8381 C   0  0  0  0  0  0  0  0  0  0  0  0
  -10.0961    8.6953    1.0166 N   0  0  0  0  0  0  0  0  0  0  0  0
   -4.8936    4.1271   -0.2601 C   0  0  0  0  0  0  0  0  0  0  0  0
   -4.9255    3.3938   -1.4585 C   0  0  0  0  0  0  0  0  0  0  0  0
   -3.8888    2.4956   -1.5554 C   0  0  0  0  0  0  0  0  0  0  0  0
   -3.3983    1.4815   -2.5577 C   0  0  0  0  0  0  0  0  0  0  0  0
   -4.3823    0.3675   -2.8562 C   0  0  0  0  0  0  0  0  0  0  0  0
   -4.2530   -0.3797   -4.0206 C   0  0  0  0  0  0  0  0  0  0  0  0
   -5.1168   -1.4257   -4.2820 C   0  0  0  0  0  0  0  0  0  0  0  0
   -6.1289   -1.7558   -3.3898 C   0  0  0  0  0  0  0  0  0  0  0  0
   -7.0397   -2.9181   -3.6602 C   0  0  0  0  0  0  0  0  0  0  0  0
   -6.4297   -4.2118   -3.1165 C   0  0  0  0  0  0  0  0  0  0  0  0
   -6.2444   -1.0153   -2.2213 C   0  0  0  0  0  0  0  0  0  0  0  0
   -5.3808    0.0311   -1.9534 C   0  0  0  0  0  0  0  0  0  0  0  0
   -3.0126    2.2441   -3.8146 C   0  0  0  0  0  0  0  0  0  0  0  0
   -4.0135    2.6548   -4.6874 C   0  0  0  0  0  0  0  0  0  0  0  0
   -3.7034    3.3871   -5.8162 C   0  0  0  0  0  0  0  0  0  0  0  0
   -2.3884    3.7331   -6.1026 C   0  0  0  0  0  0  0  0  0  0  0  0
   -2.0593    4.5645   -7.3086 C   0  0  0  0  0  0  0  0  0  0  0  0
   -2.1402    6.0542   -6.9689 C   0  0  0  0  0  0  0  0  0  0  0  0
   -1.3951    3.3326   -5.2203 C   0  0  0  0  0  0  0  0  0  0  0  0
   -1.7002    2.6000   -4.0867 C   0  0  0  0  0  0  0  0  0  0  0  0
   -2.2081    0.8988   -1.8146 C   0  0  0  0  0  0  0  0  0  0  0  0
   -1.9988    1.5697   -0.5854 C   0  0  0  0  0  0  0  0  0  0  0  0
   -3.0346    2.5419   -0.4485 C   0  0  0  0  0  0  0  0  0  0  0  0
   -3.5104    3.6790    0.7323 S   0  0  0  0  0  0  0  0  0  0  0  0
   -0.9510    1.2293    0.2692 C   0  0  0  0  0  0  0  0  0  0  0  0
   -0.1448    0.1856   -0.1142 C   0  0  0  0  0  0  0  0  0  0  0  0
    1.0422   -0.4049    0.6339 C   0  0  0  0  0  0  0  0  0  0  0  0
    0.5525   -0.7663    2.0188 C   0  0  0  0  0  0  0  0  0  0  0  0
    0.6314    0.1387    3.0692 C   0  0  0  0  0  0  0  0  0  0  0  0
    0.1423   -0.1929    4.3189 C   0  0  0  0  0  0  0  0  0  0  0  0
   -0.4582   -1.4233    4.5496 C   0  0  0  0  0  0  0  0  0  0  0  0
   -1.0137   -1.7674    5.9012 C   0  0  0  0  0  0  0  0  0  0  0  0
   -2.4723   -1.3184    6.0094 C   0  0  0  0  0  0  0  0  0  0  0  0
   -0.5842   -2.3037    3.4833 C   0  0  0  0  0  0  0  0  0  0  0  0
   -0.0902   -1.9791    2.2336 C   0  0  0  0  0  0  0  0  0  0  0  0
    2.2525    0.5166    0.5983 C   0  0  0  0  0  0  0  0  0  0  0  0
    2.4489    1.3533   -0.4941 C   0  0  0  0  0  0  0  0  0  0  0  0
    3.5834    2.1369   -0.5877 C   0  0  0  0  0  0  0  0  0  0  0  0
    4.5572    2.1042    0.4016 C   0  0  0  0  0  0  0  0  0  0  0  0
    5.8165    2.9114    0.2755 C   0  0  0  0  0  0  0  0  0  0  0  0
    6.9203    2.0760   -0.3766 C   0  0  0  0  0  0  0  0  0  0  0  0
    4.3600    1.2617    1.4867 C   0  0  0  0  0  0  0  0  0  0  0  0
    3.2272    0.4755    1.5857 C   0  0  0  0  0  0  0  0  0  0  0  0
    1.3831   -1.5833   -0.2528 C   0  0  0  0  0  0  0  0  0  0  0  0
    0.5673   -1.5803   -1.3761 C   0  0  0  0  0  0  0  0  0  0  0  0
   -0.3915   -0.5238   -1.3126 C   0  0  0  0  0  0  0  0  0  0  0  0
   -1.4164   -0.1635   -2.1837 C   0  0  0  0  0  0  0  0  0  0  0  0
    0.9100   -2.8105   -2.5452 S   0  0  0  0  0  0  0  0  0  0  0  0
    2.2020   -3.3589   -1.5285 C   0  0  0  0  0  0  0  0  0  0  0  0
    3.2048   -4.3208   -1.5225 C   0  0  0  0  0  0  0  0  0  0  0  0
    3.9337   -4.1345   -0.3158 C   0  0  0  0  0  0  0  0  0  0  0  0
    3.3883   -3.0960    0.3987 N   0  0  0  0  0  0  0  0  0  0  0  0
    3.8272   -2.6931    1.6791 C   0  0  0  0  0  0  0  0  0  0  0  0
    2.9771   -2.8158    2.7694 C   0  0  0  0  0  0  0  0  0  0  0  0
    3.3939   -2.3871    4.0140 C   0  0  0  0  0  0  0  0  0  0  0  0
    4.6657   -1.8553    4.1952 C   0  0  0  0  0  0  0  0  0  0  0  0
    5.0682   -1.3135    5.5353 C   0  0  0  0  0  0  0  0  0  0  0  0
    4.4694    0.0806    5.7375 C   0  0  0  0  0  0  0  0  0  0  0  0
    5.5237   -1.7887    3.1040 C   0  0  0  0  0  0  0  0  0  0  0  0
    5.1148   -2.2040    1.8506 C   0  0  0  0  0  0  0  0  0  0  0  0
    2.3322   -2.6080   -0.3261 C   0  0  0  0  0  0  0  0  0  0  0  0
    4.9660   -5.0360   -0.1291 C   0  0  0  0  0  0  0  0  0  0  0  0
    5.0602   -5.9362   -1.1862 C   0  0  0  0  0  0  0  0  0  0  0  0
    3.8301   -5.6288   -2.4366 S   0  0  0  0  0  0  0  0  0  0  0  0
    5.9060   -7.0243   -1.4313 C   0  0  0  0  0  0  0  0  0  0  0  0
    6.9307   -7.5793   -0.6979 C   0  0  0  0  0  0  0  0  0  0  0  0
    7.4642   -7.1527    0.6081 C   0  0  0  0  0  0  0  0  0  0  0  0
    7.1614   -6.1969    1.2952 O   0  0  0  0  0  0  0  0  0  0  0  0
    8.5062   -8.1438    0.9584 C   0  0  0  0  0  0  0  0  0  0  0  0
    9.2830   -8.1890    2.0989 C   0  0  0  0  0  0  0  0  0  0  0  0
   10.1972   -9.2232    2.2121 C   0  0  0  0  0  0  0  0  0  0  0  0
   10.9717   -9.3092    3.3017 F   0  0  0  0  0  0  0  0  0  0  0  0
   10.3170  -10.1765    1.2012 C   0  0  0  0  0  0  0  0  0  0  0  0
   11.2067  -11.1674    1.3365 F   0  0  0  0  0  0  0  0  0  0  0  0
    9.5374  -10.1277    0.0550 C   0  0  0  0  0  0  0  0  0  0  0  0
    8.6200   -9.0951   -0.0657 C   0  0  0  0  0  0  0  0  0  0  0  0
    7.6646   -8.7584   -1.1228 C   0  0  0  0  0  0  0  0  0  0  0  0
    7.5329   -9.4587   -2.2946 C   0  0  0  0  0  0  0  0  0  0  0  0
    6.6534   -9.1720   -3.3609 C   0  0  0  0  0  0  0  0  0  0  0  0
    5.9855   -9.0279   -4.2846 N   0  0  0  0  0  0  0  0  0  0  0  0
    8.2935  -10.6028   -2.6196 C   0  0  0  0  0  0  0  0  0  0  0  0
    8.8719  -11.5373   -2.9511 N   0  0  0  0  0  0  0  0  0  0  0  0
   -6.6282    5.1630   -0.7246 H   0  0  0  0  0  0  0  0  0  0  0  0
   -4.4853    6.7454    4.9766 H   0  0  0  0  0  0  0  0  0  0  0  0
   -8.6416    8.7061    3.0570 H   0  0  0  0  0  0  0  0  0  0  0  0
   -5.7013    3.5352   -2.1896 H   0  0  0  0  0  0  0  0  0  0  0  0
   -3.4805   -0.1316   -4.7342 H   0  0  0  0  0  0  0  0  0  0  0  0
   -5.0061   -1.9919   -5.1958 H   0  0  0  0  0  0  0  0  0  0  0  0
   -7.1994   -3.0205   -4.7354 H   0  0  0  0  0  0  0  0  0  0  0  0
   -8.0080   -2.7490   -3.1851 H   0  0  0  0  0  0  0  0  0  0  0  0
   -6.2778   -4.1360   -2.0421 H   0  0  0  0  0  0  0  0  0  0  0  0
   -5.4667   -4.4022   -3.5850 H   0  0  0  0  0  0  0  0  0  0  0  0
   -7.0863   -5.0552   -3.3164 H   0  0  0  0  0  0  0  0  0  0  0  0
   -7.0223   -1.2574   -1.5112 H   0  0  0  0  0  0  0  0  0  0  0  0
   -5.4892    0.5913   -1.0358 H   0  0  0  0  0  0  0  0  0  0  0  0
   -5.0403    2.3868   -4.4855 H   0  0  0  0  0  0  0  0  0  0  0  0
   -4.4935    3.6932   -6.4867 H   0  0  0  0  0  0  0  0  0  0  0  0
   -1.0519    4.3291   -7.6576 H   0  0  0  0  0  0  0  0  0  0  0  0
   -2.7615    4.3415   -8.1143 H   0  0  0  0  0  0  0  0  0  0  0  0
   -1.4372    6.3004   -6.1761 H   0  0  0  0  0  0  0  0  0  0  0  0
   -1.9039    6.6568   -7.8427 H   0  0  0  0  0  0  0  0  0  0  0  0
   -3.1411    6.3113   -6.6296 H   0  0  0  0  0  0  0  0  0  0  0  0
   -0.3661    3.5949   -5.4214 H   0  0  0  0  0  0  0  0  0  0  0  0
   -0.9082    2.3030   -3.4148 H   0  0  0  0  0  0  0  0  0  0  0  0
   -0.7973    1.7632    1.1939 H   0  0  0  0  0  0  0  0  0  0  0  0
    1.0829    1.1075    2.9148 H   0  0  0  0  0  0  0  0  0  0  0  0
    0.2263    0.5189    5.1280 H   0  0  0  0  0  0  0  0  0  0  0  0
   -0.4278   -1.2738    6.6795 H   0  0  0  0  0  0  0  0  0  0  0  0
   -0.9568   -2.8460    6.0620 H   0  0  0  0  0  0  0  0  0  0  0  0
   -3.0761   -1.8078    5.2484 H   0  0  0  0  0  0  0  0  0  0  0  0
   -2.5488   -0.2430    5.8661 H   0  0  0  0  0  0  0  0  0  0  0  0
   -2.8755   -1.5690    6.9877 H   0  0  0  0  0  0  0  0  0  0  0  0
   -1.0711   -3.2571    3.6333 H   0  0  0  0  0  0  0  0  0  0  0  0
   -0.2044   -2.6768    1.4151 H   0  0  0  0  0  0  0  0  0  0  0  0
    1.7098    1.3934   -1.2811 H   0  0  0  0  0  0  0  0  0  0  0  0
    3.7141    2.7825   -1.4444 H   0  0  0  0  0  0  0  0  0  0  0  0
    6.1485    3.2366    1.2636 H   0  0  0  0  0  0  0  0  0  0  0  0
    5.6297    3.7989   -0.3319 H   0  0  0  0  0  0  0  0  0  0  0  0
    6.6129    1.7515   -1.3683 H   0  0  0  0  0  0  0  0  0  0  0  0
    7.8340    2.6582   -0.4694 H   0  0  0  0  0  0  0  0  0  0  0  0
    7.1300    1.1925    0.2224 H   0  0  0  0  0  0  0  0  0  0  0  0
    5.1048    1.2132    2.2680 H   0  0  0  0  0  0  0  0  0  0  0  0
    3.1051   -0.1676    2.4420 H   0  0  0  0  0  0  0  0  0  0  0  0
   -1.5791   -0.7068   -3.1016 H   0  0  0  0  0  0  0  0  0  0  0  0
    1.9936   -3.2369    2.6369 H   0  0  0  0  0  0  0  0  0  0  0  0
    2.7202   -2.4677    4.8545 H   0  0  0  0  0  0  0  0  0  0  0  0
    6.1555   -1.2562    5.6058 H   0  0  0  0  0  0  0  0  0  0  0  0
    4.7080   -1.9758    6.3250 H   0  0  0  0  0  0  0  0  0  0  0  0
    3.3846    0.0410    5.6664 H   0  0  0  0  0  0  0  0  0  0  0  0
    4.8349    0.7652    4.9753 H   0  0  0  0  0  0  0  0  0  0  0  0
    4.7411    0.4729    6.7143 H   0  0  0  0  0  0  0  0  0  0  0  0
    6.5230   -1.4000    3.2344 H   0  0  0  0  0  0  0  0  0  0  0  0
    5.7798   -2.1378    1.0029 H   0  0  0  0  0  0  0  0  0  0  0  0
    5.6250   -5.0649    0.7184 H   0  0  0  0  0  0  0  0  0  0  0  0
    5.6852   -7.5195   -2.3692 H   0  0  0  0  0  0  0  0  0  0  0  0
    9.1833   -7.4484    2.8761 H   0  0  0  0  0  0  0  0  0  0  0  0
    9.6719  -10.8908   -0.6933 H   0  0  0  0  0  0  0  0  0  0  0  0
  1  2  2  0  0  0  0
  2  3  1  0  0  0  0
  3  4  2  0  0  0  0
  3  5  1  0  0  0  0
  5  6  2  0  0  0  0
  6  7  1  0  0  0  0
  7  8  1  0  0  0  0
  7  9  2  0  0  0  0
  9 10  1  0  0  0  0
  9 11  1  0  0  0  0
 11 12  2  0  0  0  0
 12 13  1  0  0  0  0
 13 14  2  0  0  0  0
 14 15  1  0  0  0  0
 15 16  3  0  0  0  0
 14 17  1  0  0  0  0
 17 18  3  0  0  0  0
  1 19  1  0  0  0  0
 19 20  2  0  0  0  0
 20 21  1  0  0  0  0
 21 22  1  0  0  0  0
 22 23  1  0  0  0  0
 23 24  2  0  0  0  0
 24 25  1  0  0  0  0
 25 26  2  0  0  0  0
 26 27  1  0  0  0  0
 27 28  1  0  0  0  0
 26 29  1  0  0  0  0
 29 30  2  0  0  0  0
 22 31  1  0  0  0  0
 31 32  2  0  0  0  0
 32 33  1  0  0  0  0
 33 34  2  0  0  0  0
 34 35  1  0  0  0  0
 35 36  1  0  0  0  0
 34 37  1  0  0  0  0
 37 38  2  0  0  0  0
 22 39  1  0  0  0  0
 39 40  2  0  0  0  0
 40 41  1  0  0  0  0
 41 42  1  0  0  0  0
 40 43  1  0  0  0  0
 43 44  2  0  0  0  0
 44 45  1  0  0  0  0
 45 46  1  0  0  0  0
 46 47  2  0  0  0  0
 47 48  1  0  0  0  0
 48 49  2  0  0  0  0
 49 50  1  0  0  0  0
 50 51  1  0  0  0  0
 49 52  1  0  0  0  0
 52 53  2  0  0  0  0
 45 54  1  0  0  0  0
 54 55  2  0  0  0  0
 55 56  1  0  0  0  0
 56 57  2  0  0  0  0
 57 58  1  0  0  0  0
 58 59  1  0  0  0  0
 57 60  1  0  0  0  0
 60 61  2  0  0  0  0
 45 62  1  0  0  0  0
 62 63  2  0  0  0  0
 63 64  1  0  0  0  0
 64 65  2  0  0  0  0
 63 66  1  0  0  0  0
 66 67  1  0  0  0  0
 67 68  1  0  0  0  0
 68 69  2  0  0  0  0
 69 70  1  0  0  0  0
 70 71  1  0  0  0  0
 71 72  2  0  0  0  0
 72 73  1  0  0  0  0
 73 74  2  0  0  0  0
 74 75  1  0  0  0  0
 75 76  1  0  0  0  0
 74 77  1  0  0  0  0
 77 78  2  0  0  0  0
 70 79  1  0  0  0  0
 69 80  1  0  0  0  0
 80 81  2  0  0  0  0
 81 82  1  0  0  0  0
 81 83  1  0  0  0  0
 83 84  2  0  0  0  0
 84 85  1  0  0  0  0
 85 86  2  0  0  0  0
 85 87  1  0  0  0  0
 87 88  2  0  0  0  0
 88 89  1  0  0  0  0
 89 90  1  0  0  0  0
 89 91  2  0  0  0  0
 91 92  1  0  0  0  0
 91 93  1  0  0  0  0
 93 94  2  0  0  0  0
 94 95  1  0  0  0  0
 95 96  2  0  0  0  0
 96 97  1  0  0  0  0
 97 98  3  0  0  0  0
 96 99  1  0  0  0  0
 99100  3  0  0  0  0
 13  2  1  0  0  0  0
 42 19  1  0  0  0  0
 64 44  1  0  0  0  0
 79 67  2  0  0  0  0
 95 84  1  0  0  0  0
 12  5  1  0  0  0  0
 41 21  2  0  0  0  0
 53 46  1  0  0  0  0
 61 54  1  0  0  0  0
 79 62  1  0  0  0  0
 94 87  1  0  0  0  0
 30 23  1  0  0  0  0
 38 31  1  0  0  0  0
 65 39  1  0  0  0  0
 82 68  1  0  0  0  0
 78 71  1  0  0  0  0
  1101  1  0  0  0  0
  6102  1  0  0  0  0
 11103  1  0  0  0  0
 20104  1  0  0  0  0
 24105  1  0  0  0  0
 25106  1  0  0  0  0
 27107  1  0  0  0  0
 27108  1  0  0  0  0
 28109  1  0  0  0  0
 28110  1  0  0  0  0
 28111  1  0  0  0  0
 29112  1  0  0  0  0
 30113  1  0  0  0  0
 32114  1  0  0  0  0
 33115  1  0  0  0  0
 35116  1  0  0  0  0
 35117  1  0  0  0  0
 36118  1  0  0  0  0
 36119  1  0  0  0  0
 36120  1  0  0  0  0
 37121  1  0  0  0  0
 38122  1  0  0  0  0
 43123  1  0  0  0  0
 47124  1  0  0  0  0
 48125  1  0  0  0  0
 50126  1  0  0  0  0
 50127  1  0  0  0  0
 51128  1  0  0  0  0
 51129  1  0  0  0  0
 51130  1  0  0  0  0
 52131  1  0  0  0  0
 53132  1  0  0  0  0
 55133  1  0  0  0  0
 56134  1  0  0  0  0
 58135  1  0  0  0  0
 58136  1  0  0  0  0
 59137  1  0  0  0  0
 59138  1  0  0  0  0
 59139  1  0  0  0  0
 60140  1  0  0  0  0
 61141  1  0  0  0  0
 65142  1  0  0  0  0
 72143  1  0  0  0  0
 73144  1  0  0  0  0
 75145  1  0  0  0  0
 75146  1  0  0  0  0
 76147  1  0  0  0  0
 76148  1  0  0  0  0
 76149  1  0  0  0  0
 77150  1  0  0  0  0
 78151  1  0  0  0  0
 80152  1  0  0  0  0
 83153  1  0  0  0  0
 88154  1  0  0  0  0
 93155  1  0  0  0  0
M  END
