152

C          3.06620        8.10560       -1.66240
C          3.64700        8.66620       -2.77540
C          3.70000        8.13220       -4.14990
O          3.10850        7.18920       -4.63590
C          4.67680        8.98240       -4.86840
C          5.11970        8.85140       -6.16870
C          6.06150        9.75890       -6.63760
Cl         6.65980        9.65210       -8.24700
C          6.52500       10.76420       -5.78640
F          7.43840       11.63050       -6.24160
C          6.07940       10.90390       -4.48090
C          5.13910        9.99740       -4.01660
C          4.47090        9.86130       -2.72440
C          4.57510       10.75740       -1.69220
C          5.40200       11.90050       -1.72410
N          6.05480       12.84370       -1.68240
C          3.86270       10.70960       -0.47450
N          3.31050       10.76900        0.53090
C          2.25350        6.97380       -1.51260
S          1.96030        6.45150        0.16170
C          1.04070        5.11820       -0.39840
C          0.36770        3.98660        0.05150
S          0.07910        3.11950        1.52550
C         -0.64750        1.85160        0.59340
C         -1.01910        0.50340        0.88530
C         -0.99770       -0.20200        2.08500
C         -1.20310       -1.56020        2.01870
C         -1.14970       -2.57320        3.14910
C         -2.38840       -2.55580        4.03190
C         -2.39620       -3.32650        5.18870
C         -3.51820       -3.37100        5.99210
C         -4.66160       -2.65350        5.66120
C         -5.89550       -2.74300        6.51170
C         -6.76710       -3.91820        6.06370
C         -4.65030       -1.89470        4.49960
C         -3.52920       -1.84600        3.68950
C          0.11240       -2.35460        3.95860
C          0.11240       -1.43880        5.00360
C          1.26860       -1.19000        5.71770
C          2.45400       -1.84370        5.40610
C          3.69480       -1.60950        6.21790
C          3.74300       -2.57280        7.40560
C          2.44900       -2.75370        4.35790
C          1.29580       -3.00300        3.63660
C         -1.18760       -3.86590        2.37510
C         -1.39390       -3.60450        1.01930
C         -1.40040       -2.20010        0.77170
C         -1.48350       -1.48380       -0.42190
C         -1.30620       -0.12400       -0.35190
C         -1.29930        0.89690       -1.48470
C         -2.74600        1.12930       -1.89430
C         -3.46960        0.11510       -2.51160
C         -4.77760        0.32030       -2.90760
C         -5.40920        1.53700       -2.68590
C         -6.80310        1.78920       -3.18140
C         -6.76060        2.46070       -4.55600
C         -4.69620        2.53560       -2.03840
C         -3.38600        2.33580       -1.64480
C         -0.38320        0.49570       -2.62600
C         -0.78680        0.44460       -3.95140
C          0.12010        0.13900       -4.94980
C          1.45060       -0.11990       -4.65510
C          2.41980       -0.48480       -5.74120
C          2.40390       -1.99550       -5.98400
C          1.84930       -0.08020       -3.32480
C          0.94750        0.22440       -2.32490
C         -0.71770        2.09240       -0.77050
C         -0.13140        3.31530       -1.09680
N          0.21410        4.01800       -2.22540
C          0.94620        5.11250       -1.81550
C          1.62010        6.14910       -2.43600
C         -0.08850        3.71900       -3.54810
C          0.77930        3.62170       -4.59130
C          0.12050        3.37190       -5.81390
C         -1.23180        3.29320       -5.70100
C         -2.24200        3.00880       -6.75870
C         -3.30410        4.10390       -6.84370
S         -1.74140        3.54860       -4.06350
S         -1.47600       -5.02780        0.08410
C         -1.18380       -6.00910        1.52930
C         -1.07930       -5.21160        2.66780
C         -1.07630       -7.39100        1.31700
C         -0.68250       -8.41410        2.14530
C         -0.15680       -8.33180        3.52270
O         -0.11770       -7.38290        4.27810
C          0.35190       -9.68740        3.83460
C          0.99640      -10.10750        4.98010
C          1.40800      -11.43240        5.05500
Cl         2.22200      -12.02280        6.45050
C          1.15700      -12.28750        3.97970
F          1.56230      -13.56110        4.05470
C          0.50490      -11.87210        2.82910
C          0.09590      -10.54940        2.75720
C         -0.59780       -9.79870        1.71300
C         -1.10730      -10.34860        0.56500
C         -1.85210       -9.67370       -0.42590
N         -2.47940       -9.21800       -1.27360
C         -0.98060      -11.71180        0.22200
N         -0.90940      -12.80470       -0.12150
H          3.30240        8.58330       -0.71860
H          4.74320        8.06300       -6.80060
H          6.48090       11.70110       -3.87730
H         -0.78760        0.29880        3.01730
H         -1.51450       -3.88660        5.46310
H         -3.50690       -3.97160        6.89020
H         -5.61500       -2.88220        7.55760
H         -6.46980       -1.81790        6.43140
H         -7.07110       -3.79020        5.02720
H         -6.21430       -4.85140        6.14440
H         -7.65920       -3.98790        6.68170
H         -5.52960       -1.33120        4.22160
H         -3.54790       -1.24860        2.78950
H         -0.80190       -0.92660        5.26750
H          1.25070       -0.47590        6.52870
H          4.57930       -1.76040        5.59570
H          3.70740       -0.58210        6.58720
H          3.74290       -3.60300        7.05680
H          2.87470       -2.42860        8.04470
H          4.64090       -2.40510        7.99570
H          3.36050       -3.27320        4.09860
H          1.31920       -3.71150        2.82140
H         -1.62740       -2.00170       -1.35710
H         -3.00670       -0.84150       -2.69820
H         -5.31530       -0.47910       -3.39740
H         -7.34880        0.84690       -3.25630
H         -7.33370        2.43790       -2.48160
H         -6.24540        1.82430       -5.27230
H         -6.23060        3.40880       -4.49710
H         -7.76800        2.64820       -4.91980
H         -5.16870        3.48690       -1.84090
H         -2.86270        3.13760       -1.14620
H         -1.81200        0.65210       -4.21600
H         -0.21380        0.11090       -5.97720
H          2.15020        0.03100       -6.66500
H          3.42790       -0.17610       -5.45800
H          1.40930       -2.32040       -6.28130
H          2.67960       -2.52720       -5.07610
H          3.10620       -2.26230       -6.77000
H          2.87950       -0.28340       -3.06980
H          1.27710        0.25590       -1.29530
H          1.67500        6.31180       -3.49570
H          1.84480        3.71260       -4.48640
H          0.64200        3.24720       -6.74560
H         -2.73290        2.05460       -6.54270
H         -1.72560        2.91370       -7.71610
H         -4.02220        3.87470       -7.62680
H         -3.83500        4.18470       -5.89760
H         -2.84220        5.06320       -7.06460
H         -0.90750       -5.62590        3.64310
H         -1.30220       -7.67790        0.29650
H          1.17620       -9.42120        5.79220
H          0.34610      -12.58460        2.03650
