93

C         -1.17440       -6.18780       -2.67670
C         -1.90030       -7.32660       -2.46250
C         -2.54360       -7.78850       -1.21130
O         -2.57920       -7.24790       -0.12740
C         -3.16030       -9.09180       -1.53980
C         -3.87580       -9.92340       -0.70210
C         -4.36970      -11.11400       -1.22020
Cl        -5.27190      -12.19580       -0.23590
C         -4.12530      -11.42790       -2.56040
F         -4.60010      -12.57680       -3.05360
C         -3.40950      -10.59610       -3.40630
C         -2.92020       -9.40630       -2.88710
C         -2.15590       -8.32140       -3.49660
C         -1.79140       -8.26970       -4.81610
C         -1.09930       -7.22280       -5.46440
N         -0.55580       -6.42480       -6.08690
C         -2.08400       -9.28490       -5.75430
N         -2.28300      -10.06770       -6.56920
C         -0.84350       -5.10260       -1.84020
C         -1.11010       -4.80100       -0.51390
C         -0.59770       -3.55870       -0.15720
S         -0.67160       -2.61040        1.29950
C          0.13800       -1.28440        0.48960
C          0.38700       -0.04020        1.05190
C          0.10230        0.25210        2.44660
S         -1.47070        0.03870        3.14850
C         -0.92820        0.56490        4.70390
C         -1.84480        0.58100        5.87610
C         -1.84860       -0.77870        6.57970
C          0.40190        0.86660        4.67150
Cl         1.29550        1.41480        6.02780
C          0.98870        0.69500        3.39050
Cl         2.65540        0.95170        3.08820
C          0.95380        0.93640        0.21560
C          1.36620        0.61050       -1.10340
C          1.19700       -0.65840       -1.63450
C          1.69890       -1.04390       -2.94380
S          1.20540       -0.26790       -4.41490
C          2.17500       -1.32430       -5.38180
C          2.14670       -1.25750       -6.86780
C          1.03350       -2.14970       -7.42460
C          2.84460       -2.21550       -4.59530
C          2.57780       -2.05780       -3.21080
Cl         3.32170       -3.01470       -1.99900
Cl         3.90330       -3.42160       -5.19810
C          0.51790       -1.59660       -0.84040
C          0.07500       -2.89440       -1.18760
S          0.07670       -3.81770       -2.62830
S          2.07080        1.96380       -1.96100
C          1.73220        3.00350       -0.60950
C          1.86680        4.37310       -0.40960
C          1.38110        4.75950        0.82790
S          0.78320        3.37960        1.75240
C          1.16240        2.31410        0.46490
C          1.26810        6.01060        1.47250
C          1.49390        7.28390        1.03230
C          1.85950        7.73890       -0.33140
O          2.18520        7.07620       -1.29360
C          1.74140        9.20830       -0.30760
C          1.91520       10.07850       -1.35660
C          1.73530       11.44260       -1.10800
C          1.84570       12.53310       -2.01290
C          1.59300       13.71980       -1.41080
Br         1.62220       15.40790       -2.22620
S          1.20830       13.59030        0.28510
C          1.38950       11.86470        0.19860
C          1.21880       10.98400        1.25910
C          1.39830        9.63780        0.99640
C          1.28890        8.46770        1.85870
C          1.07110        8.50800        3.21100
C          0.89790        9.70090        3.94640
N          0.74770       10.62940        4.60410
C          1.00760        7.40150        4.08570
N          0.94550        6.57140        4.87720
H         -0.77680       -6.06580       -3.67730
H         -4.04540       -9.65060        0.32730
H         -3.25940      -10.90210       -4.42850
H         -1.65700       -5.45440        0.13990
H         -2.85560        0.82230        5.54400
H         -1.50980        1.35190        6.57240
H         -0.84860       -1.02610        6.92620
H         -2.18310       -1.55650        5.89720
H         -2.51740       -0.75280        7.43540
H          1.98230       -0.22620       -7.18370
H          3.11090       -1.59400       -7.25310
H          0.06490       -1.81730       -7.05940
H          1.18380       -3.18110       -7.11720
H          1.03110       -2.10660       -8.51010
H          2.27910        5.06170       -1.12300
H          0.90210        5.91810        2.48850
H          2.17780        9.71630       -2.33810
H          2.09810       12.42950       -3.05240
H          0.95150       11.35750        2.23310
