
  xtb     02012219213D
 energy: -196.678735278839 gnorm: 0.000279802255 xtb: 6.4.1 (unknown)
 90100  0     0  0            999 V2000
    3.4669   -5.6066    0.0195 C   0  0  0  0  0  0  0  0  0  0  0  0
    3.0426   -6.7200    0.6971 C   0  0  0  0  0  0  0  0  0  0  0  0
    1.8708   -6.8027    1.5779 C   0  0  0  0  0  0  0  0  0  0  0  0
    1.0938   -5.9150    1.8780 O   0  0  0  0  0  0  0  0  0  0  0  0
    1.8167   -8.1965    2.0579 C   0  0  0  0  0  0  0  0  0  0  0  0
    0.8889   -8.7735    2.9012 C   0  0  0  0  0  0  0  0  0  0  0  0
    1.0387  -10.1170    3.2232 C   0  0  0  0  0  0  0  0  0  0  0  0
   -0.0786  -10.9000    4.2678 Cl  0  0  0  0  0  0  0  0  0  0  0  0
    2.1134  -10.8318    2.6868 C   0  0  0  0  0  0  0  0  0  0  0  0
    2.2528  -12.1237    3.0010 F   0  0  0  0  0  0  0  0  0  0  0  0
    3.0471  -10.2577    1.8378 C   0  0  0  0  0  0  0  0  0  0  0  0
    2.8959   -8.9172    1.5177 C   0  0  0  0  0  0  0  0  0  0  0  0
    3.6832   -8.0255    0.6680 C   0  0  0  0  0  0  0  0  0  0  0  0
    4.8132   -8.3859   -0.0158 C   0  0  0  0  0  0  0  0  0  0  0  0
    5.5882   -7.5434   -0.8421 C   0  0  0  0  0  0  0  0  0  0  0  0
    6.2738   -6.9311   -1.5303 N   0  0  0  0  0  0  0  0  0  0  0  0
    5.3746   -9.6818    0.0152 C   0  0  0  0  0  0  0  0  0  0  0  0
    5.8833  -10.7099   -0.0030 N   0  0  0  0  0  0  0  0  0  0  0  0
    2.9189   -4.3139   -0.0376 C   0  0  0  0  0  0  0  0  0  0  0  0
    3.4941   -3.2917   -0.7966 C   0  0  0  0  0  0  0  0  0  0  0  0
    2.7745   -2.1119   -0.7135 C   0  0  0  0  0  0  0  0  0  0  0  0
    2.9858   -0.5094   -1.3641 S   0  0  0  0  0  0  0  0  0  0  0  0
    1.5420    0.0270   -0.5279 C   0  0  0  0  0  0  0  0  0  0  0  0
    1.0598    1.3242   -0.5165 C   0  0  0  0  0  0  0  0  0  0  0  0
    1.7067    2.4379   -1.1992 C   0  0  0  0  0  0  0  0  0  0  0  0
    1.7354    2.6017   -2.9248 S   0  0  0  0  0  0  0  0  0  0  0  0
    2.4700    4.1652   -2.8345 C   0  0  0  0  0  0  0  0  0  0  0  0
    2.6737    4.9954   -4.0517 C   0  0  0  0  0  0  0  0  0  0  0  0
    1.3565    5.6718   -4.4438 C   0  0  0  0  0  0  0  0  0  0  0  0
    2.6896    4.5181   -1.5362 C   0  0  0  0  0  0  0  0  0  0  0  0
    3.3833    6.0044   -1.0482 Cl  0  0  0  0  0  0  0  0  0  0  0  0
    2.2592    3.5377   -0.6055 C   0  0  0  0  0  0  0  0  0  0  0  0
    2.4174    3.7156    1.0912 Cl  0  0  0  0  0  0  0  0  0  0  0  0
   -0.1027    1.5707    0.2322 C   0  0  0  0  0  0  0  0  0  0  0  0
   -0.7369    0.5346    0.9649 C   0  0  0  0  0  0  0  0  0  0  0  0
   -0.2551   -0.7628    0.9531 C   0  0  0  0  0  0  0  0  0  0  0  0
   -0.9008   -1.8753    1.6385 C   0  0  0  0  0  0  0  0  0  0  0  0
   -0.9373   -2.0293    3.3650 S   0  0  0  0  0  0  0  0  0  0  0  0
   -1.6688   -3.5944    3.2801 C   0  0  0  0  0  0  0  0  0  0  0  0
   -1.8775   -4.4189    4.5004 C   0  0  0  0  0  0  0  0  0  0  0  0
   -0.5668   -5.1102    4.8884 C   0  0  0  0  0  0  0  0  0  0  0  0
   -1.8813   -3.9553    1.9828 C   0  0  0  0  0  0  0  0  0  0  0  0
   -1.4480   -2.9798    1.0484 C   0  0  0  0  0  0  0  0  0  0  0  0
   -1.5985   -3.1675   -0.6477 Cl  0  0  0  0  0  0  0  0  0  0  0  0
   -2.5712   -5.4454    1.5009 Cl  0  0  0  0  0  0  0  0  0  0  0  0
    0.9081   -1.0090    0.2055 C   0  0  0  0  0  0  0  0  0  0  0  0
    1.6365   -2.2167    0.0942 C   0  0  0  0  0  0  0  0  0  0  0  0
    1.4630   -3.7769    0.7814 S   0  0  0  0  0  0  0  0  0  0  0  0
   -2.1766    1.0728    1.8074 S   0  0  0  0  0  0  0  0  0  0  0  0
   -1.9594    2.6781    1.1659 C   0  0  0  0  0  0  0  0  0  0  0  0
   -2.6671    3.8634    1.2664 C   0  0  0  0  0  0  0  0  0  0  0  0
   -2.0859    4.8891    0.5159 C   0  0  0  0  0  0  0  0  0  0  0  0
   -0.6439    4.3449   -0.3236 S   0  0  0  0  0  0  0  0  0  0  0  0
   -0.8254    2.7809    0.3517 C   0  0  0  0  0  0  0  0  0  0  0  0
   -2.6088    6.1922    0.4926 C   0  0  0  0  0  0  0  0  0  0  0  0
   -2.1637    7.3147   -0.1577 C   0  0  0  0  0  0  0  0  0  0  0  0
   -1.0016    7.3933   -1.0507 C   0  0  0  0  0  0  0  0  0  0  0  0
   -0.2599    6.4934   -1.3999 O   0  0  0  0  0  0  0  0  0  0  0  0
   -0.9053    8.8034   -1.4738 C   0  0  0  0  0  0  0  0  0  0  0  0
    0.0343    9.3849   -2.3023 C   0  0  0  0  0  0  0  0  0  0  0  0
   -0.0833   10.7425   -2.5510 C   0  0  0  0  0  0  0  0  0  0  0  0
    0.8027   11.3496   -3.3474 F   0  0  0  0  0  0  0  0  0  0  0  0
   -1.1187   11.4826   -1.9776 C   0  0  0  0  0  0  0  0  0  0  0  0
   -1.2076   12.7909   -2.2340 F   0  0  0  0  0  0  0  0  0  0  0  0
   -2.0616   10.8967   -1.1457 C   0  0  0  0  0  0  0  0  0  0  0  0
   -1.9518    9.5381   -0.8918 C   0  0  0  0  0  0  0  0  0  0  0  0
   -2.7640    8.6359   -0.0737 C   0  0  0  0  0  0  0  0  0  0  0  0
   -3.8806    9.0029    0.6276 C   0  0  0  0  0  0  0  0  0  0  0  0
   -4.6828    8.1501    1.4170 C   0  0  0  0  0  0  0  0  0  0  0  0
   -5.3892    7.5311    2.0775 N   0  0  0  0  0  0  0  0  0  0  0  0
   -4.4009   10.3160    0.6557 C   0  0  0  0  0  0  0  0  0  0  0  0
   -4.8761   11.3581    0.7204 N   0  0  0  0  0  0  0  0  0  0  0  0
    4.3614   -5.7120   -0.5824 H   0  0  0  0  0  0  0  0  0  0  0  0
    0.0680   -8.1968    3.2967 H   0  0  0  0  0  0  0  0  0  0  0  0
    3.8500  -10.8693    1.4602 H   0  0  0  0  0  0  0  0  0  0  0  0
    4.3930   -3.4259   -1.3706 H   0  0  0  0  0  0  0  0  0  0  0  0
    3.0283    4.3733   -4.8750 H   0  0  0  0  0  0  0  0  0  0  0  0
    3.4282    5.7532   -3.8338 H   0  0  0  0  0  0  0  0  0  0  0  0
    1.5210    6.3734   -5.2572 H   0  0  0  0  0  0  0  0  0  0  0  0
    0.9425    6.2014   -3.5893 H   0  0  0  0  0  0  0  0  0  0  0  0
    0.6329    4.9264   -4.7646 H   0  0  0  0  0  0  0  0  0  0  0  0
   -2.2212   -3.7902    5.3233 H   0  0  0  0  0  0  0  0  0  0  0  0
   -2.6419   -5.1682    4.2875 H   0  0  0  0  0  0  0  0  0  0  0  0
    0.1668   -4.3730    5.2056 H   0  0  0  0  0  0  0  0  0  0  0  0
   -0.1622   -5.6452    4.0328 H   0  0  0  0  0  0  0  0  0  0  0  0
   -0.7362   -5.8090    5.7032 H   0  0  0  0  0  0  0  0  0  0  0  0
   -3.5597    4.0005    1.8494 H   0  0  0  0  0  0  0  0  0  0  0  0
   -3.4944    6.3024    1.1066 H   0  0  0  0  0  0  0  0  0  0  0  0
    0.8352    8.8105   -2.7400 H   0  0  0  0  0  0  0  0  0  0  0  0
   -2.8394   11.5149   -0.7288 H   0  0  0  0  0  0  0  0  0  0  0  0
  1  2  2  0  0  0  0
  2  3  1  0  0  0  0
  3  4  2  0  0  0  0
  3  5  1  0  0  0  0
  5  6  2  0  0  0  0
  6  7  1  0  0  0  0
  7  8  1  0  0  0  0
  7  9  2  0  0  0  0
  9 10  1  0  0  0  0
  9 11  1  0  0  0  0
 11 12  2  0  0  0  0
 12 13  1  0  0  0  0
 13 14  2  0  0  0  0
 14 15  1  0  0  0  0
 15 16  3  0  0  0  0
 14 17  1  0  0  0  0
 17 18  3  0  0  0  0
  1 19  1  0  0  0  0
 19 20  2  0  0  0  0
 20 21  1  0  0  0  0
 21 22  1  0  0  0  0
 22 23  1  0  0  0  0
 23 24  2  0  0  0  0
 24 25  1  0  0  0  0
 25 26  1  0  0  0  0
 26 27  1  0  0  0  0
 27 28  1  0  0  0  0
 28 29  1  0  0  0  0
 27 30  2  0  0  0  0
 30 31  1  0  0  0  0
 30 32  1  0  0  0  0
 32 33  1  0  0  0  0
 24 34  1  0  0  0  0
 34 35  2  0  0  0  0
 35 36  1  0  0  0  0
 36 37  1  0  0  0  0
 37 38  1  0  0  0  0
 38 39  1  0  0  0  0
 39 40  1  0  0  0  0
 40 41  1  0  0  0  0
 39 42  2  0  0  0  0
 42 43  1  0  0  0  0
 43 44  1  0  0  0  0
 42 45  1  0  0  0  0
 36 46  2  0  0  0  0
 46 47  1  0  0  0  0
 47 48  1  0  0  0  0
 35 49  1  0  0  0  0
 49 50  1  0  0  0  0
 50 51  1  0  0  0  0
 51 52  2  0  0  0  0
 52 53  1  0  0  0  0
 53 54  1  0  0  0  0
 52 55  1  0  0  0  0
 55 56  2  0  0  0  0
 56 57  1  0  0  0  0
 57 58  2  0  0  0  0
 57 59  1  0  0  0  0
 59 60  2  0  0  0  0
 60 61  1  0  0  0  0
 61 62  1  0  0  0  0
 61 63  2  0  0  0  0
 63 64  1  0  0  0  0
 63 65  1  0  0  0  0
 65 66  2  0  0  0  0
 66 67  1  0  0  0  0
 67 68  2  0  0  0  0
 68 69  1  0  0  0  0
 69 70  3  0  0  0  0
 68 71  1  0  0  0  0
 71 72  3  0  0  0  0
 13  2  1  0  0  0  0
 48 19  1  0  0  0  0
 54 50  2  0  0  0  0
 67 56  1  0  0  0  0
 12  5  1  0  0  0  0
 47 21  2  0  0  0  0
 66 59  1  0  0  0  0
 46 23  1  0  0  0  0
 32 25  2  0  0  0  0
 54 34  1  0  0  0  0
 43 37  2  0  0  0  0
  1 73  1  0  0  0  0
  6 74  1  0  0  0  0
 11 75  1  0  0  0  0
 20 76  1  0  0  0  0
 28 77  1  0  0  0  0
 28 78  1  0  0  0  0
 29 79  1  0  0  0  0
 29 80  1  0  0  0  0
 29 81  1  0  0  0  0
 40 82  1  0  0  0  0
 40 83  1  0  0  0  0
 41 84  1  0  0  0  0
 41 85  1  0  0  0  0
 41 86  1  0  0  0  0
 51 87  1  0  0  0  0
 55 88  1  0  0  0  0
 60 89  1  0  0  0  0
 65 90  1  0  0  0  0
M  END
