
  xtb     02012217553D
 energy: -237.701464879025 gnorm: 0.000826246865 xtb: 6.4.1 (unknown)
138152  0     0  0            999 V2000
    2.0650    4.5032   -7.3737 C   0  0  0  0  0  0  0  0  0  0  0  0
    1.8409    4.3166   -8.7091 C   0  0  0  0  0  0  0  0  0  0  0  0
    1.8325    5.5023   -9.6036 C   0  0  0  0  0  0  0  0  0  0  0  0
    2.2034    6.6207   -9.3348 O   0  0  0  0  0  0  0  0  0  0  0  0
    1.2240    5.0271  -10.8681 C   0  0  0  0  0  0  0  0  0  0  0  0
    0.8796    5.7584  -11.9863 C   0  0  0  0  0  0  0  0  0  0  0  0
    0.2860    5.0928  -13.0529 C   0  0  0  0  0  0  0  0  0  0  0  0
   -0.1719    5.9459  -14.4741 Cl  0  0  0  0  0  0  0  0  0  0  0  0
    0.0590    3.7176  -12.9623 C   0  0  0  0  0  0  0  0  0  0  0  0
   -0.5259    3.0865  -13.9872 F   0  0  0  0  0  0  0  0  0  0  0  0
    0.4126    2.9738  -11.8469 C   0  0  0  0  0  0  0  0  0  0  0  0
    1.0036    3.6406  -10.7865 C   0  0  0  0  0  0  0  0  0  0  0  0
    1.5106    3.1564   -9.5026 C   0  0  0  0  0  0  0  0  0  0  0  0
    1.8449    1.8539   -9.2317 C   0  0  0  0  0  0  0  0  0  0  0  0
    2.5847    1.4569   -8.1002 C   0  0  0  0  0  0  0  0  0  0  0  0
    3.2135    1.0895   -7.2130 N   0  0  0  0  0  0  0  0  0  0  0  0
    1.5646    0.7747  -10.0941 C   0  0  0  0  0  0  0  0  0  0  0  0
    1.3412   -0.1394  -10.7512 N   0  0  0  0  0  0  0  0  0  0  0  0
    1.7444    3.6742   -6.2831 C   0  0  0  0  0  0  0  0  0  0  0  0
    0.8405    2.6237   -6.2026 C   0  0  0  0  0  0  0  0  0  0  0  0
    0.7539    2.1076   -4.9193 C   0  0  0  0  0  0  0  0  0  0  0  0
   -0.1785    0.8244   -4.2046 S   0  0  0  0  0  0  0  0  0  0  0  0
    0.5770    1.1523   -2.6831 C   0  0  0  0  0  0  0  0  0  0  0  0
    0.4708    0.6171   -1.3627 C   0  0  0  0  0  0  0  0  0  0  0  0
   -0.3377   -0.3930   -0.8475 C   0  0  0  0  0  0  0  0  0  0  0  0
   -0.2418   -0.6475    0.5003 C   0  0  0  0  0  0  0  0  0  0  0  0
   -1.0092   -1.6694    1.3195 C   0  0  0  0  0  0  0  0  0  0  0  0
   -2.4974   -1.4825    1.1031 C   0  0  0  0  0  0  0  0  0  0  0  0
   -3.1332   -2.1326    0.0531 C   0  0  0  0  0  0  0  0  0  0  0  0
   -4.4836   -1.9462   -0.1710 C   0  0  0  0  0  0  0  0  0  0  0  0
   -5.2334   -1.1079    0.6439 C   0  0  0  0  0  0  0  0  0  0  0  0
   -6.6929   -0.8809    0.3748 C   0  0  0  0  0  0  0  0  0  0  0  0
   -6.8812    0.2761   -0.6086 C   0  0  0  0  0  0  0  0  0  0  0  0
   -4.5895   -0.4494    1.6824 C   0  0  0  0  0  0  0  0  0  0  0  0
   -3.2374   -0.6295    1.9089 C   0  0  0  0  0  0  0  0  0  0  0  0
   -0.5807   -3.1052    1.0563 C   0  0  0  0  0  0  0  0  0  0  0  0
    0.5597   -3.4134    0.3298 C   0  0  0  0  0  0  0  0  0  0  0  0
    0.9460   -4.7316    0.1634 C   0  0  0  0  0  0  0  0  0  0  0  0
    0.2154   -5.7681    0.7272 C   0  0  0  0  0  0  0  0  0  0  0  0
    0.6174   -7.1985    0.5119 C   0  0  0  0  0  0  0  0  0  0  0  0
   -0.0542   -7.7595   -0.7433 C   0  0  0  0  0  0  0  0  0  0  0  0
   -0.9221   -5.4512    1.4597 C   0  0  0  0  0  0  0  0  0  0  0  0
   -1.3162   -4.1382    1.6256 C   0  0  0  0  0  0  0  0  0  0  0  0
   -0.5391   -1.3280    2.7077 C   0  0  0  0  0  0  0  0  0  0  0  0
    0.4272   -0.3360    2.6642 C   0  0  0  0  0  0  0  0  0  0  0  0
    0.6267    0.1114    1.3223 C   0  0  0  0  0  0  0  0  0  0  0  0
    1.4526    1.1051    0.8029 C   0  0  0  0  0  0  0  0  0  0  0  0
    1.3754    1.3417   -0.5493 C   0  0  0  0  0  0  0  0  0  0  0  0
    2.1359    2.3719   -1.3658 C   0  0  0  0  0  0  0  0  0  0  0  0
    3.6094    2.0436   -1.5493 C   0  0  0  0  0  0  0  0  0  0  0  0
    4.4465    3.0047   -2.1034 C   0  0  0  0  0  0  0  0  0  0  0  0
    5.7740    2.7177   -2.3513 C   0  0  0  0  0  0  0  0  0  0  0  0
    6.3000    1.4658   -2.0562 C   0  0  0  0  0  0  0  0  0  0  0  0
    7.7295    1.1412   -2.3785 C   0  0  0  0  0  0  0  0  0  0  0  0
    7.8476    0.6398   -3.8195 C   0  0  0  0  0  0  0  0  0  0  0  0
    5.4572    0.5092   -1.5081 C   0  0  0  0  0  0  0  0  0  0  0  0
    4.1253    0.7895   -1.2599 C   0  0  0  0  0  0  0  0  0  0  0  0
    1.9332    3.7405   -0.7486 C   0  0  0  0  0  0  0  0  0  0  0  0
    2.7744    4.1718    0.2695 C   0  0  0  0  0  0  0  0  0  0  0  0
    2.5676    5.3947    0.8777 C   0  0  0  0  0  0  0  0  0  0  0  0
    1.5163    6.2160    0.4905 C   0  0  0  0  0  0  0  0  0  0  0  0
    1.3230    7.5636    1.1231 C   0  0  0  0  0  0  0  0  0  0  0  0
    2.1272    8.6268    0.3722 C   0  0  0  0  0  0  0  0  0  0  0  0
    0.6778    5.7786   -0.5256 C   0  0  0  0  0  0  0  0  0  0  0  0
    0.8774    4.5533   -1.1347 C   0  0  0  0  0  0  0  0  0  0  0  0
    1.4925    2.1923   -2.7141 C   0  0  0  0  0  0  0  0  0  0  0  0
    1.6028    2.7416   -3.9878 C   0  0  0  0  0  0  0  0  0  0  0  0
    2.4821    4.0203   -4.7214 S   0  0  0  0  0  0  0  0  0  0  0  0
    1.0657    0.1034    4.2122 S   0  0  0  0  0  0  0  0  0  0  0  0
    0.0033   -1.0662    4.9520 C   0  0  0  0  0  0  0  0  0  0  0  0
   -0.2448   -1.4443    6.2552 C   0  0  0  0  0  0  0  0  0  0  0  0
   -1.2328   -2.4305    6.3440 C   0  0  0  0  0  0  0  0  0  0  0  0
   -1.8444   -2.8902    4.7574 S   0  0  0  0  0  0  0  0  0  0  0  0
   -0.7880   -1.7589    4.0083 C   0  0  0  0  0  0  0  0  0  0  0  0
   -1.6531   -2.9371    7.5809 C   0  0  0  0  0  0  0  0  0  0  0  0
   -2.6014   -3.8826    7.8837 C   0  0  0  0  0  0  0  0  0  0  0  0
   -3.4087   -4.6304    6.9145 C   0  0  0  0  0  0  0  0  0  0  0  0
   -3.3888   -4.5471    5.7003 O   0  0  0  0  0  0  0  0  0  0  0  0
   -4.2685   -5.5306    7.7098 C   0  0  0  0  0  0  0  0  0  0  0  0
   -5.2055   -6.4378    7.2596 C   0  0  0  0  0  0  0  0  0  0  0  0
   -5.8819   -7.1669    8.2261 C   0  0  0  0  0  0  0  0  0  0  0  0
   -6.8050   -8.0624    7.8382 F   0  0  0  0  0  0  0  0  0  0  0  0
   -5.6399   -7.0062    9.5820 C   0  0  0  0  0  0  0  0  0  0  0  0
   -4.6951   -6.0896   10.0191 C   0  0  0  0  0  0  0  0  0  0  0  0
   -4.0023   -5.3427    9.0771 C   0  0  0  0  0  0  0  0  0  0  0  0
   -2.9695   -4.3154    9.2183 C   0  0  0  0  0  0  0  0  0  0  0  0
   -2.4722   -3.8590   10.4114 C   0  0  0  0  0  0  0  0  0  0  0  0
   -1.4880   -2.8612   10.5727 C   0  0  0  0  0  0  0  0  0  0  0  0
   -0.6973   -2.0590   10.7983 N   0  0  0  0  0  0  0  0  0  0  0  0
   -2.8897   -4.3282   11.6752 C   0  0  0  0  0  0  0  0  0  0  0  0
   -3.1805   -4.6611   12.7346 N   0  0  0  0  0  0  0  0  0  0  0  0
    2.4837    5.4728   -7.1205 H   0  0  0  0  0  0  0  0  0  0  0  0
    1.0671    6.8194  -12.0290 H   0  0  0  0  0  0  0  0  0  0  0  0
    0.2092    1.9151  -11.8374 H   0  0  0  0  0  0  0  0  0  0  0  0
    0.2391    2.2907   -7.0287 H   0  0  0  0  0  0  0  0  0  0  0  0
   -1.0137   -0.9413   -1.4852 H   0  0  0  0  0  0  0  0  0  0  0  0
   -2.5709   -2.8010   -0.5829 H   0  0  0  0  0  0  0  0  0  0  0  0
   -4.9645   -2.4653   -0.9878 H   0  0  0  0  0  0  0  0  0  0  0  0
   -7.1367   -1.7855   -0.0455 H   0  0  0  0  0  0  0  0  0  0  0  0
   -7.2098   -0.6481    1.3078 H   0  0  0  0  0  0  0  0  0  0  0  0
   -7.9382    0.4414   -0.8039 H   0  0  0  0  0  0  0  0  0  0  0  0
   -6.3837    0.0568   -1.5506 H   0  0  0  0  0  0  0  0  0  0  0  0
   -6.4552    1.1909   -0.2024 H   0  0  0  0  0  0  0  0  0  0  0  0
   -5.1529    0.2108    2.3262 H   0  0  0  0  0  0  0  0  0  0  0  0
   -2.7586   -0.1032    2.7220 H   0  0  0  0  0  0  0  0  0  0  0  0
    1.1520   -2.6252   -0.1116 H   0  0  0  0  0  0  0  0  0  0  0  0
    1.8348   -4.9550   -0.4094 H   0  0  0  0  0  0  0  0  0  0  0  0
    0.3239   -7.7987    1.3754 H   0  0  0  0  0  0  0  0  0  0  0  0
    1.7014   -7.2661    0.4003 H   0  0  0  0  0  0  0  0  0  0  0  0
    0.2348   -7.1808   -1.6178 H   0  0  0  0  0  0  0  0  0  0  0  0
   -1.1365   -7.7142   -0.6452 H   0  0  0  0  0  0  0  0  0  0  0  0
    0.2376   -8.7952   -0.9002 H   0  0  0  0  0  0  0  0  0  0  0  0
   -1.5043   -6.2406    1.9123 H   0  0  0  0  0  0  0  0  0  0  0  0
   -2.2029   -3.9124    2.1995 H   0  0  0  0  0  0  0  0  0  0  0  0
    2.1147    1.6658    1.4441 H   0  0  0  0  0  0  0  0  0  0  0  0
    4.0543    3.9844   -2.3364 H   0  0  0  0  0  0  0  0  0  0  0  0
    6.4110    3.4765   -2.7822 H   0  0  0  0  0  0  0  0  0  0  0  0
    8.0987    0.3717   -1.6975 H   0  0  0  0  0  0  0  0  0  0  0  0
    8.3484    2.0324   -2.2559 H   0  0  0  0  0  0  0  0  0  0  0  0
    7.2477   -0.2566   -3.9586 H   0  0  0  0  0  0  0  0  0  0  0  0
    7.4926    1.3973   -4.5144 H   0  0  0  0  0  0  0  0  0  0  0  0
    8.8827    0.4065   -4.0573 H   0  0  0  0  0  0  0  0  0  0  0  0
    5.8450   -0.4719   -1.2735 H   0  0  0  0  0  0  0  0  0  0  0  0
    3.4883    0.0257   -0.8382 H   0  0  0  0  0  0  0  0  0  0  0  0
    3.6027    3.5510    0.5793 H   0  0  0  0  0  0  0  0  0  0  0  0
    3.2314    5.7154    1.6679 H   0  0  0  0  0  0  0  0  0  0  0  0
    1.6508    7.5336    2.1641 H   0  0  0  0  0  0  0  0  0  0  0  0
    0.2651    7.8330    1.1053 H   0  0  0  0  0  0  0  0  0  0  0  0
    1.8055    8.6818   -0.6654 H   0  0  0  0  0  0  0  0  0  0  0  0
    1.9890    9.6027    0.8314 H   0  0  0  0  0  0  0  0  0  0  0  0
    3.1867    8.3814    0.3888 H   0  0  0  0  0  0  0  0  0  0  0  0
   -0.1468    6.4014   -0.8418 H   0  0  0  0  0  0  0  0  0  0  0  0
    0.2037    4.2295   -1.9151 H   0  0  0  0  0  0  0  0  0  0  0  0
    0.2470   -1.0369    7.1202 H   0  0  0  0  0  0  0  0  0  0  0  0
   -1.1321   -2.4879    8.4177 H   0  0  0  0  0  0  0  0  0  0  0  0
   -5.4023   -6.5722    6.2081 H   0  0  0  0  0  0  0  0  0  0  0  0
   -6.1954   -7.6020   10.2890 H   0  0  0  0  0  0  0  0  0  0  0  0
   -4.5174   -5.9755   11.0754 H   0  0  0  0  0  0  0  0  0  0  0  0
  1  2  2  0  0  0  0
  2  3  1  0  0  0  0
  3  4  2  0  0  0  0
  3  5  1  0  0  0  0
  5  6  2  0  0  0  0
  6  7  1  0  0  0  0
  7  8  1  0  0  0  0
  7  9  2  0  0  0  0
  9 10  1  0  0  0  0
  9 11  1  0  0  0  0
 11 12  2  0  0  0  0
 12 13  1  0  0  0  0
 13 14  2  0  0  0  0
 14 15  1  0  0  0  0
 15 16  3  0  0  0  0
 14 17  1  0  0  0  0
 17 18  3  0  0  0  0
  1 19  1  0  0  0  0
 19 20  2  0  0  0  0
 20 21  1  0  0  0  0
 21 22  1  0  0  0  0
 22 23  1  0  0  0  0
 23 24  1  0  0  0  0
 24 25  2  0  0  0  0
 25 26  1  0  0  0  0
 26 27  1  0  0  0  0
 27 28  1  0  0  0  0
 28 29  2  0  0  0  0
 29 30  1  0  0  0  0
 30 31  2  0  0  0  0
 31 32  1  0  0  0  0
 32 33  1  0  0  0  0
 31 34  1  0  0  0  0
 34 35  2  0  0  0  0
 27 36  1  0  0  0  0
 36 37  2  0  0  0  0
 37 38  1  0  0  0  0
 38 39  2  0  0  0  0
 39 40  1  0  0  0  0
 40 41  1  0  0  0  0
 39 42  1  0  0  0  0
 42 43  2  0  0  0  0
 27 44  1  0  0  0  0
 44 45  2  0  0  0  0
 45 46  1  0  0  0  0
 46 47  1  0  0  0  0
 47 48  2  0  0  0  0
 48 49  1  0  0  0  0
 49 50  1  0  0  0  0
 50 51  2  0  0  0  0
 51 52  1  0  0  0  0
 52 53  2  0  0  0  0
 53 54  1  0  0  0  0
 54 55  1  0  0  0  0
 53 56  1  0  0  0  0
 56 57  2  0  0  0  0
 49 58  1  0  0  0  0
 58 59  2  0  0  0  0
 59 60  1  0  0  0  0
 60 61  2  0  0  0  0
 61 62  1  0  0  0  0
 62 63  1  0  0  0  0
 61 64  1  0  0  0  0
 64 65  2  0  0  0  0
 49 66  1  0  0  0  0
 66 67  1  0  0  0  0
 67 68  1  0  0  0  0
 45 69  1  0  0  0  0
 69 70  1  0  0  0  0
 70 71  1  0  0  0  0
 71 72  2  0  0  0  0
 72 73  1  0  0  0  0
 73 74  1  0  0  0  0
 72 75  1  0  0  0  0
 75 76  2  0  0  0  0
 76 77  1  0  0  0  0
 77 78  2  0  0  0  0
 77 79  1  0  0  0  0
 79 80  2  0  0  0  0
 80 81  1  0  0  0  0
 81 82  1  0  0  0  0
 81 83  2  0  0  0  0
 83 84  1  0  0  0  0
 84 85  2  0  0  0  0
 85 86  1  0  0  0  0
 86 87  2  0  0  0  0
 87 88  1  0  0  0  0
 88 89  3  0  0  0  0
 87 90  1  0  0  0  0
 90 91  3  0  0  0  0
 13  2  1  0  0  0  0
 68 19  1  0  0  0  0
 74 70  2  0  0  0  0
 86 76  1  0  0  0  0
 12  5  1  0  0  0  0
 67 21  2  0  0  0  0
 85 79  1  0  0  0  0
 66 23  2  0  0  0  0
 48 24  1  0  0  0  0
 57 50  1  0  0  0  0
 65 58  1  0  0  0  0
 46 26  2  0  0  0  0
 35 28  1  0  0  0  0
 43 36  1  0  0  0  0
 74 44  1  0  0  0  0
  1 92  1  0  0  0  0
  6 93  1  0  0  0  0
 11 94  1  0  0  0  0
 20 95  1  0  0  0  0
 25 96  1  0  0  0  0
 29 97  1  0  0  0  0
 30 98  1  0  0  0  0
 32 99  1  0  0  0  0
 32100  1  0  0  0  0
 33101  1  0  0  0  0
 33102  1  0  0  0  0
 33103  1  0  0  0  0
 34104  1  0  0  0  0
 35105  1  0  0  0  0
 37106  1  0  0  0  0
 38107  1  0  0  0  0
 40108  1  0  0  0  0
 40109  1  0  0  0  0
 41110  1  0  0  0  0
 41111  1  0  0  0  0
 41112  1  0  0  0  0
 42113  1  0  0  0  0
 43114  1  0  0  0  0
 47115  1  0  0  0  0
 51116  1  0  0  0  0
 52117  1  0  0  0  0
 54118  1  0  0  0  0
 54119  1  0  0  0  0
 55120  1  0  0  0  0
 55121  1  0  0  0  0
 55122  1  0  0  0  0
 56123  1  0  0  0  0
 57124  1  0  0  0  0
 59125  1  0  0  0  0
 60126  1  0  0  0  0
 62127  1  0  0  0  0
 62128  1  0  0  0  0
 63129  1  0  0  0  0
 63130  1  0  0  0  0
 63131  1  0  0  0  0
 64132  1  0  0  0  0
 65133  1  0  0  0  0
 71134  1  0  0  0  0
 75135  1  0  0  0  0
 80136  1  0  0  0  0
 83137  1  0  0  0  0
 84138  1  0  0  0  0
M  END
