96

C         -6.49900       -3.60960        1.55300
C         -7.41870       -3.00260        2.36900
C         -7.32970       -1.64070        2.91110
O         -6.44530       -0.82210        2.74210
C         -8.55490       -1.43640        3.70740
C         -8.93350       -0.31550        4.41800
C        -10.14290       -0.34790        5.10190
Cl       -10.67830        1.01230        6.00540
C        -10.92640       -1.50390        5.04850
F        -12.08920       -1.52930        5.70840
C        -10.54990       -2.63320        4.33750
C         -9.34370       -2.59850        3.65490
C         -8.66430       -3.59510        2.82880
C         -9.13830       -4.85260        2.56550
C         -8.49650       -5.83470        1.78050
N         -8.04490       -6.68960        1.16080
C        -10.36430       -5.35260        3.05730
N        -11.34680       -5.81930        3.42220
C         -5.25830       -3.14870        1.08210
C         -4.44290       -3.91740        0.24810
C         -3.25550       -3.27420       -0.05750
S         -1.87300       -3.67150       -1.04110
C         -1.13970       -2.12460       -0.65200
C          0.06210       -1.66280       -1.17310
C          0.81170       -2.47620       -2.11610
C          1.18120       -3.78160       -1.97810
C          1.84390       -4.27700       -3.12240
Cl         2.44220       -5.88720       -3.21390
C          1.97100       -3.37250       -4.13680
C          2.56690       -3.56440       -5.48650
C          1.48840       -3.88830       -6.52330
S          1.24900       -1.86800       -3.68590
C          0.48580       -0.38570       -0.76160
C         -0.31630        0.39060        0.11910
C         -1.51890       -0.06860        0.62820
C         -2.35320        0.68940        1.55150
S         -3.18690        2.13100        1.05950
C         -4.00770        2.24360        2.57700
C         -5.06650        3.26100        2.81590
C         -6.40390        2.75640        2.26500
C         -3.62500        1.22380        3.39790
C         -2.68780        0.33740        2.82440
Cl        -4.24600        1.00550        4.98230
C         -1.93300       -1.34780        0.22740
C         -3.13740       -2.01850        0.54770
S         -4.51670       -1.60610        1.47770
S          0.39790        1.93270        0.53810
C          1.79910        1.54450       -0.41150
C          2.99890        2.21040       -0.63740
C          3.85000        1.47110       -1.44010
S          3.11930       -0.06110       -1.92380
C          1.69390        0.29960       -1.04130
C          5.13950        1.71350       -1.95940
C          6.03600        2.71940       -1.73290
C          5.96770        3.80780       -0.72600
O          5.03390        4.13510       -0.02410
C          7.30270        4.43150       -0.72370
C          7.76630        5.43340        0.07980
C          9.09680        5.87990       -0.07550
C          9.62950        6.90810        0.72890
C         10.92060        7.32840        0.57040
C         11.71630        6.72060       -0.41070
F         12.98350        7.14810       -0.55200
C         11.24990        5.71980       -1.21690
C          9.92220        5.27370       -1.06720
C          9.41220        4.23980       -1.88640
C          8.11750        3.82450       -1.71870
C          7.32840        2.80340       -2.39930
C          7.73040        2.11030       -3.51080
C          6.95310        1.18700       -4.24310
N          6.38920        0.43920       -4.90810
C          8.99750        2.25890       -4.11550
N         10.00920        2.32790       -4.65320
H         -6.73600       -4.60890        1.20840
H         -8.30500        0.56040        4.44330
H        -11.20340       -3.49000        4.34120
H         -4.72300       -4.89330       -0.10510
H          1.01860       -4.36350       -1.08980
H          3.28470       -4.38540       -5.43690
H          3.09630       -2.65720       -5.78370
H          0.95820       -4.79620       -6.24580
H          1.94200       -4.03450       -7.49970
H          0.77110       -3.07360       -6.58980
H         -5.15180        3.43080        3.89120
H         -4.79940        4.20300        2.33350
H         -6.61570        1.76350        2.65550
H         -7.20790        3.43160        2.54630
H         -6.36360        2.69250        1.18000
H         -2.28250       -0.51470        3.33820
H          3.25290        3.17360       -0.23610
H          5.46060        0.93690       -2.64430
H          7.12470        5.87730        0.82620
H          8.99720        7.36080        1.47780
H         11.34390        8.11270        1.17760
H         11.89050        5.27540       -1.96250
H         10.06500        3.79900       -2.62220
