
  xtb     02012218203D
 energy: -204.831638494040 gnorm: 0.000832549985 xtb: 6.4.1 (unknown)
112124  0     0  0            999 V2000
    8.4240    2.3712   -0.2867 C   0  0  0  0  0  0  0  0  0  0  0  0
    8.5492    3.3131    0.7111 C   0  0  0  0  0  0  0  0  0  0  0  0
    7.4850    3.7820    1.5964 C   0  0  0  0  0  0  0  0  0  0  0  0
    6.3172    3.4340    1.6196 O   0  0  0  0  0  0  0  0  0  0  0  0
    8.1068    4.7871    2.4851 C   0  0  0  0  0  0  0  0  0  0  0  0
    7.5172    5.5200    3.4939 C   0  0  0  0  0  0  0  0  0  0  0  0
    8.3077    6.4166    4.2033 C   0  0  0  0  0  0  0  0  0  0  0  0
    7.6371    7.3640    5.4733 Cl  0  0  0  0  0  0  0  0  0  0  0  0
    9.6584    6.5451    3.8752 C   0  0  0  0  0  0  0  0  0  0  0  0
   10.4145    7.4102    4.5623 F   0  0  0  0  0  0  0  0  0  0  0  0
   10.2559    5.8109    2.8614 C   0  0  0  0  0  0  0  0  0  0  0  0
    9.4663    4.9177    2.1553 C   0  0  0  0  0  0  0  0  0  0  0  0
    9.7726    4.0088    1.0501 C   0  0  0  0  0  0  0  0  0  0  0  0
   11.0068    3.8734    0.4649 C   0  0  0  0  0  0  0  0  0  0  0  0
   11.3264    3.0083   -0.6017 C   0  0  0  0  0  0  0  0  0  0  0  0
   11.6708    2.3321   -1.4647 N   0  0  0  0  0  0  0  0  0  0  0  0
   12.1500    4.6006    0.8578 C   0  0  0  0  0  0  0  0  0  0  0  0
   13.1168    5.1588    1.1253 N   0  0  0  0  0  0  0  0  0  0  0  0
    7.3199    1.6437   -0.7286 C   0  0  0  0  0  0  0  0  0  0  0  0
    7.3881    0.7123   -1.7844 C   0  0  0  0  0  0  0  0  0  0  0  0
    8.6269    0.3197   -2.5201 C   0  0  0  0  0  0  0  0  0  0  0  0
    9.4113   -0.7371   -1.7372 C   0  0  0  0  0  0  0  0  0  0  0  0
    6.1509    0.1401   -2.0350 C   0  0  0  0  0  0  0  0  0  0  0  0
    5.1205    0.6112   -1.1981 C   0  0  0  0  0  0  0  0  0  0  0  0
    5.6872    1.7795   -0.0677 S   0  0  0  0  0  0  0  0  0  0  0  0
    3.9034    0.0048   -1.5111 C   0  0  0  0  0  0  0  0  0  0  0  0
    4.0149   -0.9162   -2.5597 C   0  0  0  0  0  0  0  0  0  0  0  0
    5.6133   -1.0572   -3.2002 S   0  0  0  0  0  0  0  0  0  0  0  0
    2.7462   -1.4804   -2.7475 C   0  0  0  0  0  0  0  0  0  0  0  0
    2.3483   -2.5321   -3.6139 C   0  0  0  0  0  0  0  0  0  0  0  0
    3.2204   -3.0961   -4.4578 N   0  0  0  0  0  0  0  0  0  0  0  0
    2.7998   -4.1008   -5.1974 C   0  0  0  0  0  0  0  0  0  0  0  0
    3.7876   -4.7138   -6.1331 C   0  0  0  0  0  0  0  0  0  0  0  0
    1.4675   -4.5771   -5.1016 C   0  0  0  0  0  0  0  0  0  0  0  0
    0.9818   -5.7227   -5.9255 C   0  0  0  0  0  0  0  0  0  0  0  0
    0.6013   -4.0221   -4.2802 N   0  0  0  0  0  0  0  0  0  0  0  0
    1.0187   -2.9946   -3.5311 C   0  0  0  0  0  0  0  0  0  0  0  0
    0.1258   -2.3103   -2.6658 C   0  0  0  0  0  0  0  0  0  0  0  0
   -1.2527   -2.4855   -2.4897 C   0  0  0  0  0  0  0  0  0  0  0  0
   -2.5209   -3.5131   -3.0578 S   0  0  0  0  0  0  0  0  0  0  0  0
   -3.6633   -2.5678   -2.1193 C   0  0  0  0  0  0  0  0  0  0  0  0
   -5.0346   -2.6691   -1.9378 C   0  0  0  0  0  0  0  0  0  0  0  0
   -5.8702   -3.6868   -2.6425 C   0  0  0  0  0  0  0  0  0  0  0  0
   -6.4791   -3.1006   -3.9194 C   0  0  0  0  0  0  0  0  0  0  0  0
   -5.5129   -1.6703   -1.0677 C   0  0  0  0  0  0  0  0  0  0  0  0
   -4.2191   -0.6170   -0.4898 S   0  0  0  0  0  0  0  0  0  0  0  0
   -3.0675   -1.5094   -1.4083 C   0  0  0  0  0  0  0  0  0  0  0  0
   -1.6884   -1.4751   -1.6232 C   0  0  0  0  0  0  0  0  0  0  0  0
   -0.6283   -0.6936   -1.2490 N   0  0  0  0  0  0  0  0  0  0  0  0
   -0.8731    0.5759   -0.6031 C   0  0  0  0  0  0  0  0  0  0  0  0
   -1.0874    0.4255    0.9022 C   0  0  0  0  0  0  0  0  0  0  0  0
    0.5043   -1.1992   -1.8548 C   0  0  0  0  0  0  0  0  0  0  0  0
    1.8740   -0.8472   -1.8141 C   0  0  0  0  0  0  0  0  0  0  0  0
    2.6077    0.0562   -1.0626 N   0  0  0  0  0  0  0  0  0  0  0  0
    2.3785    0.5631    0.2736 C   0  0  0  0  0  0  0  0  0  0  0  0
    2.6206   -0.5259    1.3169 C   0  0  0  0  0  0  0  0  0  0  0  0
   -6.8584   -1.5515   -0.7146 C   0  0  0  0  0  0  0  0  0  0  0  0
   -7.4966   -0.6714    0.1295 C   0  0  0  0  0  0  0  0  0  0  0  0
   -6.8592    0.3854    0.9158 C   0  0  0  0  0  0  0  0  0  0  0  0
   -5.6797    0.7004    0.9260 O   0  0  0  0  0  0  0  0  0  0  0  0
   -7.9271    1.0044    1.7179 C   0  0  0  0  0  0  0  0  0  0  0  0
   -7.8358    2.0173    2.6272 C   0  0  0  0  0  0  0  0  0  0  0  0
   -9.0032    2.4472    3.2970 C   0  0  0  0  0  0  0  0  0  0  0  0
   -8.9680    3.4859    4.2489 C   0  0  0  0  0  0  0  0  0  0  0  0
  -10.1044    3.8900    4.8929 C   0  0  0  0  0  0  0  0  0  0  0  0
  -11.3160    3.2537    4.5921 C   0  0  0  0  0  0  0  0  0  0  0  0
  -12.4239    3.6647    5.2361 F   0  0  0  0  0  0  0  0  0  0  0  0
  -11.4055    2.2417    3.6771 C   0  0  0  0  0  0  0  0  0  0  0  0
  -10.2449    1.8126    3.0048 C   0  0  0  0  0  0  0  0  0  0  0  0
  -10.3068    0.7659    2.0544 C   0  0  0  0  0  0  0  0  0  0  0  0
   -9.1629    0.3655    1.4179 C   0  0  0  0  0  0  0  0  0  0  0  0
   -8.9163   -0.6704    0.4158 C   0  0  0  0  0  0  0  0  0  0  0  0
   -9.8833   -1.4702   -0.1413 C   0  0  0  0  0  0  0  0  0  0  0  0
   -9.6739   -2.4618   -1.1207 C   0  0  0  0  0  0  0  0  0  0  0  0
   -9.5885   -3.2827   -1.9211 N   0  0  0  0  0  0  0  0  0  0  0  0
  -11.2522   -1.4013    0.1904 C   0  0  0  0  0  0  0  0  0  0  0  0
  -12.3789   -1.4006    0.4117 N   0  0  0  0  0  0  0  0  0  0  0  0
    9.3290    2.1484   -0.8350 H   0  0  0  0  0  0  0  0  0  0  0  0
    6.4707    5.3988    3.7230 H   0  0  0  0  0  0  0  0  0  0  0  0
   11.3042    5.9601    2.6614 H   0  0  0  0  0  0  0  0  0  0  0  0
    9.2675    1.1837   -2.7023 H   0  0  0  0  0  0  0  0  0  0  0  0
    8.3322   -0.0979   -3.4848 H   0  0  0  0  0  0  0  0  0  0  0  0
   10.3007   -1.0203   -2.2924 H   0  0  0  0  0  0  0  0  0  0  0  0
    9.7193   -0.3501   -0.7688 H   0  0  0  0  0  0  0  0  0  0  0  0
    8.7997   -1.6224   -1.5797 H   0  0  0  0  0  0  0  0  0  0  0  0
    3.4348   -4.6397   -7.1607 H   0  0  0  0  0  0  0  0  0  0  0  0
    3.9277   -5.7686   -5.9012 H   0  0  0  0  0  0  0  0  0  0  0  0
    4.7370   -4.1947   -6.0393 H   0  0  0  0  0  0  0  0  0  0  0  0
    1.5679   -6.6166   -5.7175 H   0  0  0  0  0  0  0  0  0  0  0  0
    1.0788   -5.4966   -6.9864 H   0  0  0  0  0  0  0  0  0  0  0  0
   -0.0617   -5.9127   -5.6913 H   0  0  0  0  0  0  0  0  0  0  0  0
   -5.2279   -4.5288   -2.9081 H   0  0  0  0  0  0  0  0  0  0  0  0
   -6.6692   -4.0556   -1.9979 H   0  0  0  0  0  0  0  0  0  0  0  0
   -7.1334   -2.2643   -3.6856 H   0  0  0  0  0  0  0  0  0  0  0  0
   -7.0640   -3.8603   -4.4295 H   0  0  0  0  0  0  0  0  0  0  0  0
   -5.6945   -2.7539   -4.5879 H   0  0  0  0  0  0  0  0  0  0  0  0
   -1.7861    0.9943   -1.0406 H   0  0  0  0  0  0  0  0  0  0  0  0
   -0.0552    1.2571   -0.8427 H   0  0  0  0  0  0  0  0  0  0  0  0
   -1.1546    1.4065    1.3640 H   0  0  0  0  0  0  0  0  0  0  0  0
   -0.2784   -0.1317    1.3673 H   0  0  0  0  0  0  0  0  0  0  0  0
   -2.0187   -0.1015    1.0908 H   0  0  0  0  0  0  0  0  0  0  0  0
    3.0865    1.3818    0.4269 H   0  0  0  0  0  0  0  0  0  0  0  0
    1.3750    0.9605    0.3763 H   0  0  0  0  0  0  0  0  0  0  0  0
    2.4557   -0.1258    2.3133 H   0  0  0  0  0  0  0  0  0  0  0  0
    3.6442   -0.8872    1.2546 H   0  0  0  0  0  0  0  0  0  0  0  0
    1.9481   -1.3666    1.1561 H   0  0  0  0  0  0  0  0  0  0  0  0
   -7.4903   -2.2917   -1.1858 H   0  0  0  0  0  0  0  0  0  0  0  0
   -6.8845    2.4839    2.8349 H   0  0  0  0  0  0  0  0  0  0  0  0
   -8.0223    3.9604    4.4639 H   0  0  0  0  0  0  0  0  0  0  0  0
  -10.0948    4.6825    5.6243 H   0  0  0  0  0  0  0  0  0  0  0  0
  -12.3558    1.7747    3.4707 H   0  0  0  0  0  0  0  0  0  0  0  0
  -11.2625    0.3071    1.8593 H   0  0  0  0  0  0  0  0  0  0  0  0
  1  2  2  0  0  0  0
  2  3  1  0  0  0  0
  3  4  2  0  0  0  0
  3  5  1  0  0  0  0
  5  6  2  0  0  0  0
  6  7  1  0  0  0  0
  7  8  1  0  0  0  0
  7  9  2  0  0  0  0
  9 10  1  0  0  0  0
  9 11  1  0  0  0  0
 11 12  2  0  0  0  0
 12 13  1  0  0  0  0
 13 14  2  0  0  0  0
 14 15  1  0  0  0  0
 15 16  3  0  0  0  0
 14 17  1  0  0  0  0
 17 18  3  0  0  0  0
  1 19  1  0  0  0  0
 19 20  2  0  0  0  0
 20 21  1  0  0  0  0
 21 22  1  0  0  0  0
 20 23  1  0  0  0  0
 23 24  2  0  0  0  0
 24 25  1  0  0  0  0
 24 26  1  0  0  0  0
 26 27  2  0  0  0  0
 27 28  1  0  0  0  0
 27 29  1  0  0  0  0
 29 30  2  0  0  0  0
 30 31  1  0  0  0  0
 31 32  2  0  0  0  0
 32 33  1  0  0  0  0
 32 34  1  0  0  0  0
 34 35  1  0  0  0  0
 34 36  2  0  0  0  0
 36 37  1  0  0  0  0
 37 38  2  0  0  0  0
 38 39  1  0  0  0  0
 39 40  1  0  0  0  0
 40 41  1  0  0  0  0
 41 42  1  0  0  0  0
 42 43  1  0  0  0  0
 43 44  1  0  0  0  0
 42 45  2  0  0  0  0
 45 46  1  0  0  0  0
 46 47  1  0  0  0  0
 47 48  1  0  0  0  0
 48 49  1  0  0  0  0
 49 50  1  0  0  0  0
 50 51  1  0  0  0  0
 49 52  1  0  0  0  0
 52 53  2  0  0  0  0
 53 54  1  0  0  0  0
 54 55  1  0  0  0  0
 55 56  1  0  0  0  0
 45 57  1  0  0  0  0
 57 58  2  0  0  0  0
 58 59  1  0  0  0  0
 59 60  2  0  0  0  0
 59 61  1  0  0  0  0
 61 62  2  0  0  0  0
 62 63  1  0  0  0  0
 63 64  2  0  0  0  0
 64 65  1  0  0  0  0
 65 66  2  0  0  0  0
 66 67  1  0  0  0  0
 66 68  1  0  0  0  0
 68 69  2  0  0  0  0
 69 70  1  0  0  0  0
 70 71  2  0  0  0  0
 71 72  1  0  0  0  0
 72 73  2  0  0  0  0
 73 74  1  0  0  0  0
 74 75  3  0  0  0  0
 73 76  1  0  0  0  0
 76 77  3  0  0  0  0
 13  2  1  0  0  0  0
 25 19  1  0  0  0  0
 54 26  1  0  0  0  0
 72 58  1  0  0  0  0
 12  5  1  0  0  0  0
 28 23  1  0  0  0  0
 53 29  1  0  0  0  0
 71 61  1  0  0  0  0
 37 30  1  0  0  0  0
 52 38  1  0  0  0  0
 69 63  1  0  0  0  0
 48 39  2  0  0  0  0
 47 41  2  0  0  0  0
  1 78  1  0  0  0  0
  6 79  1  0  0  0  0
 11 80  1  0  0  0  0
 21 81  1  0  0  0  0
 21 82  1  0  0  0  0
 22 83  1  0  0  0  0
 22 84  1  0  0  0  0
 22 85  1  0  0  0  0
 33 86  1  0  0  0  0
 33 87  1  0  0  0  0
 33 88  1  0  0  0  0
 35 89  1  0  0  0  0
 35 90  1  0  0  0  0
 35 91  1  0  0  0  0
 43 92  1  0  0  0  0
 43 93  1  0  0  0  0
 44 94  1  0  0  0  0
 44 95  1  0  0  0  0
 44 96  1  0  0  0  0
 50 97  1  0  0  0  0
 50 98  1  0  0  0  0
 51 99  1  0  0  0  0
 51100  1  0  0  0  0
 51101  1  0  0  0  0
 55102  1  0  0  0  0
 55103  1  0  0  0  0
 56104  1  0  0  0  0
 56105  1  0  0  0  0
 56106  1  0  0  0  0
 57107  1  0  0  0  0
 62108  1  0  0  0  0
 64109  1  0  0  0  0
 65110  1  0  0  0  0
 68111  1  0  0  0  0
 70112  1  0  0  0  0
M  END
