138

C          2.94050       -6.91640        3.97060
C          2.69550       -7.53090        5.17300
C          1.80120       -7.09460        6.26500
O          1.03860       -6.15170        6.30320
C          2.01720       -8.05900        7.36650
C          1.43050       -8.06240        8.61560
C          1.78390       -9.06860        9.50600
Cl         1.09190       -9.13510       11.07850
C          2.71370      -10.03360        9.11100
F          3.05370      -10.99860        9.97380
C          3.30420      -10.03600        7.85710
C          2.94810       -9.03160        6.96980
C          3.36580       -8.74980        5.59810
C          4.20830       -9.54430        4.86430
C          4.80930      -10.72260        5.35840
N          5.33330      -11.68770        5.69220
C          4.59540       -9.35050        3.52070
N          4.95910       -9.29020        2.43260
C          2.39410       -5.77100        3.36950
C          1.38790       -4.89070        3.74640
C          1.17650       -3.90710        2.79490
S          0.06560       -2.56900        2.68540
C          0.72870       -2.17110        1.13840
C          0.46250       -1.17910        0.14450
C         -0.48510       -0.15930        0.10170
C         -0.52140        0.61790       -1.03210
C         -1.44420        1.78210       -1.34240
C         -1.31030        2.87900       -0.29880
C         -0.43740        3.94360       -0.48100
C         -0.37310        4.96420        0.44830
C         -1.16320        4.94410        1.59010
C         -1.08040        6.06170        2.58740
C          0.15180        5.90040        3.47940
C         -1.99910        3.85350        1.79040
C         -2.07610        2.83460        0.85900
C         -2.89910        1.37660       -1.52460
C         -3.86390        2.37140       -1.63330
C         -5.18970        2.04410       -1.83750
C         -5.58880        0.71720       -1.94050
C         -7.02580        0.36460       -2.19500
C         -7.30490        0.30420       -3.69820
C         -4.61830       -0.27060       -1.84930
C         -3.28750        0.05110       -1.64880
C         -0.91880        2.20160       -2.68580
C          0.10470        1.36640       -3.10320
C          0.37850        0.38370       -2.10160
C          1.33240       -0.62940       -2.05420
C          1.37000       -1.40410       -0.91870
C          2.29160       -2.57050       -0.61040
C          3.73950       -2.16480       -0.38310
C          4.70640       -3.15860       -0.28570
C          6.02230       -2.83220       -0.02370
C          6.40760       -1.50830        0.14840
C          7.83070       -1.15990        0.47580
C          8.05200       -1.18780        1.98960
C          5.43520       -0.52200        0.06010
C          4.11400       -0.84250       -0.19740
C          2.16730       -3.61200       -1.70540
C          1.23790       -4.63830       -1.61810
C          1.11890       -5.56460       -2.63790
C          1.91260       -5.48190       -3.77360
C          1.82080       -6.51840       -4.85530
C          2.81670       -7.65010       -4.59280
C          2.83060       -4.44300       -3.86240
C          2.95690       -3.51770       -2.84450
C          1.74940       -3.01200        0.72180
C          2.01590       -4.00200        1.66170
S          3.07960       -5.34060        1.79190
S          0.79410        1.80760       -4.62780
C         -0.27880        3.17690       -4.70030
C         -0.41490        4.25580       -5.56570
C         -1.33330        5.18240       -5.10100
S         -2.12870        4.63770       -3.62500
C         -1.14110        3.23240       -3.58860
C         -1.65260        6.42360       -5.69350
C         -2.18480        7.52250       -5.08540
C         -2.87790        8.56020       -5.88870
O         -2.85780        8.69180       -7.08960
C         -3.64410        9.35720       -4.90040
C         -4.55320       10.37140       -5.12870
C         -5.16550       10.94710       -4.02660
F         -6.05600       11.93050       -4.20250
C         -4.86720       10.51120       -2.73480
F         -5.48540       11.07720       -1.69250
C         -3.94600        9.50090       -2.50290
C         -3.33110        8.92110       -3.60040
C         -2.30670        7.88190       -3.68790
C         -1.44080        7.54330       -2.68130
C         -1.56430        7.97590       -1.34610
N         -1.62270        8.27560       -0.23960
C         -0.26650        6.78720       -2.88620
N          0.73100        6.23460       -3.01700
H          3.69880       -7.38370        3.35340
H          0.71710       -7.30130        8.88880
H          4.01480      -10.81070        7.62060
H          0.85020       -4.98200        4.67190
H         -1.16180        0.00250        0.92630
H          0.19240        3.99460       -1.35700
H          0.29310        5.79670        0.27390
H         -1.02130        7.01380        2.05660
H         -1.97750        6.07040        3.20910
H          0.10470        4.96010        4.02500
H          1.05830        5.90160        2.87840
H          0.21010        6.71570        4.19640
H         -2.61180        3.80660        2.67950
H         -2.75580        2.01030        1.02160
H         -3.57390        3.40890       -1.54550
H         -5.92630        2.83100       -1.91320
H         -7.25370       -0.60490       -1.74790
H         -7.67610        1.11340       -1.73870
H         -6.67610       -0.44760       -4.17010
H         -7.09420        1.26570       -4.16110
H         -8.34640        0.05100       -3.88130
H         -4.90500       -1.30920       -1.93360
H         -2.55310       -0.73840       -1.58510
H          2.01050       -0.79050       -2.87770
H          4.42640       -4.19290       -0.42420
H          6.76090       -3.61750        0.04650
H          8.06520       -0.16340        0.09630
H          8.50530       -1.87500        0.00110
H          9.08260       -0.93610        2.22790
H          7.39680       -0.47180        2.48100
H          7.83530       -2.17740        2.38560
H          5.71190        0.51400        0.19440
H          3.37620       -0.05560       -0.25550
H          0.60220       -4.72010       -0.74800
H          0.39610       -6.36290       -2.54900
H          0.80990       -6.92920       -4.89090
H          2.03980       -6.06370       -5.82360
H          2.75080       -8.40330       -5.37420
H          2.60900       -8.12270       -3.63550
H          3.83250       -7.26210       -4.56840
H          3.45550       -4.35760       -4.73990
H          3.68540       -2.72400       -2.92760
H          0.16740        4.40630       -6.45630
H         -1.51410        6.49780       -6.76740
H         -4.78320       10.70870       -6.12670
H         -3.74710        9.19230       -1.48920
