112

C          8.42400        2.37120       -0.28670
C          8.54920        3.31310        0.71110
C          7.48500        3.78200        1.59640
O          6.31720        3.43400        1.61960
C          8.10680        4.78710        2.48510
C          7.51720        5.52000        3.49390
C          8.30770        6.41660        4.20330
Cl         7.63710        7.36400        5.47330
C          9.65840        6.54510        3.87520
F         10.41450        7.41020        4.56230
C         10.25590        5.81090        2.86140
C          9.46630        4.91770        2.15530
C          9.77260        4.00880        1.05010
C         11.00680        3.87340        0.46490
C         11.32640        3.00830       -0.60170
N         11.67080        2.33210       -1.46470
C         12.15000        4.60060        0.85780
N         13.11680        5.15880        1.12530
C          7.31990        1.64370       -0.72860
C          7.38810        0.71230       -1.78440
C          8.62690        0.31970       -2.52010
C          9.41130       -0.73710       -1.73720
C          6.15090        0.14010       -2.03500
C          5.12050        0.61120       -1.19810
S          5.68720        1.77950       -0.06770
C          3.90340        0.00480       -1.51110
C          4.01490       -0.91620       -2.55970
S          5.61330       -1.05720       -3.20020
C          2.74620       -1.48040       -2.74750
C          2.34830       -2.53210       -3.61390
N          3.22040       -3.09610       -4.45780
C          2.79980       -4.10080       -5.19740
C          3.78760       -4.71380       -6.13310
C          1.46750       -4.57710       -5.10160
C          0.98180       -5.72270       -5.92550
N          0.60130       -4.02210       -4.28020
C          1.01870       -2.99460       -3.53110
C          0.12580       -2.31030       -2.66580
C         -1.25270       -2.48550       -2.48970
S         -2.52090       -3.51310       -3.05780
C         -3.66330       -2.56780       -2.11930
C         -5.03460       -2.66910       -1.93780
C         -5.87020       -3.68680       -2.64250
C         -6.47910       -3.10060       -3.91940
C         -5.51290       -1.67030       -1.06770
S         -4.21910       -0.61700       -0.48980
C         -3.06750       -1.50940       -1.40830
C         -1.68840       -1.47510       -1.62320
N         -0.62830       -0.69360       -1.24900
C         -0.87310        0.57590       -0.60310
C         -1.08740        0.42550        0.90220
C          0.50430       -1.19920       -1.85480
C          1.87400       -0.84720       -1.81410
N          2.60770        0.05620       -1.06260
C          2.37850        0.56310        0.27360
C          2.62060       -0.52590        1.31690
C         -6.85840       -1.55150       -0.71460
C         -7.49660       -0.67140        0.12950
C         -6.85920        0.38540        0.91580
O         -5.67970        0.70040        0.92600
C         -7.92710        1.00440        1.71790
C         -7.83580        2.01730        2.62720
C         -9.00320        2.44720        3.29700
C         -8.96800        3.48590        4.24890
C        -10.10440        3.89000        4.89290
C        -11.31600        3.25370        4.59210
F        -12.42390        3.66470        5.23610
C        -11.40550        2.24170        3.67710
C        -10.24490        1.81260        3.00480
C        -10.30680        0.76590        2.05440
C         -9.16290        0.36550        1.41790
C         -8.91630       -0.67040        0.41580
C         -9.88330       -1.47020       -0.14130
C         -9.67390       -2.46180       -1.12070
N         -9.58850       -3.28270       -1.92110
C        -11.25220       -1.40130        0.19040
N        -12.37890       -1.40060        0.41170
H          9.32900        2.14840       -0.83500
H          6.47070        5.39880        3.72300
H         11.30420        5.96010        2.66140
H          9.26750        1.18370       -2.70230
H          8.33220       -0.09790       -3.48480
H         10.30070       -1.02030       -2.29240
H          9.71930       -0.35010       -0.76880
H          8.79970       -1.62240       -1.57970
H          3.43480       -4.63970       -7.16070
H          3.92770       -5.76860       -5.90120
H          4.73700       -4.19470       -6.03930
H          1.56790       -6.61660       -5.71750
H          1.07880       -5.49660       -6.98640
H         -0.06170       -5.91270       -5.69130
H         -5.22790       -4.52880       -2.90810
H         -6.66920       -4.05560       -1.99790
H         -7.13340       -2.26430       -3.68560
H         -7.06400       -3.86030       -4.42950
H         -5.69450       -2.75390       -4.58790
H         -1.78610        0.99430       -1.04060
H         -0.05520        1.25710       -0.84270
H         -1.15460        1.40650        1.36400
H         -0.27840       -0.13170        1.36730
H         -2.01870       -0.10150        1.09080
H          3.08650        1.38180        0.42690
H          1.37500        0.96050        0.37630
H          2.45570       -0.12580        2.31330
H          3.64420       -0.88720        1.25460
H          1.94810       -1.36660        1.15610
H         -7.49030       -2.29170       -1.18580
H         -6.88450        2.48390        2.83490
H         -8.02230        3.96040        4.46390
H        -10.09480        4.68250        5.62430
H        -12.35580        1.77470        3.47070
H        -11.26250        0.30710        1.85930
