
  xtb     02012222223D
 energy: -241.919119993442 gnorm: 0.000433277063 xtb: 6.4.1 (unknown)
138152  0     0  0            999 V2000
    2.9405   -6.9164    3.9706 C   0  0  0  0  0  0  0  0  0  0  0  0
    2.6955   -7.5309    5.1730 C   0  0  0  0  0  0  0  0  0  0  0  0
    1.8012   -7.0946    6.2650 C   0  0  0  0  0  0  0  0  0  0  0  0
    1.0386   -6.1517    6.3032 O   0  0  0  0  0  0  0  0  0  0  0  0
    2.0172   -8.0590    7.3665 C   0  0  0  0  0  0  0  0  0  0  0  0
    1.4305   -8.0624    8.6156 C   0  0  0  0  0  0  0  0  0  0  0  0
    1.7839   -9.0686    9.5060 C   0  0  0  0  0  0  0  0  0  0  0  0
    1.0919   -9.1351   11.0785 Cl  0  0  0  0  0  0  0  0  0  0  0  0
    2.7137  -10.0336    9.1110 C   0  0  0  0  0  0  0  0  0  0  0  0
    3.0537  -10.9986    9.9738 F   0  0  0  0  0  0  0  0  0  0  0  0
    3.3042  -10.0360    7.8571 C   0  0  0  0  0  0  0  0  0  0  0  0
    2.9481   -9.0316    6.9698 C   0  0  0  0  0  0  0  0  0  0  0  0
    3.3658   -8.7498    5.5981 C   0  0  0  0  0  0  0  0  0  0  0  0
    4.2083   -9.5443    4.8643 C   0  0  0  0  0  0  0  0  0  0  0  0
    4.8093  -10.7226    5.3584 C   0  0  0  0  0  0  0  0  0  0  0  0
    5.3333  -11.6877    5.6922 N   0  0  0  0  0  0  0  0  0  0  0  0
    4.5954   -9.3505    3.5207 C   0  0  0  0  0  0  0  0  0  0  0  0
    4.9591   -9.2902    2.4326 N   0  0  0  0  0  0  0  0  0  0  0  0
    2.3941   -5.7710    3.3695 C   0  0  0  0  0  0  0  0  0  0  0  0
    1.3879   -4.8907    3.7464 C   0  0  0  0  0  0  0  0  0  0  0  0
    1.1765   -3.9071    2.7949 C   0  0  0  0  0  0  0  0  0  0  0  0
    0.0656   -2.5690    2.6854 S   0  0  0  0  0  0  0  0  0  0  0  0
    0.7287   -2.1711    1.1384 C   0  0  0  0  0  0  0  0  0  0  0  0
    0.4625   -1.1791    0.1445 C   0  0  0  0  0  0  0  0  0  0  0  0
   -0.4851   -0.1593    0.1017 C   0  0  0  0  0  0  0  0  0  0  0  0
   -0.5214    0.6179   -1.0321 C   0  0  0  0  0  0  0  0  0  0  0  0
   -1.4442    1.7821   -1.3424 C   0  0  0  0  0  0  0  0  0  0  0  0
   -1.3103    2.8790   -0.2988 C   0  0  0  0  0  0  0  0  0  0  0  0
   -0.4374    3.9436   -0.4810 C   0  0  0  0  0  0  0  0  0  0  0  0
   -0.3731    4.9642    0.4483 C   0  0  0  0  0  0  0  0  0  0  0  0
   -1.1632    4.9441    1.5901 C   0  0  0  0  0  0  0  0  0  0  0  0
   -1.0804    6.0617    2.5874 C   0  0  0  0  0  0  0  0  0  0  0  0
    0.1518    5.9004    3.4794 C   0  0  0  0  0  0  0  0  0  0  0  0
   -1.9991    3.8535    1.7904 C   0  0  0  0  0  0  0  0  0  0  0  0
   -2.0761    2.8346    0.8590 C   0  0  0  0  0  0  0  0  0  0  0  0
   -2.8991    1.3766   -1.5246 C   0  0  0  0  0  0  0  0  0  0  0  0
   -3.8639    2.3714   -1.6333 C   0  0  0  0  0  0  0  0  0  0  0  0
   -5.1897    2.0441   -1.8375 C   0  0  0  0  0  0  0  0  0  0  0  0
   -5.5888    0.7172   -1.9405 C   0  0  0  0  0  0  0  0  0  0  0  0
   -7.0258    0.3646   -2.1950 C   0  0  0  0  0  0  0  0  0  0  0  0
   -7.3049    0.3042   -3.6982 C   0  0  0  0  0  0  0  0  0  0  0  0
   -4.6183   -0.2706   -1.8493 C   0  0  0  0  0  0  0  0  0  0  0  0
   -3.2875    0.0511   -1.6488 C   0  0  0  0  0  0  0  0  0  0  0  0
   -0.9188    2.2016   -2.6858 C   0  0  0  0  0  0  0  0  0  0  0  0
    0.1047    1.3664   -3.1032 C   0  0  0  0  0  0  0  0  0  0  0  0
    0.3785    0.3837   -2.1016 C   0  0  0  0  0  0  0  0  0  0  0  0
    1.3324   -0.6294   -2.0542 C   0  0  0  0  0  0  0  0  0  0  0  0
    1.3700   -1.4041   -0.9187 C   0  0  0  0  0  0  0  0  0  0  0  0
    2.2916   -2.5705   -0.6104 C   0  0  0  0  0  0  0  0  0  0  0  0
    3.7395   -2.1648   -0.3831 C   0  0  0  0  0  0  0  0  0  0  0  0
    4.7064   -3.1586   -0.2857 C   0  0  0  0  0  0  0  0  0  0  0  0
    6.0223   -2.8322   -0.0237 C   0  0  0  0  0  0  0  0  0  0  0  0
    6.4076   -1.5083    0.1484 C   0  0  0  0  0  0  0  0  0  0  0  0
    7.8307   -1.1599    0.4758 C   0  0  0  0  0  0  0  0  0  0  0  0
    8.0520   -1.1878    1.9896 C   0  0  0  0  0  0  0  0  0  0  0  0
    5.4352   -0.5220    0.0601 C   0  0  0  0  0  0  0  0  0  0  0  0
    4.1140   -0.8425   -0.1974 C   0  0  0  0  0  0  0  0  0  0  0  0
    2.1673   -3.6120   -1.7054 C   0  0  0  0  0  0  0  0  0  0  0  0
    1.2379   -4.6383   -1.6181 C   0  0  0  0  0  0  0  0  0  0  0  0
    1.1189   -5.5646   -2.6379 C   0  0  0  0  0  0  0  0  0  0  0  0
    1.9126   -5.4819   -3.7736 C   0  0  0  0  0  0  0  0  0  0  0  0
    1.8208   -6.5184   -4.8553 C   0  0  0  0  0  0  0  0  0  0  0  0
    2.8167   -7.6501   -4.5928 C   0  0  0  0  0  0  0  0  0  0  0  0
    2.8306   -4.4430   -3.8624 C   0  0  0  0  0  0  0  0  0  0  0  0
    2.9569   -3.5177   -2.8445 C   0  0  0  0  0  0  0  0  0  0  0  0
    1.7494   -3.0120    0.7218 C   0  0  0  0  0  0  0  0  0  0  0  0
    2.0159   -4.0020    1.6617 C   0  0  0  0  0  0  0  0  0  0  0  0
    3.0796   -5.3406    1.7919 S   0  0  0  0  0  0  0  0  0  0  0  0
    0.7941    1.8076   -4.6278 S   0  0  0  0  0  0  0  0  0  0  0  0
   -0.2788    3.1769   -4.7003 C   0  0  0  0  0  0  0  0  0  0  0  0
   -0.4149    4.2558   -5.5657 C   0  0  0  0  0  0  0  0  0  0  0  0
   -1.3333    5.1824   -5.1010 C   0  0  0  0  0  0  0  0  0  0  0  0
   -2.1287    4.6377   -3.6250 S   0  0  0  0  0  0  0  0  0  0  0  0
   -1.1411    3.2324   -3.5886 C   0  0  0  0  0  0  0  0  0  0  0  0
   -1.6526    6.4236   -5.6935 C   0  0  0  0  0  0  0  0  0  0  0  0
   -2.1848    7.5225   -5.0854 C   0  0  0  0  0  0  0  0  0  0  0  0
   -2.8779    8.5602   -5.8887 C   0  0  0  0  0  0  0  0  0  0  0  0
   -2.8578    8.6918   -7.0896 O   0  0  0  0  0  0  0  0  0  0  0  0
   -3.6441    9.3572   -4.9004 C   0  0  0  0  0  0  0  0  0  0  0  0
   -4.5532   10.3714   -5.1287 C   0  0  0  0  0  0  0  0  0  0  0  0
   -5.1655   10.9471   -4.0266 C   0  0  0  0  0  0  0  0  0  0  0  0
   -6.0560   11.9305   -4.2025 F   0  0  0  0  0  0  0  0  0  0  0  0
   -4.8672   10.5112   -2.7348 C   0  0  0  0  0  0  0  0  0  0  0  0
   -5.4854   11.0772   -1.6925 F   0  0  0  0  0  0  0  0  0  0  0  0
   -3.9460    9.5009   -2.5029 C   0  0  0  0  0  0  0  0  0  0  0  0
   -3.3311    8.9211   -3.6004 C   0  0  0  0  0  0  0  0  0  0  0  0
   -2.3067    7.8819   -3.6879 C   0  0  0  0  0  0  0  0  0  0  0  0
   -1.4408    7.5433   -2.6813 C   0  0  0  0  0  0  0  0  0  0  0  0
   -1.5643    7.9759   -1.3461 C   0  0  0  0  0  0  0  0  0  0  0  0
   -1.6227    8.2756   -0.2396 N   0  0  0  0  0  0  0  0  0  0  0  0
   -0.2665    6.7872   -2.8862 C   0  0  0  0  0  0  0  0  0  0  0  0
    0.7310    6.2346   -3.0170 N   0  0  0  0  0  0  0  0  0  0  0  0
    3.6988   -7.3837    3.3534 H   0  0  0  0  0  0  0  0  0  0  0  0
    0.7171   -7.3013    8.8888 H   0  0  0  0  0  0  0  0  0  0  0  0
    4.0148  -10.8107    7.6206 H   0  0  0  0  0  0  0  0  0  0  0  0
    0.8502   -4.9820    4.6719 H   0  0  0  0  0  0  0  0  0  0  0  0
   -1.1618    0.0025    0.9263 H   0  0  0  0  0  0  0  0  0  0  0  0
    0.1924    3.9946   -1.3570 H   0  0  0  0  0  0  0  0  0  0  0  0
    0.2931    5.7967    0.2739 H   0  0  0  0  0  0  0  0  0  0  0  0
   -1.0213    7.0138    2.0566 H   0  0  0  0  0  0  0  0  0  0  0  0
   -1.9775    6.0704    3.2091 H   0  0  0  0  0  0  0  0  0  0  0  0
    0.1047    4.9601    4.0250 H   0  0  0  0  0  0  0  0  0  0  0  0
    1.0583    5.9016    2.8784 H   0  0  0  0  0  0  0  0  0  0  0  0
    0.2101    6.7157    4.1964 H   0  0  0  0  0  0  0  0  0  0  0  0
   -2.6118    3.8066    2.6795 H   0  0  0  0  0  0  0  0  0  0  0  0
   -2.7558    2.0103    1.0216 H   0  0  0  0  0  0  0  0  0  0  0  0
   -3.5739    3.4089   -1.5455 H   0  0  0  0  0  0  0  0  0  0  0  0
   -5.9263    2.8310   -1.9132 H   0  0  0  0  0  0  0  0  0  0  0  0
   -7.2537   -0.6049   -1.7479 H   0  0  0  0  0  0  0  0  0  0  0  0
   -7.6761    1.1134   -1.7387 H   0  0  0  0  0  0  0  0  0  0  0  0
   -6.6761   -0.4476   -4.1701 H   0  0  0  0  0  0  0  0  0  0  0  0
   -7.0942    1.2657   -4.1611 H   0  0  0  0  0  0  0  0  0  0  0  0
   -8.3464    0.0510   -3.8813 H   0  0  0  0  0  0  0  0  0  0  0  0
   -4.9050   -1.3092   -1.9336 H   0  0  0  0  0  0  0  0  0  0  0  0
   -2.5531   -0.7384   -1.5851 H   0  0  0  0  0  0  0  0  0  0  0  0
    2.0105   -0.7905   -2.8777 H   0  0  0  0  0  0  0  0  0  0  0  0
    4.4264   -4.1929   -0.4242 H   0  0  0  0  0  0  0  0  0  0  0  0
    6.7609   -3.6175    0.0465 H   0  0  0  0  0  0  0  0  0  0  0  0
    8.0652   -0.1634    0.0963 H   0  0  0  0  0  0  0  0  0  0  0  0
    8.5053   -1.8750    0.0011 H   0  0  0  0  0  0  0  0  0  0  0  0
    9.0826   -0.9361    2.2279 H   0  0  0  0  0  0  0  0  0  0  0  0
    7.3968   -0.4718    2.4810 H   0  0  0  0  0  0  0  0  0  0  0  0
    7.8353   -2.1774    2.3856 H   0  0  0  0  0  0  0  0  0  0  0  0
    5.7119    0.5140    0.1944 H   0  0  0  0  0  0  0  0  0  0  0  0
    3.3762   -0.0556   -0.2555 H   0  0  0  0  0  0  0  0  0  0  0  0
    0.6022   -4.7201   -0.7480 H   0  0  0  0  0  0  0  0  0  0  0  0
    0.3961   -6.3629   -2.5490 H   0  0  0  0  0  0  0  0  0  0  0  0
    0.8099   -6.9292   -4.8909 H   0  0  0  0  0  0  0  0  0  0  0  0
    2.0398   -6.0637   -5.8236 H   0  0  0  0  0  0  0  0  0  0  0  0
    2.7508   -8.4033   -5.3742 H   0  0  0  0  0  0  0  0  0  0  0  0
    2.6090   -8.1227   -3.6355 H   0  0  0  0  0  0  0  0  0  0  0  0
    3.8325   -7.2621   -4.5684 H   0  0  0  0  0  0  0  0  0  0  0  0
    3.4555   -4.3576   -4.7399 H   0  0  0  0  0  0  0  0  0  0  0  0
    3.6854   -2.7240   -2.9276 H   0  0  0  0  0  0  0  0  0  0  0  0
    0.1674    4.4063   -6.4563 H   0  0  0  0  0  0  0  0  0  0  0  0
   -1.5141    6.4978   -6.7674 H   0  0  0  0  0  0  0  0  0  0  0  0
   -4.7832   10.7087   -6.1267 H   0  0  0  0  0  0  0  0  0  0  0  0
   -3.7471    9.1923   -1.4892 H   0  0  0  0  0  0  0  0  0  0  0  0
  1  2  2  0  0  0  0
  2  3  1  0  0  0  0
  3  4  2  0  0  0  0
  3  5  1  0  0  0  0
  5  6  2  0  0  0  0
  6  7  1  0  0  0  0
  7  8  1  0  0  0  0
  7  9  2  0  0  0  0
  9 10  1  0  0  0  0
  9 11  1  0  0  0  0
 11 12  2  0  0  0  0
 12 13  1  0  0  0  0
 13 14  2  0  0  0  0
 14 15  1  0  0  0  0
 15 16  3  0  0  0  0
 14 17  1  0  0  0  0
 17 18  3  0  0  0  0
  1 19  1  0  0  0  0
 19 20  2  0  0  0  0
 20 21  1  0  0  0  0
 21 22  1  0  0  0  0
 22 23  1  0  0  0  0
 23 24  1  0  0  0  0
 24 25  2  0  0  0  0
 25 26  1  0  0  0  0
 26 27  1  0  0  0  0
 27 28  1  0  0  0  0
 28 29  2  0  0  0  0
 29 30  1  0  0  0  0
 30 31  2  0  0  0  0
 31 32  1  0  0  0  0
 32 33  1  0  0  0  0
 31 34  1  0  0  0  0
 34 35  2  0  0  0  0
 27 36  1  0  0  0  0
 36 37  2  0  0  0  0
 37 38  1  0  0  0  0
 38 39  2  0  0  0  0
 39 40  1  0  0  0  0
 40 41  1  0  0  0  0
 39 42  1  0  0  0  0
 42 43  2  0  0  0  0
 27 44  1  0  0  0  0
 44 45  2  0  0  0  0
 45 46  1  0  0  0  0
 46 47  1  0  0  0  0
 47 48  2  0  0  0  0
 48 49  1  0  0  0  0
 49 50  1  0  0  0  0
 50 51  2  0  0  0  0
 51 52  1  0  0  0  0
 52 53  2  0  0  0  0
 53 54  1  0  0  0  0
 54 55  1  0  0  0  0
 53 56  1  0  0  0  0
 56 57  2  0  0  0  0
 49 58  1  0  0  0  0
 58 59  2  0  0  0  0
 59 60  1  0  0  0  0
 60 61  2  0  0  0  0
 61 62  1  0  0  0  0
 62 63  1  0  0  0  0
 61 64  1  0  0  0  0
 64 65  2  0  0  0  0
 49 66  1  0  0  0  0
 66 67  1  0  0  0  0
 67 68  1  0  0  0  0
 45 69  1  0  0  0  0
 69 70  1  0  0  0  0
 70 71  1  0  0  0  0
 71 72  2  0  0  0  0
 72 73  1  0  0  0  0
 73 74  1  0  0  0  0
 72 75  1  0  0  0  0
 75 76  2  0  0  0  0
 76 77  1  0  0  0  0
 77 78  2  0  0  0  0
 77 79  1  0  0  0  0
 79 80  2  0  0  0  0
 80 81  1  0  0  0  0
 81 82  1  0  0  0  0
 81 83  2  0  0  0  0
 83 84  1  0  0  0  0
 83 85  1  0  0  0  0
 85 86  2  0  0  0  0
 86 87  1  0  0  0  0
 87 88  2  0  0  0  0
 88 89  1  0  0  0  0
 89 90  3  0  0  0  0
 88 91  1  0  0  0  0
 91 92  3  0  0  0  0
 13  2  1  0  0  0  0
 68 19  1  0  0  0  0
 74 70  2  0  0  0  0
 87 76  1  0  0  0  0
 12  5  1  0  0  0  0
 67 21  2  0  0  0  0
 86 79  1  0  0  0  0
 66 23  2  0  0  0  0
 48 24  1  0  0  0  0
 57 50  1  0  0  0  0
 65 58  1  0  0  0  0
 46 26  2  0  0  0  0
 35 28  1  0  0  0  0
 43 36  1  0  0  0  0
 74 44  1  0  0  0  0
  1 93  1  0  0  0  0
  6 94  1  0  0  0  0
 11 95  1  0  0  0  0
 20 96  1  0  0  0  0
 25 97  1  0  0  0  0
 29 98  1  0  0  0  0
 30 99  1  0  0  0  0
 32100  1  0  0  0  0
 32101  1  0  0  0  0
 33102  1  0  0  0  0
 33103  1  0  0  0  0
 33104  1  0  0  0  0
 34105  1  0  0  0  0
 35106  1  0  0  0  0
 37107  1  0  0  0  0
 38108  1  0  0  0  0
 40109  1  0  0  0  0
 40110  1  0  0  0  0
 41111  1  0  0  0  0
 41112  1  0  0  0  0
 41113  1  0  0  0  0
 42114  1  0  0  0  0
 43115  1  0  0  0  0
 47116  1  0  0  0  0
 51117  1  0  0  0  0
 52118  1  0  0  0  0
 54119  1  0  0  0  0
 54120  1  0  0  0  0
 55121  1  0  0  0  0
 55122  1  0  0  0  0
 55123  1  0  0  0  0
 56124  1  0  0  0  0
 57125  1  0  0  0  0
 59126  1  0  0  0  0
 60127  1  0  0  0  0
 62128  1  0  0  0  0
 62129  1  0  0  0  0
 63130  1  0  0  0  0
 63131  1  0  0  0  0
 63132  1  0  0  0  0
 64133  1  0  0  0  0
 65134  1  0  0  0  0
 71135  1  0  0  0  0
 75136  1  0  0  0  0
 80137  1  0  0  0  0
 85138  1  0  0  0  0
M  END
