138

C          2.06500        4.50320       -7.37370
C          1.84090        4.31660       -8.70910
C          1.83250        5.50230       -9.60360
O          2.20340        6.62070       -9.33480
C          1.22400        5.02710      -10.86810
C          0.87960        5.75840      -11.98630
C          0.28600        5.09280      -13.05290
Cl        -0.17190        5.94590      -14.47410
C          0.05900        3.71760      -12.96230
F         -0.52590        3.08650      -13.98720
C          0.41260        2.97380      -11.84690
C          1.00360        3.64060      -10.78650
C          1.51060        3.15640       -9.50260
C          1.84490        1.85390       -9.23170
C          2.58470        1.45690       -8.10020
N          3.21350        1.08950       -7.21300
C          1.56460        0.77470      -10.09410
N          1.34120       -0.13940      -10.75120
C          1.74440        3.67420       -6.28310
C          0.84050        2.62370       -6.20260
C          0.75390        2.10760       -4.91930
S         -0.17850        0.82440       -4.20460
C          0.57700        1.15230       -2.68310
C          0.47080        0.61710       -1.36270
C         -0.33770       -0.39300       -0.84750
C         -0.24180       -0.64750        0.50030
C         -1.00920       -1.66940        1.31950
C         -2.49740       -1.48250        1.10310
C         -3.13320       -2.13260        0.05310
C         -4.48360       -1.94620       -0.17100
C         -5.23340       -1.10790        0.64390
C         -6.69290       -0.88090        0.37480
C         -6.88120        0.27610       -0.60860
C         -4.58950       -0.44940        1.68240
C         -3.23740       -0.62950        1.90890
C         -0.58070       -3.10520        1.05630
C          0.55970       -3.41340        0.32980
C          0.94600       -4.73160        0.16340
C          0.21540       -5.76810        0.72720
C          0.61740       -7.19850        0.51190
C         -0.05420       -7.75950       -0.74330
C         -0.92210       -5.45120        1.45970
C         -1.31620       -4.13820        1.62560
C         -0.53910       -1.32800        2.70770
C          0.42720       -0.33600        2.66420
C          0.62670        0.11140        1.32230
C          1.45260        1.10510        0.80290
C          1.37540        1.34170       -0.54930
C          2.13590        2.37190       -1.36580
C          3.60940        2.04360       -1.54930
C          4.44650        3.00470       -2.10340
C          5.77400        2.71770       -2.35130
C          6.30000        1.46580       -2.05620
C          7.72950        1.14120       -2.37850
C          7.84760        0.63980       -3.81950
C          5.45720        0.50920       -1.50810
C          4.12530        0.78950       -1.25990
C          1.93320        3.74050       -0.74860
C          2.77440        4.17180        0.26950
C          2.56760        5.39470        0.87770
C          1.51630        6.21600        0.49050
C          1.32300        7.56360        1.12310
C          2.12720        8.62680        0.37220
C          0.67780        5.77860       -0.52560
C          0.87740        4.55330       -1.13470
C          1.49250        2.19230       -2.71410
C          1.60280        2.74160       -3.98780
S          2.48210        4.02030       -4.72140
S          1.06570        0.10340        4.21220
C          0.00330       -1.06620        4.95200
C         -0.24480       -1.44430        6.25520
C         -1.23280       -2.43050        6.34400
S         -1.84440       -2.89020        4.75740
C         -0.78800       -1.75890        4.00830
C         -1.65310       -2.93710        7.58090
C         -2.60140       -3.88260        7.88370
C         -3.40870       -4.63040        6.91450
O         -3.38880       -4.54710        5.70030
C         -4.26850       -5.53060        7.70980
C         -5.20550       -6.43780        7.25960
C         -5.88190       -7.16690        8.22610
F         -6.80500       -8.06240        7.83820
C         -5.63990       -7.00620        9.58200
C         -4.69510       -6.08960       10.01910
C         -4.00230       -5.34270        9.07710
C         -2.96950       -4.31540        9.21830
C         -2.47220       -3.85900       10.41140
C         -1.48800       -2.86120       10.57270
N         -0.69730       -2.05900       10.79830
C         -2.88970       -4.32820       11.67520
N         -3.18050       -4.66110       12.73460
H          2.48370        5.47280       -7.12050
H          1.06710        6.81940      -12.02900
H          0.20920        1.91510      -11.83740
H          0.23910        2.29070       -7.02870
H         -1.01370       -0.94130       -1.48520
H         -2.57090       -2.80100       -0.58290
H         -4.96450       -2.46530       -0.98780
H         -7.13670       -1.78550       -0.04550
H         -7.20980       -0.64810        1.30780
H         -7.93820        0.44140       -0.80390
H         -6.38370        0.05680       -1.55060
H         -6.45520        1.19090       -0.20240
H         -5.15290        0.21080        2.32620
H         -2.75860       -0.10320        2.72200
H          1.15200       -2.62520       -0.11160
H          1.83480       -4.95500       -0.40940
H          0.32390       -7.79870        1.37540
H          1.70140       -7.26610        0.40030
H          0.23480       -7.18080       -1.61780
H         -1.13650       -7.71420       -0.64520
H          0.23760       -8.79520       -0.90020
H         -1.50430       -6.24060        1.91230
H         -2.20290       -3.91240        2.19950
H          2.11470        1.66580        1.44410
H          4.05430        3.98440       -2.33640
H          6.41100        3.47650       -2.78220
H          8.09870        0.37170       -1.69750
H          8.34840        2.03240       -2.25590
H          7.24770       -0.25660       -3.95860
H          7.49260        1.39730       -4.51440
H          8.88270        0.40650       -4.05730
H          5.84500       -0.47190       -1.27350
H          3.48830        0.02570       -0.83820
H          3.60270        3.55100        0.57930
H          3.23140        5.71540        1.66790
H          1.65080        7.53360        2.16410
H          0.26510        7.83300        1.10530
H          1.80550        8.68180       -0.66540
H          1.98900        9.60270        0.83140
H          3.18670        8.38140        0.38880
H         -0.14680        6.40140       -0.84180
H          0.20370        4.22950       -1.91510
H          0.24700       -1.03690        7.12020
H         -1.13210       -2.48790        8.41770
H         -5.40230       -6.57220        6.20810
H         -6.19540       -7.60200       10.28900
H         -4.51740       -5.97550       11.07540
