104

C         -2.90250        0.15570       -8.83850
C         -2.25480        0.64600       -9.94800
C         -0.97130        1.35260       -9.94930
O         -0.26550        1.62660       -8.99720
C         -0.69160        1.68150      -11.36440
C          0.39740        2.34520      -11.88980
C          0.44670        2.54300      -13.26490
Cl         1.77570        3.36190      -13.98710
C         -0.59740        2.06910      -14.06140
F         -0.54500        2.26360      -15.38510
C         -1.69440        1.40110      -13.53860
C         -1.74120        1.20410      -12.16760
C         -2.73180        0.55060      -11.31180
C         -3.88770       -0.03920      -11.75840
C         -4.27660       -0.08860      -13.11370
N         -4.65390       -0.16540      -14.19520
C         -4.85460       -0.67870      -10.95570
N         -5.69100       -1.21780      -10.38080
C         -2.54680        0.17230       -7.48600
S         -1.08030        0.87160       -6.79190
C         -1.59220        0.37930       -5.22270
C         -1.21690        0.39780       -3.88490
O         -0.20750        0.83030       -3.09360
C         -0.55590        0.46670       -1.82900
C          0.20480        0.70590       -0.69480
O          1.41730        1.35120       -0.73050
C          1.35360        2.77470       -0.65470
C          0.76380        3.44190       -1.88910
C         -0.32140        0.20150        0.50290
C         -1.59120       -0.45650        0.54740
C         -2.36710       -0.67280       -0.58190
O         -3.57290       -1.27870       -0.64870
C         -4.22060       -1.70000        0.54600
C         -5.57600       -2.26340        0.15160
C         -1.81190       -0.21230       -1.78870
C         -2.22750       -0.24630       -3.14490
N         -3.21400       -0.68410       -3.97890
C         -2.84940       -0.29660       -5.24580
C         -3.37580       -0.40740       -6.51640
C         -4.45860       -1.32110       -3.62840
C         -5.58110       -0.29930       -3.46520
O         -1.91370       -0.86140        1.82210
C         -0.85980       -0.50140        2.58740
C         -0.41380       -0.60620        3.89670
S         -0.85200       -1.19840        5.44740
C          0.71420       -0.67270        6.10240
C          1.50670       -0.05570        5.14420
C          0.88190       -0.01250        3.90580
N          1.20600        0.43900        2.65120
C          2.45340        1.07390        2.30000
C          2.53690        2.49180        2.86010
C          0.14390        0.14860        1.84570
C          0.92050       -0.95080        7.46340
C          2.01510       -0.79330        8.27600
C          3.37880       -0.34670        7.91910
O          3.77560        0.15090        6.88240
C          4.21530       -0.62840        9.10030
C          5.56280       -0.46420        9.24380
C          6.17390       -0.82500       10.46510
C          7.56190       -0.68310       10.66710
C          8.14170       -1.04370       11.85170
C          7.33270       -1.56040       12.87290
F          7.92170       -1.91070       14.03120
C          5.98220       -1.71780       12.72980
C          5.36820       -1.35110       11.51630
C          3.97290       -1.50200       11.33950
C          3.40280       -1.14220       10.14750
C          2.02140       -1.18160        9.67710
C          0.93760       -1.47710       10.46380
C         -0.41750       -1.43000       10.07270
N         -1.54580       -1.39850        9.85730
C          1.02770       -1.83570       11.82540
N          1.02500       -2.14010       12.93250
H         -3.85160       -0.33510       -9.01690
H          1.18800        2.69910      -11.24750
H         -2.46480        1.06210      -14.21160
H          2.39570        3.07770       -0.52650
H          0.78230        3.06740        0.23790
H          1.25520        3.07170       -2.78470
H         -0.30240        3.24360       -1.96930
H          0.91210        4.51640       -1.81900
H         -3.61770       -2.46330        1.04930
H         -4.34200       -0.84770        1.22350
H         -6.16060       -1.50640       -0.36460
H         -5.45160       -3.11860       -0.50770
H         -6.11100       -2.57920        1.04200
H         -4.30860       -0.87720       -6.77230
H         -4.30760       -1.85760       -2.69150
H         -4.70910       -2.03410       -4.41850
H         -6.51340       -0.80740       -3.23590
H         -5.71190        0.27450       -4.37970
H         -5.34580        0.38540       -2.65420
H          2.48750        0.31910        5.37130
H          2.52520        1.08110        1.21130
H          3.27210        0.47150        2.70570
H          3.46900        2.95440        2.54920
H          1.70980        3.09740        2.49760
H          2.50300        2.47540        3.94640
H          0.05290       -1.40270        7.93050
H          6.15600       -0.06760        8.43330
H          8.16440       -0.28310        9.86530
H          9.20180       -0.94250       12.02230
H          5.39000       -2.11780       13.53800
H          3.39350       -1.90650       12.15350
