144

C         -4.02350       -7.98590       -0.55950
C         -3.28420       -9.02940       -1.06420
C         -1.93150       -8.93500       -1.62060
O         -1.25490       -7.93700       -1.78560
C         -1.53060      -10.31900       -1.95120
C         -0.33580      -10.75990       -2.48170
C         -0.17780      -12.12270       -2.70400
Cl         1.28620      -12.74190       -3.36090
C         -1.22330      -12.99230       -2.38690
F         -1.06400      -14.30390       -2.60040
C         -2.42710      -12.55440       -1.85590
C         -2.58260      -11.19500       -1.63480
C         -3.69810      -10.41810       -1.09440
C         -4.90470      -10.94230       -0.70720
C         -5.22630      -12.31480       -0.77310
N         -5.55250      -13.41480       -0.79890
C         -6.00010      -10.21320       -0.19870
N         -6.93990       -9.70220        0.22020
C         -3.71850       -6.62470       -0.44580
C         -4.59310       -5.72560        0.17710
C         -4.08440       -4.44580        0.22020
S         -4.64800       -2.93780        0.89210
C         -3.17780       -2.17660        0.37530
C         -2.58350       -0.88820        0.51810
C         -1.31150       -0.95220       -0.06780
C         -1.05540       -2.31140       -0.68730
C          0.12610       -3.06990       -0.11390
C          0.57760       -4.20490       -0.77720
C          1.61550       -4.95220       -0.25770
C          2.23100       -4.58590        0.93300
C          3.33220       -5.42560        1.51310
C          2.74770       -6.56030        2.35660
C          1.76910       -3.45700        1.59490
C          0.72410       -2.70750        1.08340
C         -0.91110       -2.11160       -2.18790
C         -2.00060       -2.21980       -3.03980
C         -1.85240       -2.00040       -4.39690
C         -0.61940       -1.65870       -4.93540
C         -0.47600       -1.37830       -6.40320
C         -0.81450        0.08340       -6.70320
C          0.46450       -1.53820       -4.07540
C          0.32360       -1.76190       -2.71930
C         -2.31530       -3.03190       -0.30070
C         -2.81230       -4.32690       -0.38560
S         -2.24660       -5.83060       -0.99980
C         -0.47110        0.14240       -0.04930
C         -0.87310        1.30350        0.59640
C         -0.03130        2.45140        0.64780
C         -0.36990        3.61990        1.29920
C         -1.61960        3.73830        2.13010
C         -2.56770        2.57390        1.88980
C         -2.16000        1.40340        1.20940
C         -3.04860        0.29520        1.14240
C         -4.33090        0.39520        1.70540
C         -4.71870        1.55340        2.32360
C         -3.83550        2.62990        2.42520
C         -1.11290        3.68050        3.57490
C         -1.05850        2.47130        4.25700
C         -0.54880        2.40710        5.54080
C         -0.06870        3.54210        6.17880
C          0.52190        3.46340        7.55650
C          2.02720        3.20050        7.47780
C         -0.10290        4.74490        5.48610
C         -0.61360        4.81460        4.20390
C         -2.34520        5.03060        1.78710
C         -3.04020        5.77000        2.73560
C         -3.70710        6.92630        2.37520
C         -3.71020        7.37210        1.06070
C         -4.37820        8.66260        0.68650
C         -3.38130        9.82010        0.77800
C         -3.03980        6.61500        0.10950
C         -2.37410        5.45790        0.46510
C          0.62230        4.59560        1.12830
C          1.71570        4.16010        0.35590
S          1.51510        2.52360       -0.16780
C          2.71020        5.10510        0.16640
C          2.40280        6.30840        0.78620
S          0.83260        6.23320        1.60260
C          3.08890        7.52790        0.90730
C          4.31440        7.94400        0.45010
C          5.29700        7.19700       -0.36230
O          5.22480        6.07380       -0.81530
C          6.44590        8.11200       -0.54130
C          7.61900        7.87200       -1.22710
C          8.57460        8.87960       -1.26930
Cl        10.05920        8.65030       -2.10600
C          8.31790       10.09030       -0.62140
F          9.24190       11.05750       -0.66380
C          7.14070       10.33660        0.06760
C          6.18800        9.32960        0.10730
C          4.86630        9.26110        0.72740
C          4.28980       10.28320        1.43690
C          3.01490       10.28230        2.04280
N          1.99880       10.38640        2.56890
C          4.91140       11.52970        1.66870
N          5.35470       12.56240        1.90170
H         -4.99830       -8.23450       -0.15760
H          0.45260      -10.06270       -2.71620
H         -3.19120      -13.28100       -1.63390
H         -5.54320       -6.02700        0.58040
H          0.11750       -4.50140       -1.70810
H          1.95050       -5.83240       -0.78600
H          3.98120       -4.80860        2.13770
H          3.93500       -5.85090        0.70830
H          3.54300       -7.17150        2.77680
H          2.15150       -6.15660        3.17210
H          2.10730       -7.19310        1.74620
H          2.23100       -3.15690        2.52480
H          0.37860       -1.83650        1.62140
H         -2.97240       -2.48200       -2.64770
H         -2.70950       -2.09980       -5.04750
H         -1.14720       -2.02620       -6.97060
H          0.54780       -1.58350       -6.72160
H         -1.83540        0.30560       -6.40020
H         -0.14510        0.74610       -6.15930
H         -0.71590        0.28610       -7.76700
H          1.43340       -1.27070       -4.47220
H          1.18390       -1.68030       -2.07100
H          0.50330        0.09980       -0.51220
H         -5.00070       -0.44890        1.64390
H         -5.70570        1.63800        2.75210
H         -4.15650        3.52000        2.94280
H         -1.41970        1.56660        3.79140
H         -0.52670        1.45620        6.05390
H          0.04480        2.65820        8.11860
H          0.34840        4.40150        8.08720
H          2.45780        3.15400        8.47530
H          2.22090        2.25770        6.97100
H          2.52130        3.99480        6.92270
H          0.27200        5.64320        5.95510
H         -0.63100        5.76710        3.69700
H         -3.05650        5.45140        3.76780
H         -4.23440        7.49100        3.13070
H         -5.21650        8.85520        1.35880
H         -4.76440        8.59900       -0.33290
H         -2.54790        9.65710        0.09840
H         -3.86400       10.75900        0.51750
H         -2.98570        9.90060        1.78780
H         -3.04090        6.93240       -0.92350
H         -1.87170        4.87880       -0.29750
H          3.61570        4.94550       -0.38850
H          2.53370        8.25660        1.48560
H          7.78500        6.92520       -1.71580
H          7.01070       11.29450        0.54340
