
  xtb     02012220493D
 energy: -133.348309081606 gnorm: 0.000798704144 xtb: 6.4.1 (unknown)
 60 67  0     0  0            999 V2000
    3.0504   -1.7813    2.9537 C   0  0  0  0  0  0  0  0  0  0  0  0
    2.7590   -2.9130    3.6355 C   0  0  0  0  0  0  0  0  0  0  0  0
    1.6315   -3.8290    3.2984 C   0  0  0  0  0  0  0  0  0  0  0  0
    0.8929   -3.7754    2.3438 O   0  0  0  0  0  0  0  0  0  0  0  0
    1.6898   -4.9066    4.3091 C   0  0  0  0  0  0  0  0  0  0  0  0
    0.8346   -5.9804    4.4575 C   0  0  0  0  0  0  0  0  0  0  0  0
    1.0885   -6.8918    5.4749 C   0  0  0  0  0  0  0  0  0  0  0  0
    0.0593   -8.2449    5.7222 Cl  0  0  0  0  0  0  0  0  0  0  0  0
    2.1988   -6.6992    6.3035 C   0  0  0  0  0  0  0  0  0  0  0  0
    2.4393   -7.5813    7.2788 F   0  0  0  0  0  0  0  0  0  0  0  0
    3.0658   -5.6292    6.1555 C   0  0  0  0  0  0  0  0  0  0  0  0
    2.8065   -4.7170    5.1419 C   0  0  0  0  0  0  0  0  0  0  0  0
    3.5110   -3.5061    4.7346 C   0  0  0  0  0  0  0  0  0  0  0  0
    4.6451   -3.0100    5.3146 C   0  0  0  0  0  0  0  0  0  0  0  0
    5.3122   -1.8271    4.9257 C   0  0  0  0  0  0  0  0  0  0  0  0
    5.9106   -0.8810    4.6723 N   0  0  0  0  0  0  0  0  0  0  0  0
    5.3163   -3.6242    6.3957 C   0  0  0  0  0  0  0  0  0  0  0  0
    5.9086   -4.0755    7.2681 N   0  0  0  0  0  0  0  0  0  0  0  0
    2.1644   -1.1516    2.0038 C   0  0  0  0  0  0  0  0  0  0  0  0
    2.6306   -0.6214    0.8220 C   0  0  0  0  0  0  0  0  0  0  0  0
    1.7749   -0.0372   -0.1338 C   0  0  0  0  0  0  0  0  0  0  0  0
    0.3853    0.0866    0.0790 C   0  0  0  0  0  0  0  0  0  0  0  0
   -0.1070   -0.4093    1.3184 C   0  0  0  0  0  0  0  0  0  0  0  0
   -1.3614   -0.3652    1.7523 N   0  0  0  0  0  0  0  0  0  0  0  0
   -1.4226   -0.9970    3.2279 S   0  0  0  0  0  0  0  0  0  0  0  0
    0.1362   -1.3576    3.3920 N   0  0  0  0  0  0  0  0  0  0  0  0
    0.7730   -1.0137    2.2774 C   0  0  0  0  0  0  0  0  0  0  0  0
   -0.4733    0.6853   -0.8658 C   0  0  0  0  0  0  0  0  0  0  0  0
   -0.0151    1.1819   -2.0667 C   0  0  0  0  0  0  0  0  0  0  0  0
    1.3769    1.0309   -2.3414 C   0  0  0  0  0  0  0  0  0  0  0  0
    2.0155    1.4149   -3.4415 N   0  0  0  0  0  0  0  0  0  0  0  0
    3.5782    1.0608   -3.2863 S   0  0  0  0  0  0  0  0  0  0  0  0
    3.5204    0.4142   -1.8137 N   0  0  0  0  0  0  0  0  0  0  0  0
    2.2647    0.4438   -1.3802 C   0  0  0  0  0  0  0  0  0  0  0  0
   -0.8457    1.7730   -3.0805 C   0  0  0  0  0  0  0  0  0  0  0  0
   -1.9226    2.5747   -2.8951 C   0  0  0  0  0  0  0  0  0  0  0  0
   -2.2768    3.2731   -1.6231 C   0  0  0  0  0  0  0  0  0  0  0  0
   -1.8346    3.0705   -0.5174 O   0  0  0  0  0  0  0  0  0  0  0  0
   -3.2315    4.3280   -2.0196 C   0  0  0  0  0  0  0  0  0  0  0  0
   -3.8213    5.3147   -1.2430 C   0  0  0  0  0  0  0  0  0  0  0  0
   -3.4879    5.4365    0.4345 Cl  0  0  0  0  0  0  0  0  0  0  0  0
   -4.6977    6.2112   -1.8511 C   0  0  0  0  0  0  0  0  0  0  0  0
   -4.9634    6.1167   -3.2062 C   0  0  0  0  0  0  0  0  0  0  0  0
   -4.3796    5.1339   -3.9965 C   0  0  0  0  0  0  0  0  0  0  0  0
   -3.5130    4.2352   -3.3969 C   0  0  0  0  0  0  0  0  0  0  0  0
   -2.7640    3.1132   -3.9527 C   0  0  0  0  0  0  0  0  0  0  0  0
   -2.8985    2.5969   -5.2108 C   0  0  0  0  0  0  0  0  0  0  0  0
   -2.2370    1.4377   -5.6758 C   0  0  0  0  0  0  0  0  0  0  0  0
   -1.7593    0.4913   -6.1151 N   0  0  0  0  0  0  0  0  0  0  0  0
   -3.7566    3.1260   -6.1995 C   0  0  0  0  0  0  0  0  0  0  0  0
   -4.4281    3.5149   -7.0448 N   0  0  0  0  0  0  0  0  0  0  0  0
    4.0002   -1.2857    3.1074 H   0  0  0  0  0  0  0  0  0  0  0  0
   -0.0104   -6.1033    3.7989 H   0  0  0  0  0  0  0  0  0  0  0  0
    3.9051   -5.5436    6.8262 H   0  0  0  0  0  0  0  0  0  0  0  0
    3.6796   -0.6887    0.5747 H   0  0  0  0  0  0  0  0  0  0  0  0
   -1.5222    0.7190   -0.6214 H   0  0  0  0  0  0  0  0  0  0  0  0
   -0.5007    1.5882   -4.0914 H   0  0  0  0  0  0  0  0  0  0  0  0
   -5.1642    6.9789   -1.2547 H   0  0  0  0  0  0  0  0  0  0  0  0
   -5.6401    6.8239   -3.6607 H   0  0  0  0  0  0  0  0  0  0  0  0
   -4.5988    5.0878   -5.0503 H   0  0  0  0  0  0  0  0  0  0  0  0
  1  2  2  0  0  0  0
  2  3  1  0  0  0  0
  3  4  2  0  0  0  0
  3  5  1  0  0  0  0
  5  6  2  0  0  0  0
  6  7  1  0  0  0  0
  7  8  1  0  0  0  0
  7  9  2  0  0  0  0
  9 10  1  0  0  0  0
  9 11  1  0  0  0  0
 11 12  2  0  0  0  0
 12 13  1  0  0  0  0
 13 14  2  0  0  0  0
 14 15  1  0  0  0  0
 15 16  3  0  0  0  0
 14 17  1  0  0  0  0
 17 18  3  0  0  0  0
  1 19  1  0  0  0  0
 19 20  2  0  0  0  0
 20 21  1  0  0  0  0
 21 22  2  0  0  0  0
 22 23  1  0  0  0  0
 23 24  2  0  0  0  0
 24 25  1  0  0  0  0
 25 26  1  0  0  0  0
 26 27  2  0  0  0  0
 22 28  1  0  0  0  0
 28 29  2  0  0  0  0
 29 30  1  0  0  0  0
 30 31  2  0  0  0  0
 31 32  1  0  0  0  0
 32 33  1  0  0  0  0
 33 34  2  0  0  0  0
 29 35  1  0  0  0  0
 35 36  2  0  0  0  0
 36 37  1  0  0  0  0
 37 38  2  0  0  0  0
 37 39  1  0  0  0  0
 39 40  2  0  0  0  0
 40 41  1  0  0  0  0
 40 42  1  0  0  0  0
 42 43  2  0  0  0  0
 43 44  1  0  0  0  0
 44 45  2  0  0  0  0
 45 46  1  0  0  0  0
 46 47  2  0  0  0  0
 47 48  1  0  0  0  0
 48 49  3  0  0  0  0
 47 50  1  0  0  0  0
 50 51  3  0  0  0  0
 13  2  1  0  0  0  0
 27 19  1  0  0  0  0
 34 30  1  0  0  0  0
 46 36  1  0  0  0  0
 12  5  1  0  0  0  0
 34 21  1  0  0  0  0
 45 39  1  0  0  0  0
 27 23  1  0  0  0  0
  1 52  1  0  0  0  0
  6 53  1  0  0  0  0
 11 54  1  0  0  0  0
 20 55  1  0  0  0  0
 28 56  1  0  0  0  0
 35 57  1  0  0  0  0
 42 58  1  0  0  0  0
 43 59  1  0  0  0  0
 44 60  1  0  0  0  0
M  END
