63

C         -1.86150       -2.87990       -3.23630
C         -1.57510       -2.08630       -4.29960
C         -0.54100       -1.01450       -4.34190
O          0.05300       -0.50050       -3.42440
C         -0.32470       -0.74670       -5.78210
C          0.58780        0.11790       -6.35350
C          0.62660        0.21450       -7.73890
Cl         1.73540        1.27230       -8.51630
C         -0.24950       -0.56220       -8.50410
F         -0.20060       -0.46930       -9.83700
C         -1.16860       -1.43040       -7.93790
C         -1.20650       -1.52220       -6.55420
C         -2.03910       -2.31820       -5.66160
C         -3.11910       -3.07190       -6.02770
C         -3.98050       -3.73760       -5.12670
N         -4.74160       -4.27890       -4.46010
C         -3.54300       -3.24200       -7.36400
N         -3.92630       -3.41790       -8.43070
C         -1.47920       -2.69460       -1.86520
C         -1.37040       -1.47660       -1.22780
C         -1.03140       -1.36720        0.13600
C         -0.76150       -2.49350        0.94250
C         -0.89490       -3.76190        0.31220
N         -0.72160       -4.95610        0.86890
S         -1.00230       -6.09170       -0.23540
N         -1.34880       -5.12360       -1.47450
C         -1.26700       -3.86100       -1.06930
C         -0.38580       -2.37410        2.29660
C         -0.22360       -1.15410        2.91120
C         -0.55240        0.00700        2.15430
N         -0.58770        1.26300        2.58740
S         -1.03950        2.21520        1.37290
N         -1.24130        1.08220        0.25120
C         -0.95210       -0.10080        0.78050
C          0.20780       -1.04560        4.28710
C          1.09470       -0.13050        4.73420
C          1.93980        0.72850        3.85050
O          2.09370        0.62730        2.65570
C          2.64810        1.64550        4.76150
C          3.50050        2.68430        4.43860
C          4.08350        3.43230        5.45420
C          5.00550        4.57390        5.18200
C          3.77600        3.08040        6.77210
F          4.33600        3.79860        7.76110
C          2.93430        2.03930        7.12360
C          2.35840        1.30690        6.09510
C          1.44360        0.17180        6.11820
C          0.99420       -0.46980        7.23770
C          0.11920       -1.57830        7.24700
N         -0.58150       -2.48300        7.33530
C          1.36520       -0.11820        8.55500
N          1.62740        0.11680        9.64680
H         -2.38640       -3.81140       -3.41560
H          1.25090        0.70210       -5.73550
H         -1.81230       -2.00460       -8.58420
H         -1.57340       -0.55940       -1.75520
H         -0.17610       -3.28520        2.83670
H         -0.23850       -1.75260        4.97440
H          3.70310        2.90800        3.40230
H          5.16470        4.69790        4.11510
H          5.96470        4.40680        5.67090
H          4.59200        5.49530        5.59110
H          2.75550        1.83490        8.16620
