
  xtb     02012215503D
 energy: -226.610900441362 gnorm: 0.000408572713 xtb: 6.4.1 (unknown)
113128  0     0  0            999 V2000
   -8.9996    0.2533    5.8170 C   0  0  0  0  0  0  0  0  0  0  0  0
   -9.3388    1.2460    6.7006 C   0  0  0  0  0  0  0  0  0  0  0  0
   -8.5135    2.4120    7.0402 C   0  0  0  0  0  0  0  0  0  0  0  0
   -7.4131    2.6990    6.6115 O   0  0  0  0  0  0  0  0  0  0  0  0
   -9.2949    3.1872    8.0274 C   0  0  0  0  0  0  0  0  0  0  0  0
   -8.9510    4.3679    8.6530 C   0  0  0  0  0  0  0  0  0  0  0  0
   -9.8532    4.9226    9.5531 C   0  0  0  0  0  0  0  0  0  0  0  0
   -9.4902    6.3922   10.3685 Cl  0  0  0  0  0  0  0  0  0  0  0  0
  -11.0666    4.2732    9.7922 C   0  0  0  0  0  0  0  0  0  0  0  0
  -11.9318    4.8124   10.6593 F   0  0  0  0  0  0  0  0  0  0  0  0
  -11.4171    3.0865    9.1669 C   0  0  0  0  0  0  0  0  0  0  0  0
  -10.5157    2.5347    8.2698 C   0  0  0  0  0  0  0  0  0  0  0  0
  -10.5739    1.3200    7.4577 C   0  0  0  0  0  0  0  0  0  0  0  0
  -11.6228    0.4373    7.4377 C   0  0  0  0  0  0  0  0  0  0  0  0
  -12.7957    0.5871    8.2084 C   0  0  0  0  0  0  0  0  0  0  0  0
  -13.7755    0.6480    8.8032 N   0  0  0  0  0  0  0  0  0  0  0  0
  -11.7034   -0.7383    6.6619 C   0  0  0  0  0  0  0  0  0  0  0  0
  -11.8561   -1.7104    6.0691 N   0  0  0  0  0  0  0  0  0  0  0  0
   -7.8526    0.0844    5.0254 C   0  0  0  0  0  0  0  0  0  0  0  0
   -6.4586    1.1491    4.9358 S   0  0  0  0  0  0  0  0  0  0  0  0
   -5.7173    0.1194    3.7631 C   0  0  0  0  0  0  0  0  0  0  0  0
   -4.4761    0.3218    3.1487 C   0  0  0  0  0  0  0  0  0  0  0  0
   -3.4369    1.6885    3.4881 S   0  0  0  0  0  0  0  0  0  0  0  0
   -2.2963    1.0783    2.3561 C   0  0  0  0  0  0  0  0  0  0  0  0
   -1.0549    1.4410    1.8197 C   0  0  0  0  0  0  0  0  0  0  0  0
   -0.2836    2.6089    2.0047 C   0  0  0  0  0  0  0  0  0  0  0  0
    0.8967    2.7838    1.2136 C   0  0  0  0  0  0  0  0  0  0  0  0
    1.4929    3.9435    1.4410 N   0  0  0  0  0  0  0  0  0  0  0  0
    0.6420    4.7444    2.5618 S   0  0  0  0  0  0  0  0  0  0  0  0
   -0.5206    3.6427    2.7967 N   0  0  0  0  0  0  0  0  0  0  0  0
    1.3022    1.7330    0.3627 C   0  0  0  0  0  0  0  0  0  0  0  0
    2.4517    1.5932   -0.4239 C   0  0  0  0  0  0  0  0  0  0  0  0
    3.8285    2.5227   -0.8653 S   0  0  0  0  0  0  0  0  0  0  0  0
    4.4078    1.1741   -1.8196 C   0  0  0  0  0  0  0  0  0  0  0  0
    5.5903    1.1961   -2.5661 C   0  0  0  0  0  0  0  0  0  0  0  0
    6.0107    0.0958   -3.3447 C   0  0  0  0  0  0  0  0  0  0  0  0
    5.1752   -1.0483   -3.3215 C   0  0  0  0  0  0  0  0  0  0  0  0
    5.2934   -2.2288   -3.9283 N   0  0  0  0  0  0  0  0  0  0  0  0
    4.2419   -2.9003   -3.5476 N   0  0  0  0  0  0  0  0  0  0  0  0
    3.9735   -4.2243   -4.0291 C   0  0  0  0  0  0  0  0  0  0  0  0
    3.2293   -4.1684   -5.3601 C   0  0  0  0  0  0  0  0  0  0  0  0
    3.4190   -2.2789   -2.7382 N   0  0  0  0  0  0  0  0  0  0  0  0
    3.9729   -1.0746   -2.5548 C   0  0  0  0  0  0  0  0  0  0  0  0
    3.5604    0.0447   -1.7852 C   0  0  0  0  0  0  0  0  0  0  0  0
    2.4352    0.3069   -0.9719 C   0  0  0  0  0  0  0  0  0  0  0  0
    1.2984   -0.3441   -0.5649 N   0  0  0  0  0  0  0  0  0  0  0  0
    0.5712    0.5170    0.2426 C   0  0  0  0  0  0  0  0  0  0  0  0
   -0.6878    0.4169    0.9008 C   0  0  0  0  0  0  0  0  0  0  0  0
   -1.7137   -0.5144    0.8635 N   0  0  0  0  0  0  0  0  0  0  0  0
   -2.6880   -0.1162    1.7427 C   0  0  0  0  0  0  0  0  0  0  0  0
   -3.9488   -0.5706    2.1898 C   0  0  0  0  0  0  0  0  0  0  0  0
   -4.7456   -1.7055    1.8810 C   0  0  0  0  0  0  0  0  0  0  0  0
   -6.0082   -1.9193    2.5071 C   0  0  0  0  0  0  0  0  0  0  0  0
   -6.5190   -1.0036    3.4610 C   0  0  0  0  0  0  0  0  0  0  0  0
   -7.7101   -1.0091    4.1757 C   0  0  0  0  0  0  0  0  0  0  0  0
   -6.5125   -3.0548    2.0249 N   0  0  0  0  0  0  0  0  0  0  0  0
   -5.6130   -3.4803    1.1798 N   0  0  0  0  0  0  0  0  0  0  0  0
   -5.8020   -4.6710    0.4031 C   0  0  0  0  0  0  0  0  0  0  0  0
   -6.3969   -4.3333   -0.9609 C   0  0  0  0  0  0  0  0  0  0  0  0
   -4.5459   -2.7301    1.0448 N   0  0  0  0  0  0  0  0  0  0  0  0
   -1.9966   -1.5064   -0.1493 C   0  0  0  0  0  0  0  0  0  0  0  0
   -2.0994   -0.8737   -1.5354 C   0  0  0  0  0  0  0  0  0  0  0  0
    1.2015   -1.7835   -0.6655 C   0  0  0  0  0  0  0  0  0  0  0  0
    1.3089   -2.4448    0.7067 C   0  0  0  0  0  0  0  0  0  0  0  0
    7.2052    0.3247   -4.0286 C   0  0  0  0  0  0  0  0  0  0  0  0
    7.7290    1.5830   -3.7972 C   0  0  0  0  0  0  0  0  0  0  0  0
    6.7067    2.5028   -2.6870 S   0  0  0  0  0  0  0  0  0  0  0  0
    8.8946    2.2346   -4.2421 C   0  0  0  0  0  0  0  0  0  0  0  0
    9.8380    1.8801   -5.1716 C   0  0  0  0  0  0  0  0  0  0  0  0
    9.8260    0.7336   -6.1056 C   0  0  0  0  0  0  0  0  0  0  0  0
    9.0724   -0.2149   -6.1493 O   0  0  0  0  0  0  0  0  0  0  0  0
   10.9502    0.9724   -7.0399 C   0  0  0  0  0  0  0  0  0  0  0  0
   11.3217    0.2113   -8.1295 C   0  0  0  0  0  0  0  0  0  0  0  0
   12.4105    0.6300   -8.8842 C   0  0  0  0  0  0  0  0  0  0  0  0
   12.9272   -0.2688  -10.2565 Cl  0  0  0  0  0  0  0  0  0  0  0  0
   13.0867    1.7966   -8.5193 C   0  0  0  0  0  0  0  0  0  0  0  0
   14.1300    2.1989   -9.2551 F   0  0  0  0  0  0  0  0  0  0  0  0
   12.7213    2.5619   -7.4230 C   0  0  0  0  0  0  0  0  0  0  0  0
   11.6353    2.1404   -6.6708 C   0  0  0  0  0  0  0  0  0  0  0  0
   11.0032    2.6959   -5.4769 C   0  0  0  0  0  0  0  0  0  0  0  0
   11.4894    3.7556   -4.7569 C   0  0  0  0  0  0  0  0  0  0  0  0
   12.6397    4.4901   -5.1181 C   0  0  0  0  0  0  0  0  0  0  0  0
   13.5613    5.1312   -5.3564 N   0  0  0  0  0  0  0  0  0  0  0  0
   10.9647    4.2516   -3.5434 C   0  0  0  0  0  0  0  0  0  0  0  0
   10.6278    4.7106   -2.5460 N   0  0  0  0  0  0  0  0  0  0  0  0
   -9.7192   -0.5455    5.6842 H   0  0  0  0  0  0  0  0  0  0  0  0
   -8.0060    4.8444    8.4461 H   0  0  0  0  0  0  0  0  0  0  0  0
  -12.3699    2.6395    9.3985 H   0  0  0  0  0  0  0  0  0  0  0  0
    4.9329   -4.7300   -4.1525 H   0  0  0  0  0  0  0  0  0  0  0  0
    3.3738   -4.7338   -3.2724 H   0  0  0  0  0  0  0  0  0  0  0  0
    3.0380   -5.1757   -5.7184 H   0  0  0  0  0  0  0  0  0  0  0  0
    3.8275   -3.6408   -6.0985 H   0  0  0  0  0  0  0  0  0  0  0  0
    2.2800   -3.6515   -5.2410 H   0  0  0  0  0  0  0  0  0  0  0  0
   -8.4541   -1.7800    4.0830 H   0  0  0  0  0  0  0  0  0  0  0  0
   -6.4759   -5.3193    0.9654 H   0  0  0  0  0  0  0  0  0  0  0  0
   -4.8283   -5.1517    0.2865 H   0  0  0  0  0  0  0  0  0  0  0  0
   -7.3622   -3.8482   -0.8394 H   0  0  0  0  0  0  0  0  0  0  0  0
   -6.5328   -5.2425   -1.5393 H   0  0  0  0  0  0  0  0  0  0  0  0
   -5.7335   -3.6657   -1.5057 H   0  0  0  0  0  0  0  0  0  0  0  0
   -2.9519   -1.9636    0.1141 H   0  0  0  0  0  0  0  0  0  0  0  0
   -1.2493   -2.2988   -0.1235 H   0  0  0  0  0  0  0  0  0  0  0  0
   -2.3025   -1.6416   -2.2773 H   0  0  0  0  0  0  0  0  0  0  0  0
   -1.1825   -0.3561   -1.8084 H   0  0  0  0  0  0  0  0  0  0  0  0
   -2.9130   -0.1520   -1.5539 H   0  0  0  0  0  0  0  0  0  0  0  0
    0.2833   -2.0681   -1.1782 H   0  0  0  0  0  0  0  0  0  0  0  0
    2.0300   -2.1125   -1.2948 H   0  0  0  0  0  0  0  0  0  0  0  0
    0.5282   -2.0986    1.3802 H   0  0  0  0  0  0  0  0  0  0  0  0
    1.2297   -3.5238    0.6034 H   0  0  0  0  0  0  0  0  0  0  0  0
    2.2713   -2.2112    1.1565 H   0  0  0  0  0  0  0  0  0  0  0  0
    7.6669   -0.4011   -4.6718 H   0  0  0  0  0  0  0  0  0  0  0  0
    9.0421    3.1977   -3.7672 H   0  0  0  0  0  0  0  0  0  0  0  0
   10.7774   -0.6837   -8.3852 H   0  0  0  0  0  0  0  0  0  0  0  0
   13.2858    3.4521   -7.1995 H   0  0  0  0  0  0  0  0  0  0  0  0
  1  2  2  0  0  0  0
  2  3  1  0  0  0  0
  3  4  2  0  0  0  0
  3  5  1  0  0  0  0
  5  6  2  0  0  0  0
  6  7  1  0  0  0  0
  7  8  1  0  0  0  0
  7  9  2  0  0  0  0
  9 10  1  0  0  0  0
  9 11  1  0  0  0  0
 11 12  2  0  0  0  0
 12 13  1  0  0  0  0
 13 14  2  0  0  0  0
 14 15  1  0  0  0  0
 15 16  3  0  0  0  0
 14 17  1  0  0  0  0
 17 18  3  0  0  0  0
  1 19  1  0  0  0  0
 19 20  1  0  0  0  0
 20 21  1  0  0  0  0
 21 22  1  0  0  0  0
 22 23  1  0  0  0  0
 23 24  1  0  0  0  0
 24 25  1  0  0  0  0
 25 26  1  0  0  0  0
 26 27  1  0  0  0  0
 27 28  2  0  0  0  0
 28 29  1  0  0  0  0
 29 30  1  0  0  0  0
 27 31  1  0  0  0  0
 31 32  1  0  0  0  0
 32 33  1  0  0  0  0
 33 34  1  0  0  0  0
 34 35  1  0  0  0  0
 35 36  2  0  0  0  0
 36 37  1  0  0  0  0
 37 38  2  0  0  0  0
 38 39  1  0  0  0  0
 39 40  1  0  0  0  0
 40 41  1  0  0  0  0
 39 42  1  0  0  0  0
 42 43  2  0  0  0  0
 43 44  1  0  0  0  0
 44 45  1  0  0  0  0
 45 46  1  0  0  0  0
 46 47  1  0  0  0  0
 47 48  1  0  0  0  0
 48 49  1  0  0  0  0
 49 50  1  0  0  0  0
 50 51  1  0  0  0  0
 51 52  1  0  0  0  0
 52 53  1  0  0  0  0
 53 54  1  0  0  0  0
 54 55  1  0  0  0  0
 53 56  2  0  0  0  0
 56 57  1  0  0  0  0
 57 58  1  0  0  0  0
 58 59  1  0  0  0  0
 57 60  1  0  0  0  0
 49 61  1  0  0  0  0
 61 62  1  0  0  0  0
 46 63  1  0  0  0  0
 63 64  1  0  0  0  0
 36 65  1  0  0  0  0
 65 66  2  0  0  0  0
 66 67  1  0  0  0  0
 66 68  1  0  0  0  0
 68 69  2  0  0  0  0
 69 70  1  0  0  0  0
 70 71  2  0  0  0  0
 70 72  1  0  0  0  0
 72 73  2  0  0  0  0
 73 74  1  0  0  0  0
 74 75  1  0  0  0  0
 74 76  2  0  0  0  0
 76 77  1  0  0  0  0
 76 78  1  0  0  0  0
 78 79  2  0  0  0  0
 79 80  1  0  0  0  0
 80 81  2  0  0  0  0
 81 82  1  0  0  0  0
 82 83  3  0  0  0  0
 81 84  1  0  0  0  0
 84 85  3  0  0  0  0
 13  2  1  0  0  0  0
 55 19  2  0  0  0  0
 80 69  1  0  0  0  0
 12  5  1  0  0  0  0
 54 21  2  0  0  0  0
 79 72  1  0  0  0  0
 51 22  2  0  0  0  0
 60 52  2  0  0  0  0
 50 24  2  0  0  0  0
 48 25  2  0  0  0  0
 30 26  2  0  0  0  0
 47 31  2  0  0  0  0
 45 32  2  0  0  0  0
 44 34  2  0  0  0  0
 67 35  1  0  0  0  0
 43 37  1  0  0  0  0
  1 86  1  0  0  0  0
  6 87  1  0  0  0  0
 11 88  1  0  0  0  0
 40 89  1  0  0  0  0
 40 90  1  0  0  0  0
 41 91  1  0  0  0  0
 41 92  1  0  0  0  0
 41 93  1  0  0  0  0
 55 94  1  0  0  0  0
 58 95  1  0  0  0  0
 58 96  1  0  0  0  0
 59 97  1  0  0  0  0
 59 98  1  0  0  0  0
 59 99  1  0  0  0  0
 61100  1  0  0  0  0
 61101  1  0  0  0  0
 62102  1  0  0  0  0
 62103  1  0  0  0  0
 62104  1  0  0  0  0
 63105  1  0  0  0  0
 63106  1  0  0  0  0
 64107  1  0  0  0  0
 64108  1  0  0  0  0
 64109  1  0  0  0  0
 65110  1  0  0  0  0
 68111  1  0  0  0  0
 73112  1  0  0  0  0
 78113  1  0  0  0  0
M  END
