
  xtb     02012218473D
 energy: -232.159913059080 gnorm: 0.000242293523 xtb: 6.4.1 (unknown)
119135  0     0  0            999 V2000
   -3.9218   -1.5822   -9.6102 C   0  0  0  0  0  0  0  0  0  0  0  0
   -5.0997   -2.2102   -9.9274 C   0  0  0  0  0  0  0  0  0  0  0  0
   -6.1759   -2.5431   -8.9860 C   0  0  0  0  0  0  0  0  0  0  0  0
   -6.2195   -2.3228   -7.7916 O   0  0  0  0  0  0  0  0  0  0  0  0
   -7.2233   -3.2107   -9.7881 C   0  0  0  0  0  0  0  0  0  0  0  0
   -8.4350   -3.7145   -9.3620 C   0  0  0  0  0  0  0  0  0  0  0  0
   -9.2687   -4.3066  -10.3034 C   0  0  0  0  0  0  0  0  0  0  0  0
  -10.7928   -4.9558   -9.8426 Cl  0  0  0  0  0  0  0  0  0  0  0  0
   -8.8567   -4.3714  -11.6363 C   0  0  0  0  0  0  0  0  0  0  0  0
   -9.6638   -4.9427  -12.5384 F   0  0  0  0  0  0  0  0  0  0  0  0
   -7.6403   -3.8668  -12.0699 C   0  0  0  0  0  0  0  0  0  0  0  0
   -6.8101   -3.2767  -11.1296 C   0  0  0  0  0  0  0  0  0  0  0  0
   -5.4892   -2.6606  -11.2496 C   0  0  0  0  0  0  0  0  0  0  0  0
   -4.7765   -2.5511  -12.4159 C   0  0  0  0  0  0  0  0  0  0  0  0
   -5.2309   -3.0224  -13.6662 C   0  0  0  0  0  0  0  0  0  0  0  0
   -5.5371   -3.3818  -14.7124 N   0  0  0  0  0  0  0  0  0  0  0  0
   -3.5013   -1.9645  -12.5573 C   0  0  0  0  0  0  0  0  0  0  0  0
   -2.4678   -1.5087  -12.7670 N   0  0  0  0  0  0  0  0  0  0  0  0
   -3.4317   -1.1251   -8.3773 C   0  0  0  0  0  0  0  0  0  0  0  0
   -4.2286   -1.2284   -6.8153 S   0  0  0  0  0  0  0  0  0  0  0  0
   -2.8742   -0.4791   -6.0480 C   0  0  0  0  0  0  0  0  0  0  0  0
   -2.7382   -0.2162   -4.6806 C   0  0  0  0  0  0  0  0  0  0  0  0
   -3.9426   -0.6444   -3.4843 S   0  0  0  0  0  0  0  0  0  0  0  0
   -2.9157   -0.0235   -2.2526 C   0  0  0  0  0  0  0  0  0  0  0  0
   -2.8732    0.0353   -0.8534 C   0  0  0  0  0  0  0  0  0  0  0  0
   -3.6973   -0.5613    0.1274 C   0  0  0  0  0  0  0  0  0  0  0  0
   -3.2263   -0.6177    1.4826 C   0  0  0  0  0  0  0  0  0  0  0  0
   -4.0448   -1.2925    2.2739 N   0  0  0  0  0  0  0  0  0  0  0  0
   -5.3052   -1.8023    1.3952 S   0  0  0  0  0  0  0  0  0  0  0  0
   -4.8502   -1.1903   -0.0330 N   0  0  0  0  0  0  0  0  0  0  0  0
   -2.0252    0.0466    1.8150 C   0  0  0  0  0  0  0  0  0  0  0  0
   -1.3188    0.1608    3.0238 C   0  0  0  0  0  0  0  0  0  0  0  0
   -1.3718   -0.4682    4.6253 S   0  0  0  0  0  0  0  0  0  0  0  0
    0.1062    0.3958    4.9994 C   0  0  0  0  0  0  0  0  0  0  0  0
    0.8051    0.2895    6.2066 C   0  0  0  0  0  0  0  0  0  0  0  0
    2.0388    0.9380    6.4199 C   0  0  0  0  0  0  0  0  0  0  0  0
    2.5102    1.7697    5.3746 C   0  0  0  0  0  0  0  0  0  0  0  0
    3.5970    2.5363    5.2835 N   0  0  0  0  0  0  0  0  0  0  0  0
    3.5324    3.0545    4.0871 N   0  0  0  0  0  0  0  0  0  0  0  0
    4.5539    3.9279    3.5863 C   0  0  0  0  0  0  0  0  0  0  0  0
    5.7162    3.1218    3.0143 C   0  0  0  0  0  0  0  0  0  0  0  0
    2.5033    2.7030    3.3552 N   0  0  0  0  0  0  0  0  0  0  0  0
    1.8027    1.8778    4.1411 C   0  0  0  0  0  0  0  0  0  0  0  0
    0.5937    1.1700    3.9258 C   0  0  0  0  0  0  0  0  0  0  0  0
   -0.2380    1.0156    2.7987 C   0  0  0  0  0  0  0  0  0  0  0  0
   -0.2409    1.4395    1.4902 N   0  0  0  0  0  0  0  0  0  0  0  0
   -1.3037    0.8088    0.8567 C   0  0  0  0  0  0  0  0  0  0  0  0
   -1.6515    0.6802   -0.5135 C   0  0  0  0  0  0  0  0  0  0  0  0
   -0.9661    0.9568   -1.6777 N   0  0  0  0  0  0  0  0  0  0  0  0
   -1.7180    0.5185   -2.7360 C   0  0  0  0  0  0  0  0  0  0  0  0
   -1.5870    0.3932   -4.1359 C   0  0  0  0  0  0  0  0  0  0  0  0
   -0.5455    0.7053   -5.0504 C   0  0  0  0  0  0  0  0  0  0  0  0
   -0.6776    0.4368   -6.4445 C   0  0  0  0  0  0  0  0  0  0  0  0
   -1.8519   -0.1593   -6.9693 C   0  0  0  0  0  0  0  0  0  0  0  0
   -2.1799   -0.5252   -8.2684 C   0  0  0  0  0  0  0  0  0  0  0  0
    0.4562    0.8095   -7.0380 N   0  0  0  0  0  0  0  0  0  0  0  0
    1.2020    1.2589   -6.0638 N   0  0  0  0  0  0  0  0  0  0  0  0
    2.5115    1.7968   -6.2942 C   0  0  0  0  0  0  0  0  0  0  0  0
    2.4604    3.3190   -6.3835 C   0  0  0  0  0  0  0  0  0  0  0  0
    0.6723    1.2252   -4.8659 N   0  0  0  0  0  0  0  0  0  0  0  0
    0.3761    1.4588   -1.8451 C   0  0  0  0  0  0  0  0  0  0  0  0
    0.3768    2.9176   -2.3078 C   0  0  0  0  0  0  0  0  0  0  0  0
    0.2725    2.7646    1.2015 C   0  0  0  0  0  0  0  0  0  0  0  0
   -0.5955    3.8342    1.8658 C   0  0  0  0  0  0  0  0  0  0  0  0
    2.6351    0.5996    7.6392 C   0  0  0  0  0  0  0  0  0  0  0  0
    1.8823   -0.2865    8.3795 C   0  0  0  0  0  0  0  0  0  0  0  0
    0.3649   -0.6728    7.5696 S   0  0  0  0  0  0  0  0  0  0  0  0
    2.1218   -0.9011    9.6283 C   0  0  0  0  0  0  0  0  0  0  0  0
    3.3238   -1.1926   10.2098 C   0  0  0  0  0  0  0  0  0  0  0  0
    4.6460   -1.1983    9.5366 C   0  0  0  0  0  0  0  0  0  0  0  0
    4.9678   -0.6751    8.4917 O   0  0  0  0  0  0  0  0  0  0  0  0
    5.5089   -2.0445   10.3850 C   0  0  0  0  0  0  0  0  0  0  0  0
    6.7865   -2.4600   10.1449 C   0  0  0  0  0  0  0  0  0  0  0  0
    7.4244   -3.3011   11.0836 C   0  0  0  0  0  0  0  0  0  0  0  0
    8.7381   -3.7704   10.8792 C   0  0  0  0  0  0  0  0  0  0  0  0
    9.3408   -4.5952   11.7877 C   0  0  0  0  0  0  0  0  0  0  0  0
    8.6320   -4.9702   12.9371 C   0  0  0  0  0  0  0  0  0  0  0  0
    9.2413   -5.7836   13.8191 F   0  0  0  0  0  0  0  0  0  0  0  0
    7.3576   -4.5420   13.1853 C   0  0  0  0  0  0  0  0  0  0  0  0
    6.7204   -3.6932   12.2593 C   0  0  0  0  0  0  0  0  0  0  0  0
    5.3996   -3.2394   12.4847 C   0  0  0  0  0  0  0  0  0  0  0  0
    4.8023   -2.4260   11.5593 C   0  0  0  0  0  0  0  0  0  0  0  0
    3.4719   -1.8317   11.5044 C   0  0  0  0  0  0  0  0  0  0  0  0
    2.5596   -1.8074   12.5259 C   0  0  0  0  0  0  0  0  0  0  0  0
    1.3267   -1.1224   12.4783 C   0  0  0  0  0  0  0  0  0  0  0  0
    0.3236   -0.5651   12.5159 N   0  0  0  0  0  0  0  0  0  0  0  0
    2.7676   -2.4199   13.7787 C   0  0  0  0  0  0  0  0  0  0  0  0
    2.8842   -2.9051   14.8126 N   0  0  0  0  0  0  0  0  0  0  0  0
   -3.2317   -1.4034  -10.4260 H   0  0  0  0  0  0  0  0  0  0  0  0
   -8.7233   -3.6487   -8.3251 H   0  0  0  0  0  0  0  0  0  0  0  0
   -7.3858   -3.9507  -13.1137 H   0  0  0  0  0  0  0  0  0  0  0  0
    4.8965    4.5461    4.4184 H   0  0  0  0  0  0  0  0  0  0  0  0
    4.0999    4.5541    2.8157 H   0  0  0  0  0  0  0  0  0  0  0  0
    6.4882    3.7939    2.6511 H   0  0  0  0  0  0  0  0  0  0  0  0
    6.1398    2.4836    3.7857 H   0  0  0  0  0  0  0  0  0  0  0  0
    5.3759    2.4992    2.1902 H   0  0  0  0  0  0  0  0  0  0  0  0
   -1.5300   -0.3690   -9.1108 H   0  0  0  0  0  0  0  0  0  0  0  0
    2.8742    1.3681   -7.2296 H   0  0  0  0  0  0  0  0  0  0  0  0
    3.1522    1.4863   -5.4657 H   0  0  0  0  0  0  0  0  0  0  0  0
    1.8166    3.6259   -7.2039 H   0  0  0  0  0  0  0  0  0  0  0  0
    2.0742    3.7366   -5.4567 H   0  0  0  0  0  0  0  0  0  0  0  0
    3.4581    3.7116   -6.5567 H   0  0  0  0  0  0  0  0  0  0  0  0
    0.8629    0.8603   -2.6192 H   0  0  0  0  0  0  0  0  0  0  0  0
    0.9210    1.3190   -0.9110 H   0  0  0  0  0  0  0  0  0  0  0  0
    0.0825    2.9611   -3.3519 H   0  0  0  0  0  0  0  0  0  0  0  0
   -0.3224    3.5235   -1.7351 H   0  0  0  0  0  0  0  0  0  0  0  0
    1.3743    3.3379   -2.2130 H   0  0  0  0  0  0  0  0  0  0  0  0
    0.2810    2.9368    0.1330 H   0  0  0  0  0  0  0  0  0  0  0  0
    1.2889    2.8209    1.5987 H   0  0  0  0  0  0  0  0  0  0  0  0
   -0.2160    4.8212    1.6156 H   0  0  0  0  0  0  0  0  0  0  0  0
   -0.5814    3.7224    2.9469 H   0  0  0  0  0  0  0  0  0  0  0  0
   -1.6258    3.7574    1.5227 H   0  0  0  0  0  0  0  0  0  0  0  0
    3.5788    0.9978    7.9584 H   0  0  0  0  0  0  0  0  0  0  0  0
    1.2285   -1.2518   10.1334 H   0  0  0  0  0  0  0  0  0  0  0  0
    7.3018   -2.1560    9.2460 H   0  0  0  0  0  0  0  0  0  0  0  0
    9.2632   -3.4681    9.9856 H   0  0  0  0  0  0  0  0  0  0  0  0
   10.3435   -4.9657   11.6449 H   0  0  0  0  0  0  0  0  0  0  0  0
    6.8425   -4.8503   14.0816 H   0  0  0  0  0  0  0  0  0  0  0  0
    4.8887   -3.5591   13.3789 H   0  0  0  0  0  0  0  0  0  0  0  0
  1  2  2  0  0  0  0
  2  3  1  0  0  0  0
  3  4  2  0  0  0  0
  3  5  1  0  0  0  0
  5  6  2  0  0  0  0
  6  7  1  0  0  0  0
  7  8  1  0  0  0  0
  7  9  2  0  0  0  0
  9 10  1  0  0  0  0
  9 11  1  0  0  0  0
 11 12  2  0  0  0  0
 12 13  1  0  0  0  0
 13 14  2  0  0  0  0
 14 15  1  0  0  0  0
 15 16  3  0  0  0  0
 14 17  1  0  0  0  0
 17 18  3  0  0  0  0
  1 19  1  0  0  0  0
 19 20  1  0  0  0  0
 20 21  1  0  0  0  0
 21 22  1  0  0  0  0
 22 23  1  0  0  0  0
 23 24  1  0  0  0  0
 24 25  1  0  0  0  0
 25 26  1  0  0  0  0
 26 27  1  0  0  0  0
 27 28  2  0  0  0  0
 28 29  1  0  0  0  0
 29 30  1  0  0  0  0
 27 31  1  0  0  0  0
 31 32  1  0  0  0  0
 32 33  1  0  0  0  0
 33 34  1  0  0  0  0
 34 35  1  0  0  0  0
 35 36  2  0  0  0  0
 36 37  1  0  0  0  0
 37 38  2  0  0  0  0
 38 39  1  0  0  0  0
 39 40  1  0  0  0  0
 40 41  1  0  0  0  0
 39 42  1  0  0  0  0
 42 43  2  0  0  0  0
 43 44  1  0  0  0  0
 44 45  1  0  0  0  0
 45 46  1  0  0  0  0
 46 47  1  0  0  0  0
 47 48  1  0  0  0  0
 48 49  1  0  0  0  0
 49 50  1  0  0  0  0
 50 51  1  0  0  0  0
 51 52  1  0  0  0  0
 52 53  1  0  0  0  0
 53 54  1  0  0  0  0
 54 55  1  0  0  0  0
 53 56  2  0  0  0  0
 56 57  1  0  0  0  0
 57 58  1  0  0  0  0
 58 59  1  0  0  0  0
 57 60  1  0  0  0  0
 49 61  1  0  0  0  0
 61 62  1  0  0  0  0
 46 63  1  0  0  0  0
 63 64  1  0  0  0  0
 36 65  1  0  0  0  0
 65 66  2  0  0  0  0
 66 67  1  0  0  0  0
 66 68  1  0  0  0  0
 68 69  2  0  0  0  0
 69 70  1  0  0  0  0
 70 71  2  0  0  0  0
 70 72  1  0  0  0  0
 72 73  2  0  0  0  0
 73 74  1  0  0  0  0
 74 75  2  0  0  0  0
 75 76  1  0  0  0  0
 76 77  2  0  0  0  0
 77 78  1  0  0  0  0
 77 79  1  0  0  0  0
 79 80  2  0  0  0  0
 80 81  1  0  0  0  0
 81 82  2  0  0  0  0
 82 83  1  0  0  0  0
 83 84  2  0  0  0  0
 84 85  1  0  0  0  0
 85 86  3  0  0  0  0
 84 87  1  0  0  0  0
 87 88  3  0  0  0  0
 13  2  1  0  0  0  0
 55 19  2  0  0  0  0
 83 69  1  0  0  0  0
 12  5  1  0  0  0  0
 54 21  2  0  0  0  0
 82 72  1  0  0  0  0
 51 22  2  0  0  0  0
 60 52  2  0  0  0  0
 80 74  1  0  0  0  0
 50 24  2  0  0  0  0
 48 25  2  0  0  0  0
 30 26  2  0  0  0  0
 47 31  2  0  0  0  0
 45 32  2  0  0  0  0
 44 34  2  0  0  0  0
 67 35  1  0  0  0  0
 43 37  1  0  0  0  0
  1 89  1  0  0  0  0
  6 90  1  0  0  0  0
 11 91  1  0  0  0  0
 40 92  1  0  0  0  0
 40 93  1  0  0  0  0
 41 94  1  0  0  0  0
 41 95  1  0  0  0  0
 41 96  1  0  0  0  0
 55 97  1  0  0  0  0
 58 98  1  0  0  0  0
 58 99  1  0  0  0  0
 59100  1  0  0  0  0
 59101  1  0  0  0  0
 59102  1  0  0  0  0
 61103  1  0  0  0  0
 61104  1  0  0  0  0
 62105  1  0  0  0  0
 62106  1  0  0  0  0
 62107  1  0  0  0  0
 63108  1  0  0  0  0
 63109  1  0  0  0  0
 64110  1  0  0  0  0
 64111  1  0  0  0  0
 64112  1  0  0  0  0
 65113  1  0  0  0  0
 68114  1  0  0  0  0
 73115  1  0  0  0  0
 75116  1  0  0  0  0
 76117  1  0  0  0  0
 79118  1  0  0  0  0
 81119  1  0  0  0  0
M  END
