
  xtb     02012218263D
 energy: -183.853306341597 gnorm: 0.000621973840 xtb: 6.4.1 (unknown)
106114  0     0  0            999 V2000
    1.0549    0.4559    6.1189 C   0  0  0  0  0  0  0  0  0  0  0  0
    2.0297    0.4935    7.0861 C   0  0  0  0  0  0  0  0  0  0  0  0
    3.4825    0.2761    6.9353 C   0  0  0  0  0  0  0  0  0  0  0  0
    4.1425    0.1604    5.9233 O   0  0  0  0  0  0  0  0  0  0  0  0
    4.0183    0.2019    8.3134 C   0  0  0  0  0  0  0  0  0  0  0  0
    5.3187   -0.0426    8.7047 C   0  0  0  0  0  0  0  0  0  0  0  0
    5.6001   -0.0820   10.0647 C   0  0  0  0  0  0  0  0  0  0  0  0
    7.1980   -0.3859   10.6239 Cl  0  0  0  0  0  0  0  0  0  0  0  0
    4.5677    0.1262   10.9822 C   0  0  0  0  0  0  0  0  0  0  0  0
    4.8437    0.0816   12.2911 F   0  0  0  0  0  0  0  0  0  0  0  0
    3.2605    0.3763   10.5945 C   0  0  0  0  0  0  0  0  0  0  0  0
    2.9828    0.4143    9.2368 C   0  0  0  0  0  0  0  0  0  0  0  0
    1.7412    0.6457    8.5024 C   0  0  0  0  0  0  0  0  0  0  0  0
    0.5477    0.9968    9.0785 C   0  0  0  0  0  0  0  0  0  0  0  0
    0.3557    1.1343   10.4702 C   0  0  0  0  0  0  0  0  0  0  0  0
    0.1267    1.2570   11.5881 N   0  0  0  0  0  0  0  0  0  0  0  0
   -0.6503    1.3048    8.3987 C   0  0  0  0  0  0  0  0  0  0  0  0
   -1.6639    1.5842    7.9361 N   0  0  0  0  0  0  0  0  0  0  0  0
    1.1294    0.3298    4.7242 C   0  0  0  0  0  0  0  0  0  0  0  0
    2.1946    0.3346    3.8252 C   0  0  0  0  0  0  0  0  0  0  0  0
    1.7820    0.1587    2.5188 C   0  0  0  0  0  0  0  0  0  0  0  0
    2.4418    0.1072    1.1732 C   0  0  0  0  0  0  0  0  0  0  0  0
    3.2726    1.3736    0.9121 C   0  0  0  0  0  0  0  0  0  0  0  0
    2.4288    2.6435    0.9314 C   0  0  0  0  0  0  0  0  0  0  0  0
    3.2861   -1.1749    0.9880 C   0  0  0  0  0  0  0  0  0  0  0  0
    4.4934   -1.2886    1.9086 C   0  0  0  0  0  0  0  0  0  0  0  0
    1.2317   -0.0041    0.2635 C   0  0  0  0  0  0  0  0  0  0  0  0
    0.0339   -0.1020    1.0052 C   0  0  0  0  0  0  0  0  0  0  0  0
    0.3977    0.0272    2.3834 C   0  0  0  0  0  0  0  0  0  0  0  0
   -0.4114    0.1362    3.8824 S   0  0  0  0  0  0  0  0  0  0  0  0
   -1.2240   -0.2397    0.3872 C   0  0  0  0  0  0  0  0  0  0  0  0
   -2.3759   -0.3116    1.1195 O   0  0  0  0  0  0  0  0  0  0  0  0
   -2.5278   -1.4747    1.9343 C   0  0  0  0  0  0  0  0  0  0  0  0
   -3.5861   -1.1950    2.9872 C   0  0  0  0  0  0  0  0  0  0  0  0
   -1.2437   -0.2667   -0.9983 C   0  0  0  0  0  0  0  0  0  0  0  0
   -0.0339   -0.1957   -1.7331 C   0  0  0  0  0  0  0  0  0  0  0  0
    1.2198   -0.0426   -1.1193 C   0  0  0  0  0  0  0  0  0  0  0  0
    2.3903    0.0127   -1.8240 O   0  0  0  0  0  0  0  0  0  0  0  0
    2.5640    1.1257   -2.6963 C   0  0  0  0  0  0  0  0  0  0  0  0
    3.7014    0.8047   -3.6497 C   0  0  0  0  0  0  0  0  0  0  0  0
   -0.3674   -0.3970   -3.1073 C   0  0  0  0  0  0  0  0  0  0  0  0
   -1.7428   -0.5326   -3.2611 C   0  0  0  0  0  0  0  0  0  0  0  0
   -2.4424   -0.3503   -1.9426 C   0  0  0  0  0  0  0  0  0  0  0  0
   -3.3807   -1.5542   -1.6879 C   0  0  0  0  0  0  0  0  0  0  0  0
   -4.6051   -1.2972   -0.8156 C   0  0  0  0  0  0  0  0  0  0  0  0
   -3.1514    1.0237   -1.9040 C   0  0  0  0  0  0  0  0  0  0  0  0
   -4.1132    1.2625   -3.0618 C   0  0  0  0  0  0  0  0  0  0  0  0
   -2.1130   -0.8631   -4.5533 C   0  0  0  0  0  0  0  0  0  0  0  0
   -1.0189   -0.9864   -5.4056 C   0  0  0  0  0  0  0  0  0  0  0  0
    0.4842   -0.6466   -4.5674 S   0  0  0  0  0  0  0  0  0  0  0  0
   -0.9654   -1.2816   -6.7800 C   0  0  0  0  0  0  0  0  0  0  0  0
   -1.9095   -1.8387   -7.5955 C   0  0  0  0  0  0  0  0  0  0  0  0
   -1.7820   -1.6474   -9.0634 C   0  0  0  0  0  0  0  0  0  0  0  0
   -0.8213   -1.2193   -9.6599 O   0  0  0  0  0  0  0  0  0  0  0  0
   -3.0950   -2.0437   -9.6207 C   0  0  0  0  0  0  0  0  0  0  0  0
   -3.5411   -1.9544  -10.9234 C   0  0  0  0  0  0  0  0  0  0  0  0
   -4.8391   -2.3772  -11.1702 C   0  0  0  0  0  0  0  0  0  0  0  0
   -5.3177   -2.3085  -12.4230 F   0  0  0  0  0  0  0  0  0  0  0  0
   -5.6665   -2.8657  -10.1698 C   0  0  0  0  0  0  0  0  0  0  0  0
   -5.2030   -2.9585   -8.8661 C   0  0  0  0  0  0  0  0  0  0  0  0
   -3.9078   -2.5481   -8.5891 C   0  0  0  0  0  0  0  0  0  0  0  0
   -3.1344   -2.5618   -7.3466 C   0  0  0  0  0  0  0  0  0  0  0  0
   -3.4214   -3.3412   -6.2548 C   0  0  0  0  0  0  0  0  0  0  0  0
   -2.5241   -3.5683   -5.1925 C   0  0  0  0  0  0  0  0  0  0  0  0
   -1.8208   -3.8179   -4.3200 N   0  0  0  0  0  0  0  0  0  0  0  0
   -4.6153   -4.0738   -6.0987 C   0  0  0  0  0  0  0  0  0  0  0  0
   -5.5802   -4.6640   -5.9021 N   0  0  0  0  0  0  0  0  0  0  0  0
    0.0349    0.5021    6.4823 H   0  0  0  0  0  0  0  0  0  0  0  0
    6.0929   -0.2003    7.9709 H   0  0  0  0  0  0  0  0  0  0  0  0
    2.5128    0.5253   11.3560 H   0  0  0  0  0  0  0  0  0  0  0  0
    3.2092    0.4706    4.1486 H   0  0  0  0  0  0  0  0  0  0  0  0
    3.7695    1.2680   -0.0522 H   0  0  0  0  0  0  0  0  0  0  0  0
    4.0388    1.4486    1.6839 H   0  0  0  0  0  0  0  0  0  0  0  0
    3.0532    3.5101    0.7263 H   0  0  0  0  0  0  0  0  0  0  0  0
    1.6391    2.6018    0.1835 H   0  0  0  0  0  0  0  0  0  0  0  0
    1.9649    2.7821    1.9056 H   0  0  0  0  0  0  0  0  0  0  0  0
    3.6124   -1.2024   -0.0526 H   0  0  0  0  0  0  0  0  0  0  0  0
    2.6301   -2.0337    1.1528 H   0  0  0  0  0  0  0  0  0  0  0  0
    4.9986   -2.2329    1.7186 H   0  0  0  0  0  0  0  0  0  0  0  0
    5.2047   -0.4870    1.7312 H   0  0  0  0  0  0  0  0  0  0  0  0
    4.1968   -1.2685    2.9536 H   0  0  0  0  0  0  0  0  0  0  0  0
   -2.8344   -2.3153    1.2966 H   0  0  0  0  0  0  0  0  0  0  0  0
   -1.5776   -1.7424    2.4080 H   0  0  0  0  0  0  0  0  0  0  0  0
   -3.2846   -0.3567    3.6090 H   0  0  0  0  0  0  0  0  0  0  0  0
   -3.7183   -2.0729    3.6125 H   0  0  0  0  0  0  0  0  0  0  0  0
   -4.5334   -0.9521    2.5139 H   0  0  0  0  0  0  0  0  0  0  0  0
    1.6440    1.3361   -3.2524 H   0  0  0  0  0  0  0  0  0  0  0  0
    2.8063    2.0149   -2.0966 H   0  0  0  0  0  0  0  0  0  0  0  0
    3.8732    1.6463   -4.3141 H   0  0  0  0  0  0  0  0  0  0  0  0
    3.4541   -0.0730   -4.2401 H   0  0  0  0  0  0  0  0  0  0  0  0
    4.6094    0.6010   -3.0888 H   0  0  0  0  0  0  0  0  0  0  0  0
   -3.7229   -1.9278   -2.6550 H   0  0  0  0  0  0  0  0  0  0  0  0
   -2.7771   -2.3502   -1.2461 H   0  0  0  0  0  0  0  0  0  0  0  0
   -4.3343   -0.8003    0.1084 H   0  0  0  0  0  0  0  0  0  0  0  0
   -5.3387   -0.6848   -1.3323 H   0  0  0  0  0  0  0  0  0  0  0  0
   -5.0752   -2.2489   -0.5767 H   0  0  0  0  0  0  0  0  0  0  0  0
   -2.3815    1.7998   -1.9247 H   0  0  0  0  0  0  0  0  0  0  0  0
   -3.6740    1.1097   -0.9528 H   0  0  0  0  0  0  0  0  0  0  0  0
   -3.5720    1.3692   -3.9992 H   0  0  0  0  0  0  0  0  0  0  0  0
   -4.8229    0.4470   -3.1656 H   0  0  0  0  0  0  0  0  0  0  0  0
   -4.6710    2.1800   -2.8883 H   0  0  0  0  0  0  0  0  0  0  0  0
   -3.1260   -0.9798   -4.8944 H   0  0  0  0  0  0  0  0  0  0  0  0
   -0.0634   -0.9643   -7.2958 H   0  0  0  0  0  0  0  0  0  0  0  0
   -2.9111   -1.5762  -11.7124 H   0  0  0  0  0  0  0  0  0  0  0  0
   -6.6697   -3.1720  -10.4207 H   0  0  0  0  0  0  0  0  0  0  0  0
   -5.8537   -3.3348   -8.0936 H   0  0  0  0  0  0  0  0  0  0  0  0
  1  2  2  0  0  0  0
  2  3  1  0  0  0  0
  3  4  2  0  0  0  0
  3  5  1  0  0  0  0
  5  6  2  0  0  0  0
  6  7  1  0  0  0  0
  7  8  1  0  0  0  0
  7  9  2  0  0  0  0
  9 10  1  0  0  0  0
  9 11  1  0  0  0  0
 11 12  2  0  0  0  0
 12 13  1  0  0  0  0
 13 14  2  0  0  0  0
 14 15  1  0  0  0  0
 15 16  3  0  0  0  0
 14 17  1  0  0  0  0
 17 18  3  0  0  0  0
  1 19  1  0  0  0  0
 19 20  2  0  0  0  0
 20 21  1  0  0  0  0
 21 22  1  0  0  0  0
 22 23  1  0  0  0  0
 23 24  1  0  0  0  0
 22 25  1  0  0  0  0
 25 26  1  0  0  0  0
 22 27  1  0  0  0  0
 27 28  2  0  0  0  0
 28 29  1  0  0  0  0
 29 30  1  0  0  0  0
 28 31  1  0  0  0  0
 31 32  1  0  0  0  0
 32 33  1  0  0  0  0
 33 34  1  0  0  0  0
 31 35  2  0  0  0  0
 35 36  1  0  0  0  0
 36 37  2  0  0  0  0
 37 38  1  0  0  0  0
 38 39  1  0  0  0  0
 39 40  1  0  0  0  0
 36 41  1  0  0  0  0
 41 42  2  0  0  0  0
 42 43  1  0  0  0  0
 43 44  1  0  0  0  0
 44 45  1  0  0  0  0
 43 46  1  0  0  0  0
 46 47  1  0  0  0  0
 42 48  1  0  0  0  0
 48 49  2  0  0  0  0
 49 50  1  0  0  0  0
 49 51  1  0  0  0  0
 51 52  2  0  0  0  0
 52 53  1  0  0  0  0
 53 54  2  0  0  0  0
 53 55  1  0  0  0  0
 55 56  2  0  0  0  0
 56 57  1  0  0  0  0
 57 58  1  0  0  0  0
 57 59  2  0  0  0  0
 59 60  1  0  0  0  0
 60 61  2  0  0  0  0
 61 62  1  0  0  0  0
 62 63  2  0  0  0  0
 63 64  1  0  0  0  0
 64 65  3  0  0  0  0
 63 66  1  0  0  0  0
 66 67  3  0  0  0  0
 13  2  1  0  0  0  0
 30 19  1  0  0  0  0
 43 35  1  0  0  0  0
 62 52  1  0  0  0  0
 12  5  1  0  0  0  0
 29 21  2  0  0  0  0
 50 41  1  0  0  0  0
 61 55  1  0  0  0  0
 37 27  1  0  0  0  0
  1 68  1  0  0  0  0
  6 69  1  0  0  0  0
 11 70  1  0  0  0  0
 20 71  1  0  0  0  0
 23 72  1  0  0  0  0
 23 73  1  0  0  0  0
 24 74  1  0  0  0  0
 24 75  1  0  0  0  0
 24 76  1  0  0  0  0
 25 77  1  0  0  0  0
 25 78  1  0  0  0  0
 26 79  1  0  0  0  0
 26 80  1  0  0  0  0
 26 81  1  0  0  0  0
 33 82  1  0  0  0  0
 33 83  1  0  0  0  0
 34 84  1  0  0  0  0
 34 85  1  0  0  0  0
 34 86  1  0  0  0  0
 39 87  1  0  0  0  0
 39 88  1  0  0  0  0
 40 89  1  0  0  0  0
 40 90  1  0  0  0  0
 40 91  1  0  0  0  0
 44 92  1  0  0  0  0
 44 93  1  0  0  0  0
 45 94  1  0  0  0  0
 45 95  1  0  0  0  0
 45 96  1  0  0  0  0
 46 97  1  0  0  0  0
 46 98  1  0  0  0  0
 47 99  1  0  0  0  0
 47100  1  0  0  0  0
 47101  1  0  0  0  0
 48102  1  0  0  0  0
 51103  1  0  0  0  0
 56104  1  0  0  0  0
 59105  1  0  0  0  0
 60106  1  0  0  0  0
M  END
