
  xtb     02012216243D
 energy: -205.073078878963 gnorm: 0.000923171726 xtb: 6.4.1 (unknown)
107120  0     0  0            999 V2000
   -5.7487    3.0625   -7.5008 C   0  0  0  0  0  0  0  0  0  0  0  0
   -5.2694    3.5418   -8.6944 C   0  0  0  0  0  0  0  0  0  0  0  0
   -3.8541    3.6911   -9.0538 C   0  0  0  0  0  0  0  0  0  0  0  0
   -2.8785    3.4219   -8.3807 O   0  0  0  0  0  0  0  0  0  0  0  0
   -3.8401    4.2448  -10.4248 C   0  0  0  0  0  0  0  0  0  0  0  0
   -2.7491    4.5651  -11.2059 C   0  0  0  0  0  0  0  0  0  0  0  0
   -2.9783    5.0798  -12.4765 C   0  0  0  0  0  0  0  0  0  0  0  0
   -1.6654    5.5019  -13.5036 Cl  0  0  0  0  0  0  0  0  0  0  0  0
   -4.2924    5.2537  -12.9162 C   0  0  0  0  0  0  0  0  0  0  0  0
   -4.5073    5.7502  -14.1406 F   0  0  0  0  0  0  0  0  0  0  0  0
   -5.3924    4.9331  -12.1354 C   0  0  0  0  0  0  0  0  0  0  0  0
   -5.1618    4.4201  -10.8684 C   0  0  0  0  0  0  0  0  0  0  0  0
   -6.0773    3.9890   -9.8123 C   0  0  0  0  0  0  0  0  0  0  0  0
   -7.4457    4.0172   -9.8997 C   0  0  0  0  0  0  0  0  0  0  0  0
   -8.3503    3.6052   -8.8987 C   0  0  0  0  0  0  0  0  0  0  0  0
   -9.1592    3.2929   -8.1446 N   0  0  0  0  0  0  0  0  0  0  0  0
   -8.1551    4.4729  -11.0315 C   0  0  0  0  0  0  0  0  0  0  0  0
   -8.7940    4.8297  -11.9160 N   0  0  0  0  0  0  0  0  0  0  0  0
   -5.0710    2.6113   -6.3582 C   0  0  0  0  0  0  0  0  0  0  0  0
   -3.3324    2.5309   -6.1213 S   0  0  0  0  0  0  0  0  0  0  0  0
   -3.5541    1.9044   -4.5271 C   0  0  0  0  0  0  0  0  0  0  0  0
   -2.5424    1.5698   -3.6210 C   0  0  0  0  0  0  0  0  0  0  0  0
   -0.8276    1.7135   -3.9513 S   0  0  0  0  0  0  0  0  0  0  0  0
   -0.4833    1.1351   -2.3676 C   0  0  0  0  0  0  0  0  0  0  0  0
    0.6292    0.8853   -1.5453 C   0  0  0  0  0  0  0  0  0  0  0  0
    2.0137    1.1341   -1.6879 C   0  0  0  0  0  0  0  0  0  0  0  0
    2.8838    0.9228   -0.5595 C   0  0  0  0  0  0  0  0  0  0  0  0
    4.1333    1.2746   -0.8165 N   0  0  0  0  0  0  0  0  0  0  0  0
    4.2168    1.8131   -2.3397 S   0  0  0  0  0  0  0  0  0  0  0  0
    2.6586    1.6240   -2.7344 N   0  0  0  0  0  0  0  0  0  0  0  0
    2.3602    0.3306    0.6125 C   0  0  0  0  0  0  0  0  0  0  0  0
    2.9436   -0.1176    1.8110 C   0  0  0  0  0  0  0  0  0  0  0  0
    4.4753   -0.1031    2.5984 S   0  0  0  0  0  0  0  0  0  0  0  0
    3.7811   -0.9862    3.9411 C   0  0  0  0  0  0  0  0  0  0  0  0
    4.4822   -1.3667    5.0920 C   0  0  0  0  0  0  0  0  0  0  0  0
    3.8635   -2.0614    6.1497 C   0  0  0  0  0  0  0  0  0  0  0  0
    2.4857   -2.3571    6.0031 C   0  0  0  0  0  0  0  0  0  0  0  0
    1.6264   -2.9767    6.8139 N   0  0  0  0  0  0  0  0  0  0  0  0
    0.4913   -2.9518    6.1665 N   0  0  0  0  0  0  0  0  0  0  0  0
   -0.7131   -3.4868    6.7328 C   0  0  0  0  0  0  0  0  0  0  0  0
   -1.4815   -2.4029    7.4836 C   0  0  0  0  0  0  0  0  0  0  0  0
    0.5024   -2.3682    4.9930 N   0  0  0  0  0  0  0  0  0  0  0  0
    1.7685   -1.9684    4.8332 C   0  0  0  0  0  0  0  0  0  0  0  0
    2.4127   -1.2806    3.7751 C   0  0  0  0  0  0  0  0  0  0  0  0
    1.9506   -0.7761    2.5433 C   0  0  0  0  0  0  0  0  0  0  0  0
    0.7618   -0.7418    1.8537 N   0  0  0  0  0  0  0  0  0  0  0  0
    0.9921   -0.0336    0.6884 C   0  0  0  0  0  0  0  0  0  0  0  0
    0.1056    0.3947   -0.3221 C   0  0  0  0  0  0  0  0  0  0  0  0
   -1.2760    0.4042   -0.3687 N   0  0  0  0  0  0  0  0  0  0  0  0
   -1.6324    0.8439   -1.6217 C   0  0  0  0  0  0  0  0  0  0  0  0
   -2.8252    1.0807   -2.3285 C   0  0  0  0  0  0  0  0  0  0  0  0
   -4.1920    0.9077   -1.9900 C   0  0  0  0  0  0  0  0  0  0  0  0
   -5.2266    1.2466   -2.9095 C   0  0  0  0  0  0  0  0  0  0  0  0
   -4.9217    1.7608   -4.1966 C   0  0  0  0  0  0  0  0  0  0  0  0
   -5.7562    2.1608   -5.2323 C   0  0  0  0  0  0  0  0  0  0  0  0
   -6.3916    0.9743   -2.3216 N   0  0  0  0  0  0  0  0  0  0  0  0
   -6.0631    0.5048   -1.1469 N   0  0  0  0  0  0  0  0  0  0  0  0
   -7.0516    0.1283   -0.1781 C   0  0  0  0  0  0  0  0  0  0  0  0
   -7.2257    1.2281    0.8649 C   0  0  0  0  0  0  0  0  0  0  0  0
   -4.7800    0.4380   -0.8857 N   0  0  0  0  0  0  0  0  0  0  0  0
   -2.1484    0.6391    0.7654 C   0  0  0  0  0  0  0  0  0  0  0  0
   -2.3839    2.1364    0.9664 C   0  0  0  0  0  0  0  0  0  0  0  0
   -0.2032   -1.8147    1.9984 C   0  0  0  0  0  0  0  0  0  0  0  0
    0.4199   -3.1582    1.6190 C   0  0  0  0  0  0  0  0  0  0  0  0
    4.7447   -2.3318    7.2021 C   0  0  0  0  0  0  0  0  0  0  0  0
    6.0224   -1.8604    6.9770 C   0  0  0  0  0  0  0  0  0  0  0  0
    6.1522   -1.0615    5.4208 S   0  0  0  0  0  0  0  0  0  0  0  0
    7.1022   -1.9870    7.8805 C   0  0  0  0  0  0  0  0  0  0  0  0
    8.3808   -1.5452    7.7395 C   0  0  0  0  0  0  0  0  0  0  0  0
    8.8740   -0.8592    6.6156 C   0  0  0  0  0  0  0  0  0  0  0  0
    9.3025   -0.2963    5.7111 N   0  0  0  0  0  0  0  0  0  0  0  0
    9.3357   -1.7928    8.8491 C   0  0  0  0  0  0  0  0  0  0  0  0
    9.0406   -2.3634    9.8718 O   0  0  0  0  0  0  0  0  0  0  0  0
   10.5485   -1.3166    8.5638 O   0  0  0  0  0  0  0  0  0  0  0  0
   11.5595   -1.4679    9.5591 C   0  0  0  0  0  0  0  0  0  0  0  0
   11.4877   -0.3543   10.5941 C   0  0  0  0  0  0  0  0  0  0  0  0
   -6.8258    3.0152   -7.3941 H   0  0  0  0  0  0  0  0  0  0  0  0
   -1.7466    4.4190  -10.8364 H   0  0  0  0  0  0  0  0  0  0  0  0
   -6.3790    5.0928  -12.5385 H   0  0  0  0  0  0  0  0  0  0  0  0
   -1.3163   -3.8866    5.9149 H   0  0  0  0  0  0  0  0  0  0  0  0
   -0.4232   -4.2899    7.4126 H   0  0  0  0  0  0  0  0  0  0  0  0
   -0.8718   -2.0019    8.2894 H   0  0  0  0  0  0  0  0  0  0  0  0
   -1.7471   -1.5935    6.8077 H   0  0  0  0  0  0  0  0  0  0  0  0
   -2.3907   -2.8202    7.9066 H   0  0  0  0  0  0  0  0  0  0  0  0
   -6.8296    2.1285   -5.1750 H   0  0  0  0  0  0  0  0  0  0  0  0
   -7.9821   -0.0410   -0.7219 H   0  0  0  0  0  0  0  0  0  0  0  0
   -6.7234   -0.7982    0.2992 H   0  0  0  0  0  0  0  0  0  0  0  0
   -7.9730    0.9302    1.5945 H   0  0  0  0  0  0  0  0  0  0  0  0
   -7.5499    2.1501    0.3889 H   0  0  0  0  0  0  0  0  0  0  0  0
   -6.2842    1.4091    1.3778 H   0  0  0  0  0  0  0  0  0  0  0  0
   -3.1027    0.1428    0.5711 H   0  0  0  0  0  0  0  0  0  0  0  0
   -1.6880    0.2391    1.6662 H   0  0  0  0  0  0  0  0  0  0  0  0
   -2.8915    2.5645    0.1064 H   0  0  0  0  0  0  0  0  0  0  0  0
   -1.4369    2.6539    1.1060 H   0  0  0  0  0  0  0  0  0  0  0  0
   -3.0006    2.2940    1.8470 H   0  0  0  0  0  0  0  0  0  0  0  0
   -1.0498   -1.6297    1.3401 H   0  0  0  0  0  0  0  0  0  0  0  0
   -0.5282   -1.8468    3.0416 H   0  0  0  0  0  0  0  0  0  0  0  0
    1.2353   -3.4068    2.2924 H   0  0  0  0  0  0  0  0  0  0  0  0
    0.8046   -3.1242    0.6016 H   0  0  0  0  0  0  0  0  0  0  0  0
   -0.3321   -3.9398    1.6824 H   0  0  0  0  0  0  0  0  0  0  0  0
    4.4540   -2.8519    8.0966 H   0  0  0  0  0  0  0  0  0  0  0  0
    6.8824   -2.5000    8.8108 H   0  0  0  0  0  0  0  0  0  0  0  0
   12.5019   -1.4349    9.0090 H   0  0  0  0  0  0  0  0  0  0  0  0
   11.4399   -2.4439   10.0416 H   0  0  0  0  0  0  0  0  0  0  0  0
   10.5534   -0.4190   11.1468 H   0  0  0  0  0  0  0  0  0  0  0  0
   11.5434    0.6150   10.1045 H   0  0  0  0  0  0  0  0  0  0  0  0
   12.3159   -0.4503   11.2902 H   0  0  0  0  0  0  0  0  0  0  0  0
  1  2  2  0  0  0  0
  2  3  1  0  0  0  0
  3  4  2  0  0  0  0
  3  5  1  0  0  0  0
  5  6  2  0  0  0  0
  6  7  1  0  0  0  0
  7  8  1  0  0  0  0
  7  9  2  0  0  0  0
  9 10  1  0  0  0  0
  9 11  1  0  0  0  0
 11 12  2  0  0  0  0
 12 13  1  0  0  0  0
 13 14  2  0  0  0  0
 14 15  1  0  0  0  0
 15 16  3  0  0  0  0
 14 17  1  0  0  0  0
 17 18  3  0  0  0  0
  1 19  1  0  0  0  0
 19 20  1  0  0  0  0
 20 21  1  0  0  0  0
 21 22  1  0  0  0  0
 22 23  1  0  0  0  0
 23 24  1  0  0  0  0
 24 25  1  0  0  0  0
 25 26  1  0  0  0  0
 26 27  1  0  0  0  0
 27 28  2  0  0  0  0
 28 29  1  0  0  0  0
 29 30  1  0  0  0  0
 27 31  1  0  0  0  0
 31 32  1  0  0  0  0
 32 33  1  0  0  0  0
 33 34  1  0  0  0  0
 34 35  1  0  0  0  0
 35 36  2  0  0  0  0
 36 37  1  0  0  0  0
 37 38  2  0  0  0  0
 38 39  1  0  0  0  0
 39 40  1  0  0  0  0
 40 41  1  0  0  0  0
 39 42  1  0  0  0  0
 42 43  2  0  0  0  0
 43 44  1  0  0  0  0
 44 45  1  0  0  0  0
 45 46  1  0  0  0  0
 46 47  1  0  0  0  0
 47 48  1  0  0  0  0
 48 49  1  0  0  0  0
 49 50  1  0  0  0  0
 50 51  1  0  0  0  0
 51 52  1  0  0  0  0
 52 53  1  0  0  0  0
 53 54  1  0  0  0  0
 54 55  1  0  0  0  0
 53 56  2  0  0  0  0
 56 57  1  0  0  0  0
 57 58  1  0  0  0  0
 58 59  1  0  0  0  0
 57 60  1  0  0  0  0
 49 61  1  0  0  0  0
 61 62  1  0  0  0  0
 46 63  1  0  0  0  0
 63 64  1  0  0  0  0
 36 65  1  0  0  0  0
 65 66  2  0  0  0  0
 66 67  1  0  0  0  0
 66 68  1  0  0  0  0
 68 69  2  0  0  0  0
 69 70  1  0  0  0  0
 70 71  3  0  0  0  0
 69 72  1  0  0  0  0
 72 73  2  0  0  0  0
 72 74  1  0  0  0  0
 74 75  1  0  0  0  0
 75 76  1  0  0  0  0
 13  2  1  0  0  0  0
 55 19  2  0  0  0  0
 12  5  1  0  0  0  0
 54 21  2  0  0  0  0
 51 22  2  0  0  0  0
 60 52  2  0  0  0  0
 50 24  2  0  0  0  0
 48 25  2  0  0  0  0
 30 26  2  0  0  0  0
 47 31  2  0  0  0  0
 45 32  2  0  0  0  0
 44 34  2  0  0  0  0
 67 35  1  0  0  0  0
 43 37  1  0  0  0  0
  1 77  1  0  0  0  0
  6 78  1  0  0  0  0
 11 79  1  0  0  0  0
 40 80  1  0  0  0  0
 40 81  1  0  0  0  0
 41 82  1  0  0  0  0
 41 83  1  0  0  0  0
 41 84  1  0  0  0  0
 55 85  1  0  0  0  0
 58 86  1  0  0  0  0
 58 87  1  0  0  0  0
 59 88  1  0  0  0  0
 59 89  1  0  0  0  0
 59 90  1  0  0  0  0
 61 91  1  0  0  0  0
 61 92  1  0  0  0  0
 62 93  1  0  0  0  0
 62 94  1  0  0  0  0
 62 95  1  0  0  0  0
 63 96  1  0  0  0  0
 63 97  1  0  0  0  0
 64 98  1  0  0  0  0
 64 99  1  0  0  0  0
 64100  1  0  0  0  0
 65101  1  0  0  0  0
 68102  1  0  0  0  0
 75103  1  0  0  0  0
 75104  1  0  0  0  0
 76105  1  0  0  0  0
 76106  1  0  0  0  0
 76107  1  0  0  0  0
M  END
