
  xtb     02012214453D
 energy: -221.637935892026 gnorm: 0.000188430723 xtb: 6.4.1 (unknown)
113128  0     0  0            999 V2000
   -0.5107    9.2011   -4.4362 C   0  0  0  0  0  0  0  0  0  0  0  0
    0.3249   10.2210   -4.8112 C   0  0  0  0  0  0  0  0  0  0  0  0
    1.8038   10.2386   -4.8305 C   0  0  0  0  0  0  0  0  0  0  0  0
    2.5859    9.3223   -4.6970 O   0  0  0  0  0  0  0  0  0  0  0  0
    2.1795   11.6561   -5.0382 C   0  0  0  0  0  0  0  0  0  0  0  0
    3.4475   12.1999   -5.0683 C   0  0  0  0  0  0  0  0  0  0  0  0
    3.5714   13.5698   -5.2632 C   0  0  0  0  0  0  0  0  0  0  0  0
    5.1208   14.3151   -5.3075 Cl  0  0  0  0  0  0  0  0  0  0  0  0
    2.4198   14.3444   -5.4214 C   0  0  0  0  0  0  0  0  0  0  0  0
    2.5457   15.6648   -5.6012 F   0  0  0  0  0  0  0  0  0  0  0  0
    1.1441   13.8028   -5.3980 C   0  0  0  0  0  0  0  0  0  0  0  0
    1.0238   12.4351   -5.2037 C   0  0  0  0  0  0  0  0  0  0  0  0
   -0.1439   11.5608   -5.1301 C   0  0  0  0  0  0  0  0  0  0  0  0
   -1.4316   11.9523   -5.3861 C   0  0  0  0  0  0  0  0  0  0  0  0
   -2.5653   11.1115   -5.4250 C   0  0  0  0  0  0  0  0  0  0  0  0
   -3.5379   10.5059   -5.5021 N   0  0  0  0  0  0  0  0  0  0  0  0
   -1.8034   13.2788   -5.6945 C   0  0  0  0  0  0  0  0  0  0  0  0
   -2.1733   14.3363   -5.9434 N   0  0  0  0  0  0  0  0  0  0  0  0
   -0.2482    7.8636   -4.0840 C   0  0  0  0  0  0  0  0  0  0  0  0
   -1.6102    6.9572   -3.4152 S   0  0  0  0  0  0  0  0  0  0  0  0
   -0.6284    5.5568   -3.2036 C   0  0  0  0  0  0  0  0  0  0  0  0
   -1.0150    4.3443   -2.6234 C   0  0  0  0  0  0  0  0  0  0  0  0
   -2.6193    4.0223   -2.0000 S   0  0  0  0  0  0  0  0  0  0  0  0
   -2.0854    2.4742   -1.4760 C   0  0  0  0  0  0  0  0  0  0  0  0
   -2.6000    1.3582   -0.8042 C   0  0  0  0  0  0  0  0  0  0  0  0
   -3.9169    1.0486   -0.3990 C   0  0  0  0  0  0  0  0  0  0  0  0
   -4.1749   -0.2376    0.1775 C   0  0  0  0  0  0  0  0  0  0  0  0
   -5.4559   -0.4204    0.4552 N   0  0  0  0  0  0  0  0  0  0  0  0
   -6.2678    0.9147    0.0305 S   0  0  0  0  0  0  0  0  0  0  0  0
   -5.0146    1.7774   -0.5235 N   0  0  0  0  0  0  0  0  0  0  0  0
   -3.0821   -1.0925    0.4414 C   0  0  0  0  0  0  0  0  0  0  0  0
   -3.0166   -2.3026    1.1430 C   0  0  0  0  0  0  0  0  0  0  0  0
   -4.0918   -3.4171    1.8905 S   0  0  0  0  0  0  0  0  0  0  0  0
   -2.7170   -4.3664    2.4108 C   0  0  0  0  0  0  0  0  0  0  0  0
   -2.8177   -5.5502    3.1495 C   0  0  0  0  0  0  0  0  0  0  0  0
   -1.6816   -6.2720    3.5650 C   0  0  0  0  0  0  0  0  0  0  0  0
   -0.4220   -5.7422    3.1996 C   0  0  0  0  0  0  0  0  0  0  0  0
    0.8143   -6.1773    3.4451 N   0  0  0  0  0  0  0  0  0  0  0  0
    1.5891   -5.3032    2.8632 N   0  0  0  0  0  0  0  0  0  0  0  0
    3.0168   -5.4395    2.8568 C   0  0  0  0  0  0  0  0  0  0  0  0
    3.4783   -6.1855    1.6083 C   0  0  0  0  0  0  0  0  0  0  0  0
    0.9877   -4.3168    2.2449 N   0  0  0  0  0  0  0  0  0  0  0  0
   -0.3175   -4.5469    2.4298 C   0  0  0  0  0  0  0  0  0  0  0  0
   -1.4711   -3.8298    2.0183 C   0  0  0  0  0  0  0  0  0  0  0  0
   -1.6665   -2.6424    1.2762 C   0  0  0  0  0  0  0  0  0  0  0  0
   -0.8993   -1.7000    0.6419 N   0  0  0  0  0  0  0  0  0  0  0  0
   -1.7441   -0.7427    0.1062 C   0  0  0  0  0  0  0  0  0  0  0  0
   -1.5215    0.4428   -0.6492 C   0  0  0  0  0  0  0  0  0  0  0  0
   -0.4074    0.9733   -1.2797 N   0  0  0  0  0  0  0  0  0  0  0  0
   -0.7454    2.2069   -1.7747 C   0  0  0  0  0  0  0  0  0  0  0  0
   -0.1120    3.2719   -2.4527 C   0  0  0  0  0  0  0  0  0  0  0  0
    1.2020    3.4685   -2.9521 C   0  0  0  0  0  0  0  0  0  0  0  0
    1.5922    4.7018   -3.5521 C   0  0  0  0  0  0  0  0  0  0  0  0
    0.6856    5.7845   -3.6672 C   0  0  0  0  0  0  0  0  0  0  0  0
    0.8854    7.0760   -4.1561 C   0  0  0  0  0  0  0  0  0  0  0  0
    2.8650    4.5827   -3.9290 N   0  0  0  0  0  0  0  0  0  0  0  0
    3.1981    3.3704   -3.5813 N   0  0  0  0  0  0  0  0  0  0  0  0
    4.5209    2.8575   -3.7907 C   0  0  0  0  0  0  0  0  0  0  0  0
    5.3757    3.0502   -2.5417 C   0  0  0  0  0  0  0  0  0  0  0  0
    2.2658    2.6583   -2.9966 N   0  0  0  0  0  0  0  0  0  0  0  0
    0.7667    0.2781   -1.7608 C   0  0  0  0  0  0  0  0  0  0  0  0
    0.3897   -0.9355   -2.6067 C   0  0  0  0  0  0  0  0  0  0  0  0
    0.5227   -1.6087    0.8840 C   0  0  0  0  0  0  0  0  0  0  0  0
    0.8708   -0.3722    1.7095 C   0  0  0  0  0  0  0  0  0  0  0  0
   -1.9991   -7.4403    4.2598 C   0  0  0  0  0  0  0  0  0  0  0  0
   -3.3587   -7.6406    4.3926 C   0  0  0  0  0  0  0  0  0  0  0  0
   -4.2695   -6.3266    3.6665 S   0  0  0  0  0  0  0  0  0  0  0  0
   -4.0523   -8.6736    5.0580 C   0  0  0  0  0  0  0  0  0  0  0  0
   -3.5991   -9.9010    5.4445 C   0  0  0  0  0  0  0  0  0  0  0  0
   -4.3362  -10.6404    6.5044 C   0  0  0  0  0  0  0  0  0  0  0  0
   -5.4378  -10.3887    6.9346 O   0  0  0  0  0  0  0  0  0  0  0  0
   -3.4093  -11.7030    6.9493 C   0  0  0  0  0  0  0  0  0  0  0  0
   -3.5433  -12.5997    7.9917 C   0  0  0  0  0  0  0  0  0  0  0  0
   -2.5076  -13.4882    8.2393 C   0  0  0  0  0  0  0  0  0  0  0  0
   -1.3680  -13.4572    7.4488 C   0  0  0  0  0  0  0  0  0  0  0  0
    0.2062  -14.8008    7.8690 I   0  0  0  0  0  0  0  0  0  0  0  0
   -1.2215  -12.5699    6.3911 C   0  0  0  0  0  0  0  0  0  0  0  0
   -2.2594  -11.6890    6.1401 C   0  0  0  0  0  0  0  0  0  0  0  0
   -2.4264  -10.6720    5.0995 C   0  0  0  0  0  0  0  0  0  0  0  0
   -1.7470  -10.6526    3.9097 C   0  0  0  0  0  0  0  0  0  0  0  0
   -0.6582  -11.4965    3.6095 C   0  0  0  0  0  0  0  0  0  0  0  0
    0.2470  -12.1416    3.3229 N   0  0  0  0  0  0  0  0  0  0  0  0
   -2.1053   -9.8442    2.8114 C   0  0  0  0  0  0  0  0  0  0  0  0
   -2.3768   -9.2436    1.8720 N   0  0  0  0  0  0  0  0  0  0  0  0
   -1.5601    9.4590   -4.3515 H   0  0  0  0  0  0  0  0  0  0  0  0
    4.3163   11.5739   -4.9417 H   0  0  0  0  0  0  0  0  0  0  0  0
    0.2987   14.4589   -5.5243 H   0  0  0  0  0  0  0  0  0  0  0  0
    3.2934   -5.9916    3.7565 H   0  0  0  0  0  0  0  0  0  0  0  0
    3.4470   -4.4360    2.8843 H   0  0  0  0  0  0  0  0  0  0  0  0
    3.0376   -7.1789    1.5809 H   0  0  0  0  0  0  0  0  0  0  0  0
    4.5600   -6.2824    1.6157 H   0  0  0  0  0  0  0  0  0  0  0  0
    3.1792   -5.6434    0.7145 H   0  0  0  0  0  0  0  0  0  0  0  0
    1.8271    7.4234   -4.5379 H   0  0  0  0  0  0  0  0  0  0  0  0
    4.4334    1.7962   -4.0335 H   0  0  0  0  0  0  0  0  0  0  0  0
    4.9471    3.4022   -4.6347 H   0  0  0  0  0  0  0  0  0  0  0  0
    4.9296    2.5303   -1.6973 H   0  0  0  0  0  0  0  0  0  0  0  0
    5.4559    4.1075   -2.3023 H   0  0  0  0  0  0  0  0  0  0  0  0
    6.3721    2.6534   -2.7124 H   0  0  0  0  0  0  0  0  0  0  0  0
    1.3256    0.9890   -2.3716 H   0  0  0  0  0  0  0  0  0  0  0  0
    1.4134    0.0003   -0.9282 H   0  0  0  0  0  0  0  0  0  0  0  0
    1.2900   -1.4304   -2.9608 H   0  0  0  0  0  0  0  0  0  0  0  0
   -0.1927   -0.6202   -3.4695 H   0  0  0  0  0  0  0  0  0  0  0  0
   -0.2034   -1.6507   -2.0414 H   0  0  0  0  0  0  0  0  0  0  0  0
    0.8086   -2.5055    1.4361 H   0  0  0  0  0  0  0  0  0  0  0  0
    1.0685   -1.6279   -0.0592 H   0  0  0  0  0  0  0  0  0  0  0  0
    1.9439   -0.3312    1.8759 H   0  0  0  0  0  0  0  0  0  0  0  0
    0.5580    0.5434    1.2131 H   0  0  0  0  0  0  0  0  0  0  0  0
    0.3737   -0.4202    2.6758 H   0  0  0  0  0  0  0  0  0  0  0  0
   -1.2494   -8.0830    4.6840 H   0  0  0  0  0  0  0  0  0  0  0  0
   -5.0652   -8.4427    5.3735 H   0  0  0  0  0  0  0  0  0  0  0  0
   -4.4370  -12.6023    8.5961 H   0  0  0  0  0  0  0  0  0  0  0  0
   -2.5857  -14.1992    9.0471 H   0  0  0  0  0  0  0  0  0  0  0  0
   -0.3207  -12.5679    5.7989 H   0  0  0  0  0  0  0  0  0  0  0  0
  1  2  2  0  0  0  0
  2  3  1  0  0  0  0
  3  4  2  0  0  0  0
  3  5  1  0  0  0  0
  5  6  2  0  0  0  0
  6  7  1  0  0  0  0
  7  8  1  0  0  0  0
  7  9  2  0  0  0  0
  9 10  1  0  0  0  0
  9 11  1  0  0  0  0
 11 12  2  0  0  0  0
 12 13  1  0  0  0  0
 13 14  2  0  0  0  0
 14 15  1  0  0  0  0
 15 16  3  0  0  0  0
 14 17  1  0  0  0  0
 17 18  3  0  0  0  0
  1 19  1  0  0  0  0
 19 20  1  0  0  0  0
 20 21  1  0  0  0  0
 21 22  1  0  0  0  0
 22 23  1  0  0  0  0
 23 24  1  0  0  0  0
 24 25  1  0  0  0  0
 25 26  1  0  0  0  0
 26 27  1  0  0  0  0
 27 28  2  0  0  0  0
 28 29  1  0  0  0  0
 29 30  1  0  0  0  0
 27 31  1  0  0  0  0
 31 32  1  0  0  0  0
 32 33  1  0  0  0  0
 33 34  1  0  0  0  0
 34 35  1  0  0  0  0
 35 36  2  0  0  0  0
 36 37  1  0  0  0  0
 37 38  2  0  0  0  0
 38 39  1  0  0  0  0
 39 40  1  0  0  0  0
 40 41  1  0  0  0  0
 39 42  1  0  0  0  0
 42 43  2  0  0  0  0
 43 44  1  0  0  0  0
 44 45  1  0  0  0  0
 45 46  1  0  0  0  0
 46 47  1  0  0  0  0
 47 48  1  0  0  0  0
 48 49  1  0  0  0  0
 49 50  1  0  0  0  0
 50 51  1  0  0  0  0
 51 52  1  0  0  0  0
 52 53  1  0  0  0  0
 53 54  1  0  0  0  0
 54 55  1  0  0  0  0
 53 56  2  0  0  0  0
 56 57  1  0  0  0  0
 57 58  1  0  0  0  0
 58 59  1  0  0  0  0
 57 60  1  0  0  0  0
 49 61  1  0  0  0  0
 61 62  1  0  0  0  0
 46 63  1  0  0  0  0
 63 64  1  0  0  0  0
 36 65  1  0  0  0  0
 65 66  2  0  0  0  0
 66 67  1  0  0  0  0
 66 68  1  0  0  0  0
 68 69  2  0  0  0  0
 69 70  1  0  0  0  0
 70 71  2  0  0  0  0
 70 72  1  0  0  0  0
 72 73  2  0  0  0  0
 73 74  1  0  0  0  0
 74 75  2  0  0  0  0
 75 76  1  0  0  0  0
 75 77  1  0  0  0  0
 77 78  2  0  0  0  0
 78 79  1  0  0  0  0
 79 80  2  0  0  0  0
 80 81  1  0  0  0  0
 81 82  3  0  0  0  0
 80 83  1  0  0  0  0
 83 84  3  0  0  0  0
 13  2  1  0  0  0  0
 55 19  2  0  0  0  0
 79 69  1  0  0  0  0
 12  5  1  0  0  0  0
 54 21  2  0  0  0  0
 78 72  1  0  0  0  0
 51 22  2  0  0  0  0
 60 52  2  0  0  0  0
 50 24  2  0  0  0  0
 48 25  2  0  0  0  0
 30 26  2  0  0  0  0
 47 31  2  0  0  0  0
 45 32  2  0  0  0  0
 44 34  2  0  0  0  0
 67 35  1  0  0  0  0
 43 37  1  0  0  0  0
  1 85  1  0  0  0  0
  6 86  1  0  0  0  0
 11 87  1  0  0  0  0
 40 88  1  0  0  0  0
 40 89  1  0  0  0  0
 41 90  1  0  0  0  0
 41 91  1  0  0  0  0
 41 92  1  0  0  0  0
 55 93  1  0  0  0  0
 58 94  1  0  0  0  0
 58 95  1  0  0  0  0
 59 96  1  0  0  0  0
 59 97  1  0  0  0  0
 59 98  1  0  0  0  0
 61 99  1  0  0  0  0
 61100  1  0  0  0  0
 62101  1  0  0  0  0
 62102  1  0  0  0  0
 62103  1  0  0  0  0
 63104  1  0  0  0  0
 63105  1  0  0  0  0
 64106  1  0  0  0  0
 64107  1  0  0  0  0
 64108  1  0  0  0  0
 65109  1  0  0  0  0
 68110  1  0  0  0  0
 73111  1  0  0  0  0
 74112  1  0  0  0  0
 77113  1  0  0  0  0
M  END
