113

C         -0.51070        9.20110       -4.43620
C          0.32490       10.22100       -4.81120
C          1.80380       10.23860       -4.83050
O          2.58590        9.32230       -4.69700
C          2.17950       11.65610       -5.03820
C          3.44750       12.19990       -5.06830
C          3.57140       13.56980       -5.26320
Cl         5.12080       14.31510       -5.30750
C          2.41980       14.34440       -5.42140
F          2.54570       15.66480       -5.60120
C          1.14410       13.80280       -5.39800
C          1.02380       12.43510       -5.20370
C         -0.14390       11.56080       -5.13010
C         -1.43160       11.95230       -5.38610
C         -2.56530       11.11150       -5.42500
N         -3.53790       10.50590       -5.50210
C         -1.80340       13.27880       -5.69450
N         -2.17330       14.33630       -5.94340
C         -0.24820        7.86360       -4.08400
S         -1.61020        6.95720       -3.41520
C         -0.62840        5.55680       -3.20360
C         -1.01500        4.34430       -2.62340
S         -2.61930        4.02230       -2.00000
C         -2.08540        2.47420       -1.47600
C         -2.60000        1.35820       -0.80420
C         -3.91690        1.04860       -0.39900
C         -4.17490       -0.23760        0.17750
N         -5.45590       -0.42040        0.45520
S         -6.26780        0.91470        0.03050
N         -5.01460        1.77740       -0.52350
C         -3.08210       -1.09250        0.44140
C         -3.01660       -2.30260        1.14300
S         -4.09180       -3.41710        1.89050
C         -2.71700       -4.36640        2.41080
C         -2.81770       -5.55020        3.14950
C         -1.68160       -6.27200        3.56500
C         -0.42200       -5.74220        3.19960
N          0.81430       -6.17730        3.44510
N          1.58910       -5.30320        2.86320
C          3.01680       -5.43950        2.85680
C          3.47830       -6.18550        1.60830
N          0.98770       -4.31680        2.24490
C         -0.31750       -4.54690        2.42980
C         -1.47110       -3.82980        2.01830
C         -1.66650       -2.64240        1.27620
N         -0.89930       -1.70000        0.64190
C         -1.74410       -0.74270        0.10620
C         -1.52150        0.44280       -0.64920
N         -0.40740        0.97330       -1.27970
C         -0.74540        2.20690       -1.77470
C         -0.11200        3.27190       -2.45270
C          1.20200        3.46850       -2.95210
C          1.59220        4.70180       -3.55210
C          0.68560        5.78450       -3.66720
C          0.88540        7.07600       -4.15610
N          2.86500        4.58270       -3.92900
N          3.19810        3.37040       -3.58130
C          4.52090        2.85750       -3.79070
C          5.37570        3.05020       -2.54170
N          2.26580        2.65830       -2.99660
C          0.76670        0.27810       -1.76080
C          0.38970       -0.93550       -2.60670
C          0.52270       -1.60870        0.88400
C          0.87080       -0.37220        1.70950
C         -1.99910       -7.44030        4.25980
C         -3.35870       -7.64060        4.39260
S         -4.26950       -6.32660        3.66650
C         -4.05230       -8.67360        5.05800
C         -3.59910       -9.90100        5.44450
C         -4.33620      -10.64040        6.50440
O         -5.43780      -10.38870        6.93460
C         -3.40930      -11.70300        6.94930
C         -3.54330      -12.59970        7.99170
C         -2.50760      -13.48820        8.23930
C         -1.36800      -13.45720        7.44880
I          0.20620      -14.80080        7.86900
C         -1.22150      -12.56990        6.39110
C         -2.25940      -11.68900        6.14010
C         -2.42640      -10.67200        5.09950
C         -1.74700      -10.65260        3.90970
C         -0.65820      -11.49650        3.60950
N          0.24700      -12.14160        3.32290
C         -2.10530       -9.84420        2.81140
N         -2.37680       -9.24360        1.87200
H         -1.56010        9.45900       -4.35150
H          4.31630       11.57390       -4.94170
H          0.29870       14.45890       -5.52430
H          3.29340       -5.99160        3.75650
H          3.44700       -4.43600        2.88430
H          3.03760       -7.17890        1.58090
H          4.56000       -6.28240        1.61570
H          3.17920       -5.64340        0.71450
H          1.82710        7.42340       -4.53790
H          4.43340        1.79620       -4.03350
H          4.94710        3.40220       -4.63470
H          4.92960        2.53030       -1.69730
H          5.45590        4.10750       -2.30230
H          6.37210        2.65340       -2.71240
H          1.32560        0.98900       -2.37160
H          1.41340        0.00030       -0.92820
H          1.29000       -1.43040       -2.96080
H         -0.19270       -0.62020       -3.46950
H         -0.20340       -1.65070       -2.04140
H          0.80860       -2.50550        1.43610
H          1.06850       -1.62790       -0.05920
H          1.94390       -0.33120        1.87590
H          0.55800        0.54340        1.21310
H          0.37370       -0.42020        2.67580
H         -1.24940       -8.08300        4.68400
H         -5.06520       -8.44270        5.37350
H         -4.43700      -12.60230        8.59610
H         -2.58570      -14.19920        9.04710
H         -0.32070      -12.56790        5.79890
