86

C         -2.48630        1.17620       -6.16820
C         -2.37370        0.73510       -7.46220
C         -1.55340       -0.38680       -7.92480
O         -0.75320       -1.03630       -7.28360
C         -1.92620       -0.59930       -9.34280
C         -1.51640       -1.60420      -10.20080
Cl        -0.31600       -2.72800       -9.74710
C         -2.12360       -1.68560      -11.46240
Cl        -1.62690       -2.88780      -12.57130
C         -3.16210       -0.81780      -11.79550
Cl        -3.95690       -1.00260      -13.29850
C         -3.57900        0.19480      -10.91530
Cl        -4.97860        1.09860      -11.32190
C         -2.90270        0.34870       -9.71180
C         -3.05430        1.30080       -8.61300
C         -3.54180        2.57900       -8.70370
C         -3.83230        3.27150       -9.89970
N         -3.98780        3.95630      -10.80720
C         -3.66340        3.47030       -7.61490
N         -3.81560        4.25060       -6.78560
C         -1.83640        0.76460       -4.99690
S         -0.58240       -0.47060       -4.86780
C         -0.46950       -0.16450       -3.18590
C          0.25850       -0.58180       -2.06510
C          1.34560       -1.46860       -1.93050
N          2.00800       -2.22920       -2.80370
N          2.95600       -2.78100       -2.09070
C          3.93280       -3.65030       -2.68020
C          5.14370       -2.85100       -3.15240
N          2.99640       -2.46330       -0.82140
C          1.97480       -1.61910       -0.66720
C          1.43580       -0.96710        0.45950
C          1.77020       -1.01770        1.81530
S          2.92520       -1.71350        2.86490
C          2.10700       -0.97700        4.26080
C          0.99090       -0.23700        3.88420
C          0.80750       -0.25860        2.50990
N         -0.08830        0.27760        1.62020
C         -1.36430        0.76520        2.09820
C         -2.51100       -0.15220        1.68140
C          0.28250       -0.12950        0.34520
C         -0.23650        0.14940       -0.94280
N         -1.22120        1.02400       -1.39090
C         -1.35980        0.83430       -2.74360
C         -2.12990        1.36090       -3.76400
C         -1.69330        2.25300       -0.78940
C         -0.53840        3.16300       -0.37880
C          2.67780       -1.24450        5.51330
C          2.35150       -0.82810        6.78280
C          1.30030        0.11620        7.20540
O          0.43020        0.65300        6.54780
C          1.49820        0.31250        8.65820
C          0.78760        1.13870        9.50630
C          1.16460        1.16810       10.83860
F          0.50580        1.95610       11.69770
C          2.22660        0.38550       11.29220
F          2.57410        0.43720       12.58310
C          2.93640       -0.44700       10.43960
C          2.56370       -0.48310        9.10470
C          3.08840       -1.23920        7.96700
C          4.06880       -2.19240        8.05750
C          4.56350       -2.99840        7.00880
N          5.02360       -3.71010        6.23380
C          4.72370       -2.53760        9.26000
N          5.29640       -2.86830       10.19810
H         -3.20600        1.96740       -5.99470
H          3.45520       -4.15450       -3.52210
H          4.22790       -4.37640       -1.92040
H          5.87930       -3.51990       -3.58920
H          5.59790       -2.32930       -2.31360
H          4.84280       -2.12270       -3.90140
H          0.38470        0.27790        4.60550
H         -1.29870        0.78350        3.18750
H         -1.53190        1.79190        1.77090
H         -2.57390       -0.24400        0.59990
H         -2.36100       -1.14580        2.09760
H         -3.45270        0.24010        2.05590
H         -2.87230        2.13360       -3.67300
H         -2.29060        2.75880       -1.55010
H         -2.35720        2.04250        0.05010
H         -0.92690        4.07900        0.05810
H          0.11230        2.67810        0.34450
H          0.05760        3.42150       -1.25110
H          3.54350       -1.89210        5.44410
H         -0.03120        1.74220        9.14830
H          3.74850       -1.02860       10.84320
