94

C         -4.92200        4.80190        0.77850
C         -5.26470        5.83630       -0.04050
C         -6.48670        6.62970        0.21660
O         -7.15430        6.62990        1.22360
C         -6.73960        7.36050       -1.05150
C         -7.83890        8.11770       -1.41770
Cl        -9.09240        8.45720       -0.31090
C         -7.90530        8.59900       -2.73360
Cl        -9.23400        9.55820       -3.22220
C         -6.91210        8.26900       -3.65490
Cl        -7.06160        8.79330       -5.27500
C         -5.79680        7.50380       -3.27810
Cl        -4.68420        7.00380       -4.48350
C         -5.68910        7.09960       -1.95590
C         -4.65010        6.35680       -1.24550
C         -3.29960        6.45540       -1.44630
C         -2.35900        5.90730       -0.54550
N         -1.55670        5.52240        0.17930
C         -2.66000        7.25800       -2.41410
N         -2.04860        7.93040       -3.11440
C         -4.04720        3.73300        0.49620
S         -3.70200        3.28460       -1.17540
C         -2.67260        2.04380       -0.61610
C         -1.79690        1.09040       -1.14810
C         -1.52960        0.69350       -2.47710
C         -0.58830       -0.36450       -2.70740
N         -0.47400       -0.66780       -3.99080
S         -1.46030        0.29660       -4.83650
N         -2.07340        1.13910       -3.59840
C          0.13350       -0.88560       -1.61000
C          1.22870       -1.75900       -1.55210
S          2.19960       -2.71690       -2.61200
C          3.22240       -3.15760       -1.25990
C          4.35530       -3.98030       -1.14010
C          5.07160       -4.61860       -2.28120
C          5.14590       -3.73890       -3.52550
C          4.79400       -4.03010        0.17820
S          3.83910       -3.00350        1.24820
C          2.80360       -2.57300       -0.05670
C          1.66250       -1.78200       -0.22160
N          0.85610       -0.99170        0.55040
C         -0.10180       -0.43420       -0.27930
C         -1.17120        0.46280       -0.03850
N         -1.72730        0.95720        1.13240
C         -2.61760        1.95650        0.78470
C         -3.40930        2.91690        1.43360
C         -3.46990        3.24060        2.89420
C         -2.55360        4.42470        3.21470
C         -1.86400        0.21600        2.37220
C         -2.17270       -1.26000        2.13380
C          1.28400       -0.57790        1.86920
C          1.62130        0.90910        1.91710
C          5.90790       -4.66120        0.77780
C          6.46210       -5.86770        0.46620
C          5.80250       -6.95840       -0.29970
O          4.69720       -6.95150       -0.79870
C          6.73140       -8.09430       -0.21040
C          7.82630       -7.73330        0.56540
S          8.98950       -8.99370        0.76600
C          7.99940      -10.04040       -0.20210
C          8.12370      -11.37250       -0.63680
C          7.05580      -11.73890       -1.39490
S          5.87590      -10.49130       -1.60560
C          6.82400       -9.41980       -0.64800
C          7.71430       -6.37620        1.01380
C          8.65180       -5.71360        1.76640
C          9.82080       -6.36900        2.20560
N         10.77480       -6.89300        2.56910
C          8.57840       -4.36680        2.16750
N          8.58390       -3.27060        2.51070
H         -5.45350        4.76920        1.72420
H          4.56340       -5.55800       -2.52260
H          6.08290       -4.87600       -1.95630
H          5.79790       -4.20570       -4.25960
H          5.54940       -2.75910       -3.27970
H          4.16680       -3.60890       -3.97720
H         -3.16360        2.38990        3.50080
H         -4.49570        3.49430        3.17000
H         -2.58280        4.64090        4.27960
H         -1.52950        4.20010        2.92850
H         -2.86770        5.30880        2.66700
H         -0.97800        0.34410        2.99910
H         -2.70920        0.64800        2.90670
H         -1.37160       -1.76700        1.60460
H         -2.32510       -1.75620        3.08890
H         -3.08240       -1.35730        1.54510
H          2.18040       -1.15890        2.09960
H          0.53180       -0.83870        2.61560
H          1.96380        1.17460        2.91340
H          2.41470        1.13390        1.20830
H          0.75890        1.52150        1.66750
H          6.33600       -4.11520        1.61130
H          8.95160      -12.01460       -0.40130
H          6.88270      -12.69090       -1.85650
