
  xtb     02022204563D
 energy: -206.535983361699 gnorm: 0.000870545122 xtb: 6.4.1 (unknown)
 97108  0     0  0            999 V2000
   -2.3682    4.6378   -5.2866 C   0  0  0  0  0  0  0  0  0  0  0  0
   -2.0178    5.7922   -5.9215 C   0  0  0  0  0  0  0  0  0  0  0  0
   -3.0562    6.7561   -6.3553 C   0  0  0  0  0  0  0  0  0  0  0  0
   -4.2263    6.7433   -6.0588 O   0  0  0  0  0  0  0  0  0  0  0  0
   -2.3549    7.6864   -7.2766 C   0  0  0  0  0  0  0  0  0  0  0  0
   -2.8841    8.6780   -8.0843 C   0  0  0  0  0  0  0  0  0  0  0  0
   -4.5347    9.1010   -8.0059 Cl  0  0  0  0  0  0  0  0  0  0  0  0
   -2.0263    9.3285   -8.9846 C   0  0  0  0  0  0  0  0  0  0  0  0
   -2.6307   10.5781   -9.9824 Cl  0  0  0  0  0  0  0  0  0  0  0  0
   -0.6941    8.9325   -9.0984 C   0  0  0  0  0  0  0  0  0  0  0  0
    0.3055    9.6728  -10.2721 Cl  0  0  0  0  0  0  0  0  0  0  0  0
   -0.1626    7.9273   -8.2749 C   0  0  0  0  0  0  0  0  0  0  0  0
    1.4326    7.3695   -8.5699 Cl  0  0  0  0  0  0  0  0  0  0  0  0
   -0.9857    7.3517   -7.3187 C   0  0  0  0  0  0  0  0  0  0  0  0
   -0.7302    6.3388   -6.2956 C   0  0  0  0  0  0  0  0  0  0  0  0
    0.4281    6.1877   -5.5801 C   0  0  0  0  0  0  0  0  0  0  0  0
    0.5490    5.3362   -4.4606 C   0  0  0  0  0  0  0  0  0  0  0  0
    0.7213    4.6893   -3.5282 N   0  0  0  0  0  0  0  0  0  0  0  0
    1.5812    6.9923   -5.7063 C   0  0  0  0  0  0  0  0  0  0  0  0
    2.5321    7.6335   -5.6833 N   0  0  0  0  0  0  0  0  0  0  0  0
   -1.5853    3.4866   -5.0553 C   0  0  0  0  0  0  0  0  0  0  0  0
   -0.5328    2.9248   -5.7717 C   0  0  0  0  0  0  0  0  0  0  0  0
   -0.0729    3.3873   -7.1176 C   0  0  0  0  0  0  0  0  0  0  0  0
   -0.0892    2.2623   -8.1514 C   0  0  0  0  0  0  0  0  0  0  0  0
   -0.0006    1.8104   -5.1100 C   0  0  0  0  0  0  0  0  0  0  0  0
    1.4929    0.6943   -5.4539 Se  0  0  0  0  0  2  0  0  0  0  0  0
    1.1176   -0.0452   -3.7944 C   0  0  0  0  0  0  0  0  0  0  0  0
    1.6602   -0.9854   -2.9161 C   0  0  0  0  0  0  0  0  0  0  0  0
    2.8179   -1.7741   -3.0755 C   0  0  0  0  0  0  0  0  0  0  0  0
    3.2284   -2.6052   -1.9926 C   0  0  0  0  0  0  0  0  0  0  0  0
    4.3407   -3.2740   -2.2531 N   0  0  0  0  0  0  0  0  0  0  0  0
    4.8263   -2.8834   -3.7506 S   0  0  0  0  0  0  0  0  0  0  0  0
    3.6339   -1.8461   -4.1155 N   0  0  0  0  0  0  0  0  0  0  0  0
    2.4415   -2.6232   -0.8226 C   0  0  0  0  0  0  0  0  0  0  0  0
    2.6473   -3.3393    0.3574 C   0  0  0  0  0  0  0  0  0  0  0  0
    3.8956   -4.5149    1.0739 Se  0  0  0  0  0  2  0  0  0  0  0  0
    2.7791   -4.4693    2.6099 C   0  0  0  0  0  0  0  0  0  0  0  0
    2.8778   -5.0736    3.8535 C   0  0  0  0  0  0  0  0  0  0  0  0
    4.0348   -5.9380    4.2338 C   0  0  0  0  0  0  0  0  0  0  0  0
    5.1233   -5.1094    4.9209 C   0  0  0  0  0  0  0  0  0  0  0  0
    1.8069   -4.7156    4.6939 C   0  0  0  0  0  0  0  0  0  0  0  0
    0.6689   -3.6408    3.8819 S   0  0  0  0  0  0  0  0  0  0  0  0
    1.6435   -3.6496    2.4603 C   0  0  0  0  0  0  0  0  0  0  0  0
    1.5815   -3.0243    1.2096 C   0  0  0  0  0  0  0  0  0  0  0  0
    0.7438   -2.1333    0.5923 N   0  0  0  0  0  0  0  0  0  0  0  0
    1.2430   -1.8611   -0.6691 C   0  0  0  0  0  0  0  0  0  0  0  0
    0.8566   -0.9970   -1.7366 C   0  0  0  0  0  0  0  0  0  0  0  0
   -0.1694   -0.0875   -1.9325 N   0  0  0  0  0  0  0  0  0  0  0  0
    0.0006    0.5016   -3.1564 C   0  0  0  0  0  0  0  0  0  0  0  0
   -0.6233    1.5217   -3.8854 C   0  0  0  0  0  0  0  0  0  0  0  0
   -1.9554    2.5729   -3.5988 S   0  0  0  0  0  0  0  0  0  0  0  0
   -1.1660    0.4567   -1.0401 C   0  0  0  0  0  0  0  0  0  0  0  0
   -0.5663    1.5260   -0.1288 C   0  0  0  0  0  0  0  0  0  0  0  0
   -0.5219   -1.8218    1.2148 C   0  0  0  0  0  0  0  0  0  0  0  0
   -1.6500   -2.6715    0.6319 C   0  0  0  0  0  0  0  0  0  0  0  0
    1.6956   -5.1530    6.0134 C   0  0  0  0  0  0  0  0  0  0  0  0
    0.7560   -4.8779    6.9809 C   0  0  0  0  0  0  0  0  0  0  0  0
   -0.4075   -4.0099    6.8350 C   0  0  0  0  0  0  0  0  0  0  0  0
   -0.8087   -3.4632    5.8239 O   0  0  0  0  0  0  0  0  0  0  0  0
   -1.0049   -3.9007    8.1850 C   0  0  0  0  0  0  0  0  0  0  0  0
   -2.0626   -3.1123    8.6000 C   0  0  0  0  0  0  0  0  0  0  0  0
   -2.9946   -2.2142    7.4887 Cl  0  0  0  0  0  0  0  0  0  0  0  0
   -2.3496   -3.0569    9.9713 C   0  0  0  0  0  0  0  0  0  0  0  0
   -3.6686   -2.1232   10.5301 Cl  0  0  0  0  0  0  0  0  0  0  0  0
   -1.5321   -3.7230   10.8822 C   0  0  0  0  0  0  0  0  0  0  0  0
   -1.8368   -3.5547   12.5571 Cl  0  0  0  0  0  0  0  0  0  0  0  0
   -0.4538   -4.5159   10.4539 C   0  0  0  0  0  0  0  0  0  0  0  0
    0.6093   -5.1476   11.6421 Cl  0  0  0  0  0  0  0  0  0  0  0  0
   -0.2396   -4.6651    9.0897 C   0  0  0  0  0  0  0  0  0  0  0  0
    0.7492   -5.4238    8.3245 C   0  0  0  0  0  0  0  0  0  0  0  0
    1.3935   -6.5642    8.7335 C   0  0  0  0  0  0  0  0  0  0  0  0
    2.3614   -7.2570    7.9746 C   0  0  0  0  0  0  0  0  0  0  0  0
    3.1719   -7.8645    7.4322 N   0  0  0  0  0  0  0  0  0  0  0  0
    1.0802   -7.3203    9.8839 C   0  0  0  0  0  0  0  0  0  0  0  0
    0.8316   -8.0635   10.7224 N   0  0  0  0  0  0  0  0  0  0  0  0
   -3.3906    4.6036   -4.9222 H   0  0  0  0  0  0  0  0  0  0  0  0
   -0.7162    4.1951   -7.4688 H   0  0  0  0  0  0  0  0  0  0  0  0
    0.9468    3.7771   -7.0277 H   0  0  0  0  0  0  0  0  0  0  0  0
    0.1940    2.6564   -9.1239 H   0  0  0  0  0  0  0  0  0  0  0  0
   -1.0851    1.8320   -8.2270 H   0  0  0  0  0  0  0  0  0  0  0  0
    0.6128    1.4724   -7.8860 H   0  0  0  0  0  0  0  0  0  0  0  0
    4.4464   -6.3712    3.3168 H   0  0  0  0  0  0  0  0  0  0  0  0
    3.7235   -6.7538    4.8877 H   0  0  0  0  0  0  0  0  0  0  0  0
    5.9655   -5.7454    5.1780 H   0  0  0  0  0  0  0  0  0  0  0  0
    5.4705   -4.3213    4.2556 H   0  0  0  0  0  0  0  0  0  0  0  0
    4.7437   -4.6517    5.8316 H   0  0  0  0  0  0  0  0  0  0  0  0
   -1.6480   -0.3402   -0.4799 H   0  0  0  0  0  0  0  0  0  0  0  0
   -1.9342    0.9154   -1.6684 H   0  0  0  0  0  0  0  0  0  0  0  0
    0.2648    1.1284    0.4504 H   0  0  0  0  0  0  0  0  0  0  0  0
   -0.1954    2.3548   -0.7270 H   0  0  0  0  0  0  0  0  0  0  0  0
   -1.3243    1.9037    0.5518 H   0  0  0  0  0  0  0  0  0  0  0  0
   -0.4185   -2.0543    2.2771 H   0  0  0  0  0  0  0  0  0  0  0  0
   -0.7286   -0.7566    1.1408 H   0  0  0  0  0  0  0  0  0  0  0  0
   -1.4724   -3.7210    0.8536 H   0  0  0  0  0  0  0  0  0  0  0  0
   -2.5993   -2.3835    1.0745 H   0  0  0  0  0  0  0  0  0  0  0  0
   -1.7124   -2.5607   -0.4492 H   0  0  0  0  0  0  0  0  0  0  0  0
    2.5128   -5.7898    6.3222 H   0  0  0  0  0  0  0  0  0  0  0  0
  1  2  2  0  0  0  0
  2  3  1  0  0  0  0
  3  4  2  0  0  0  0
  3  5  1  0  0  0  0
  5  6  2  0  0  0  0
  6  7  1  0  0  0  0
  6  8  1  0  0  0  0
  8  9  1  0  0  0  0
  8 10  2  0  0  0  0
 10 11  1  0  0  0  0
 10 12  1  0  0  0  0
 12 13  1  0  0  0  0
 12 14  2  0  0  0  0
 14 15  1  0  0  0  0
 15 16  2  0  0  0  0
 16 17  1  0  0  0  0
 17 18  3  0  0  0  0
 16 19  1  0  0  0  0
 19 20  3  0  0  0  0
  1 21  1  0  0  0  0
 21 22  2  0  0  0  0
 22 23  1  0  0  0  0
 23 24  1  0  0  0  0
 22 25  1  0  0  0  0
 25 26  1  0  0  0  0
 26 27  1  0  0  0  0
 27 28  1  0  0  0  0
 28 29  1  0  0  0  0
 29 30  1  0  0  0  0
 30 31  2  0  0  0  0
 31 32  1  0  0  0  0
 32 33  1  0  0  0  0
 30 34  1  0  0  0  0
 34 35  1  0  0  0  0
 35 36  1  0  0  0  0
 36 37  1  0  0  0  0
 37 38  1  0  0  0  0
 38 39  1  0  0  0  0
 39 40  1  0  0  0  0
 38 41  2  0  0  0  0
 41 42  1  0  0  0  0
 42 43  1  0  0  0  0
 43 44  1  0  0  0  0
 44 45  1  0  0  0  0
 45 46  1  0  0  0  0
 46 47  1  0  0  0  0
 47 48  1  0  0  0  0
 48 49  1  0  0  0  0
 49 50  1  0  0  0  0
 50 51  1  0  0  0  0
 48 52  1  0  0  0  0
 52 53  1  0  0  0  0
 45 54  1  0  0  0  0
 54 55  1  0  0  0  0
 41 56  1  0  0  0  0
 56 57  2  0  0  0  0
 57 58  1  0  0  0  0
 58 59  2  0  0  0  0
 58 60  1  0  0  0  0
 60 61  2  0  0  0  0
 61 62  1  0  0  0  0
 61 63  1  0  0  0  0
 63 64  1  0  0  0  0
 63 65  2  0  0  0  0
 65 66  1  0  0  0  0
 65 67  1  0  0  0  0
 67 68  1  0  0  0  0
 67 69  2  0  0  0  0
 69 70  1  0  0  0  0
 70 71  2  0  0  0  0
 71 72  1  0  0  0  0
 72 73  3  0  0  0  0
 71 74  1  0  0  0  0
 74 75  3  0  0  0  0
 15  2  1  0  0  0  0
 51 21  1  0  0  0  0
 70 57  1  0  0  0  0
 14  5  1  0  0  0  0
 50 25  2  0  0  0  0
 69 60  1  0  0  0  0
 49 27  2  0  0  0  0
 47 28  2  0  0  0  0
 33 29  2  0  0  0  0
 46 34  2  0  0  0  0
 44 35  2  0  0  0  0
 43 37  2  0  0  0  0
  1 76  1  0  0  0  0
 23 77  1  0  0  0  0
 23 78  1  0  0  0  0
 24 79  1  0  0  0  0
 24 80  1  0  0  0  0
 24 81  1  0  0  0  0
 39 82  1  0  0  0  0
 39 83  1  0  0  0  0
 40 84  1  0  0  0  0
 40 85  1  0  0  0  0
 40 86  1  0  0  0  0
 52 87  1  0  0  0  0
 52 88  1  0  0  0  0
 53 89  1  0  0  0  0
 53 90  1  0  0  0  0
 53 91  1  0  0  0  0
 54 92  1  0  0  0  0
 54 93  1  0  0  0  0
 55 94  1  0  0  0  0
 55 95  1  0  0  0  0
 55 96  1  0  0  0  0
 56 97  1  0  0  0  0
M  END
