112

C         -3.04520        6.21070        6.63620
C         -3.42790        5.63540        7.81130
C         -3.75350        6.45870        8.99710
O         -3.92140        7.65430        9.02880
C         -3.76170        5.50300       10.13510
C         -3.86500        5.76120       11.49110
Cl        -4.15500        7.33770       12.07550
C         -3.72070        4.68920       12.38440
Cl        -3.87110        4.95760       14.06640
C         -3.42040        3.41300       11.90970
Cl        -3.16080        2.14160       13.02340
C         -3.31830        3.15600       10.53370
Cl        -2.79970        1.60640       10.01370
C         -3.54960        4.19690        9.64720
C         -3.59160        4.24480        8.18690
C         -4.09110        3.27120        7.36360
C         -4.59720        2.01870        7.77000
N         -5.09130        1.00980        8.00400
C         -4.35220        3.48840        5.99180
N         -4.62520        3.62400        4.88520
C         -2.38960        5.58670        5.55410
S         -1.40810        4.13940        5.78330
C         -1.12140        4.05290        4.09330
C         -0.52280        3.20160        3.14830
C         -0.85020        3.77010        1.87740
N         -1.55570        4.93570        2.05740
C         -1.75350        5.10390        3.39960
C         -2.42830        5.99390        4.22900
C         -2.09360        5.75490        1.00790
C         -0.51960        3.12830        0.69380
C          0.14450        1.91720        0.80570
C          0.55100        0.97010       -0.18690
C          1.18410       -0.09050        0.39280
C          1.21770        0.03410        1.89090
C          2.64250        0.03230        2.46350
C          3.52590        1.09510        1.82090
C          0.31630       -1.01240        2.58810
C          0.68580       -2.47270        2.36890
C          0.53330        1.38100        2.06870
C          0.20310        2.00690        3.23770
C          1.59320       -1.02070       -0.61910
C          1.09750       -0.52990       -1.86630
C          0.36700        0.78490       -1.66610
C          0.98040        1.91670       -2.50310
C          2.41670        2.22260       -2.09500
C         -1.15620        0.64950       -1.90660
C         -1.58530        0.34230       -3.33480
C          1.30090       -1.22000       -3.02970
C          1.97710       -2.44410       -2.95060
C          2.26630       -3.45730       -3.88530
S          1.94100       -3.85850       -5.51980
C          2.74640       -5.41250       -5.29900
C          3.25780       -5.56580       -4.00170
C          2.97300       -4.47650       -3.20260
N          3.13980       -4.11470       -1.89310
C          3.77650       -4.88690       -0.86360
C          2.51620       -2.90230       -1.71000
C          2.34400       -2.18480       -0.53790
C          2.82470       -6.44580       -6.23620
C          2.31520       -6.54970       -7.51010
C          1.62250       -5.49490       -8.24640
O          1.34240       -4.37640       -7.86120
C          1.35670       -6.04820       -9.59510
C          0.79180       -5.42030      -10.69020
Cl         0.13460       -3.84990      -10.57670
C          0.77510       -6.10850      -11.91190
Cl         0.04860       -5.39280      -13.28430
C          1.39020       -7.35400      -12.01940
Cl         1.45110       -8.12770      -13.54410
C          1.97280       -7.98030      -10.90480
Cl         2.87110       -9.41880      -11.16130
C          1.88200       -7.35430       -9.66820
C          2.32480       -7.74490       -8.33000
C          2.48890       -9.03040       -7.87760
C          2.08390      -10.20040       -8.55590
N          1.68760      -11.19730       -8.96420
C          2.92620       -9.38290       -6.58270
N          3.29450       -9.76290       -5.56280
H         -3.22550        7.27710        6.54820
H         -2.98650        6.85560        3.91160
H         -2.47910        6.67680        1.43700
H         -1.31290        6.00080        0.28540
H         -2.90700        5.24010        0.48890
H         -0.79160        3.53720       -0.26600
H          2.58640        0.20680        3.53990
H          3.09350       -0.94770        2.30430
H          3.62650        0.91480        0.75300
H          3.09870        2.08530        1.96420
H          4.51740        1.08040        2.26770
H          0.33230       -0.79920        3.65880
H         -0.70690       -0.85530        2.23740
H          0.00820       -3.10170        2.94230
H          1.69840       -2.68070        2.70530
H          0.59350       -2.74320        1.32090
H          0.46100        1.60610        4.20590
H          0.37080        2.81510       -2.38730
H          0.96310        1.62950       -3.55490
H          3.03610        1.33310       -2.18930
H          2.45970        2.56510       -1.06340
H          2.83170        2.99920       -2.73340
H         -1.52850       -0.14090       -1.24970
H         -1.62300        1.58450       -1.58890
H         -2.67210        0.34220       -3.38810
H         -1.21450        1.08940       -4.03120
H         -1.23540       -0.63740       -3.64600
H          0.96160       -0.86340       -3.98880
H          3.77190       -6.45990       -3.69760
H          3.05630       -5.17230       -0.09190
H          4.58110       -4.31260       -0.39810
H          4.19680       -5.78830       -1.30300
H          2.76560       -2.52240        0.39430
H          3.36650       -7.30840       -5.86770
