97

C         -2.36820        4.63780       -5.28660
C         -2.01780        5.79220       -5.92150
C         -3.05620        6.75610       -6.35530
O         -4.22630        6.74330       -6.05880
C         -2.35490        7.68640       -7.27660
C         -2.88410        8.67800       -8.08430
Cl        -4.53470        9.10100       -8.00590
C         -2.02630        9.32850       -8.98460
Cl        -2.63070       10.57810       -9.98240
C         -0.69410        8.93250       -9.09840
Cl         0.30550        9.67280      -10.27210
C         -0.16260        7.92730       -8.27490
Cl         1.43260        7.36950       -8.56990
C         -0.98570        7.35170       -7.31870
C         -0.73020        6.33880       -6.29560
C          0.42810        6.18770       -5.58010
C          0.54900        5.33620       -4.46060
N          0.72130        4.68930       -3.52820
C          1.58120        6.99230       -5.70630
N          2.53210        7.63350       -5.68330
C         -1.58530        3.48660       -5.05530
C         -0.53280        2.92480       -5.77170
C         -0.07290        3.38730       -7.11760
C         -0.08920        2.26230       -8.15140
C         -0.00060        1.81040       -5.11000
Se         1.49290        0.69430       -5.45390
C          1.11760       -0.04520       -3.79440
C          1.66020       -0.98540       -2.91610
C          2.81790       -1.77410       -3.07550
C          3.22840       -2.60520       -1.99260
N          4.34070       -3.27400       -2.25310
S          4.82630       -2.88340       -3.75060
N          3.63390       -1.84610       -4.11550
C          2.44150       -2.62320       -0.82260
C          2.64730       -3.33930        0.35740
Se         3.89560       -4.51490        1.07390
C          2.77910       -4.46930        2.60990
C          2.87780       -5.07360        3.85350
C          4.03480       -5.93800        4.23380
C          5.12330       -5.10940        4.92090
C          1.80690       -4.71560        4.69390
S          0.66890       -3.64080        3.88190
C          1.64350       -3.64960        2.46030
C          1.58150       -3.02430        1.20960
N          0.74380       -2.13330        0.59230
C          1.24300       -1.86110       -0.66910
C          0.85660       -0.99700       -1.73660
N         -0.16940       -0.08750       -1.93250
C          0.00060        0.50160       -3.15640
C         -0.62330        1.52170       -3.88540
S         -1.95540        2.57290       -3.59880
C         -1.16600        0.45670       -1.04010
C         -0.56630        1.52600       -0.12880
C         -0.52190       -1.82180        1.21480
C         -1.65000       -2.67150        0.63190
C          1.69560       -5.15300        6.01340
C          0.75600       -4.87790        6.98090
C         -0.40750       -4.00990        6.83500
O         -0.80870       -3.46320        5.82390
C         -1.00490       -3.90070        8.18500
C         -2.06260       -3.11230        8.60000
Cl        -2.99460       -2.21420        7.48870
C         -2.34960       -3.05690        9.97130
Cl        -3.66860       -2.12320       10.53010
C         -1.53210       -3.72300       10.88220
Cl        -1.83680       -3.55470       12.55710
C         -0.45380       -4.51590       10.45390
Cl         0.60930       -5.14760       11.64210
C         -0.23960       -4.66510        9.08970
C          0.74920       -5.42380        8.32450
C          1.39350       -6.56420        8.73350
C          2.36140       -7.25700        7.97460
N          3.17190       -7.86450        7.43220
C          1.08020       -7.32030        9.88390
N          0.83160       -8.06350       10.72240
H         -3.39060        4.60360       -4.92220
H         -0.71620        4.19510       -7.46880
H          0.94680        3.77710       -7.02770
H          0.19400        2.65640       -9.12390
H         -1.08510        1.83200       -8.22700
H          0.61280        1.47240       -7.88600
H          4.44640       -6.37120        3.31680
H          3.72350       -6.75380        4.88770
H          5.96550       -5.74540        5.17800
H          5.47050       -4.32130        4.25560
H          4.74370       -4.65170        5.83160
H         -1.64800       -0.34020       -0.47990
H         -1.93420        0.91540       -1.66840
H          0.26480        1.12840        0.45040
H         -0.19540        2.35480       -0.72700
H         -1.32430        1.90370        0.55180
H         -0.41850       -2.05430        2.27710
H         -0.72860       -0.75660        1.14080
H         -1.47240       -3.72100        0.85360
H         -2.59930       -2.38350        1.07450
H         -1.71240       -2.56070       -0.44920
H          2.51280       -5.78980        6.32220
