171

C         -6.95990        5.62670        2.28140
C         -6.93390        6.91410        1.79390
C         -5.90490        7.48300        0.92770
O         -4.86150        6.97130        0.56830
C         -6.40110        8.82370        0.53510
C         -5.84530        9.72470       -0.35420
Cl        -4.31010        9.45910       -1.04980
C         -6.58220       10.87090       -0.68420
Cl        -5.92120       12.03330       -1.75080
C         -7.87020       11.04030       -0.18140
Cl        -8.79200       12.39230       -0.68110
C         -8.43230       10.11580        0.71480
Cl       -10.08480       10.29910        1.13750
C         -7.65830        9.04160        1.13410
C         -7.91790        7.94230        2.06360
C         -8.78190        7.97150        3.13000
C         -9.02330        6.88890        4.00300
N         -9.29770        6.05820        4.74750
C         -9.42850        9.12120        3.63180
N         -9.90390       10.00840        4.18360
C         -6.04510        4.58190        2.13610
S         -4.51400        4.62390        1.29660
C         -4.20750        2.97550        1.71270
C         -3.03150        2.26720        1.33730
C         -2.93210        0.93560        1.88980
C         -3.90200        0.31540        2.68620
C         -5.23680        0.98150        2.95620
C         -5.23810        2.41290        2.47140
C         -6.25820        3.31800        2.69730
C         -6.24520        0.16160        2.15290
C         -6.51110        0.48640        0.82880
C         -7.37620       -0.28170        0.07220
C         -7.99510       -1.40120        0.61070
C         -8.90040       -2.25820       -0.22570
C         -8.09240       -3.33160       -0.95790
C         -7.71190       -1.73560        1.92800
C         -6.84760       -0.97020        2.68810
C         -5.55150        1.03460        4.44390
C         -6.86160        1.06710        4.90660
C         -7.12880        1.18260        6.25760
C         -6.09900        1.27900        7.18430
C         -6.39550        1.35160        8.65400
C         -6.53530       -0.05500        9.24000
C         -4.79190        1.26380        6.71750
C         -4.52030        1.15210        5.36630
C         -3.62550       -0.96020        3.16700
C         -2.45360       -1.65850        2.88770
C         -1.46440       -1.10260        2.08230
C         -0.20270       -1.73310        1.67960
C          0.68930       -1.01840        0.83770
C          0.34110        0.25680        0.42790
C          1.02430        1.13720       -0.41800
N          0.23740        2.27210       -0.54350
C         -0.91350        2.11730        0.21810
C         -2.05960        2.85300        0.51550
C         -0.84260        0.85080        0.81010
C         -1.76070        0.20650        1.62000
C          0.60150        3.46580       -1.26310
C          1.37190        4.44230       -0.37560
C          2.23610        0.65930       -0.92200
C          2.65460       -0.61940       -0.54360
C          3.86880       -1.18650       -1.02950
C          4.35800       -2.42810       -0.66020
C          3.61220       -3.38560        0.23820
C          4.42990       -3.69730        1.48390
C          5.24670       -2.71650        2.03250
C          5.95820       -2.95530        3.19310
C          5.86850       -4.17710        3.84600
C          6.60740       -4.42050        5.13000
C          5.75720       -3.98520        6.32530
C          5.03600       -5.14870        3.30740
C          4.32390       -4.91430        2.14580
C          3.35090       -4.59840       -0.65110
C          2.20340       -4.64540       -1.43130
C          1.99230       -5.68920       -2.31190
C          2.92230       -6.71050       -2.44480
C          2.72180       -7.81050       -3.44590
C          3.37160       -7.43310       -4.77870
C          4.07440       -6.65440       -1.67220
C          4.29140       -5.61090       -0.79260
C          2.30730       -2.78190        0.71900
C          1.91680       -1.49070        0.34140
C          1.45140       -3.49860        1.54810
C          0.23600       -3.00880        2.01990
C          5.58960       -2.71370       -1.25620
C          6.02730       -1.74280       -2.13300
S          4.91860       -0.39400       -2.15890
C          7.22440       -1.76070       -2.88940
C          7.49820       -1.08980       -4.03930
C          8.90250       -0.85240       -4.46760
O          9.89410       -1.39560       -4.03520
C          8.82250        0.22190       -5.47780
C          9.88260        0.87770       -6.10000
C          9.49580        1.85110       -6.98980
C          8.15220        2.16860       -7.23260
C          7.09520        1.52720       -6.63270
C          7.46800        0.51990       -5.74030
C          6.63580       -0.40680       -4.97970
C          5.35460       -0.77240       -5.30230
C          4.70800       -1.89620       -4.74490
N          4.17190       -2.83520       -4.35840
C          4.57730       -0.13800       -6.29020
N          3.89100        0.35550       -7.06770
C          8.50280        3.23980       -8.23410
C          8.31970        2.90310       -9.73440
C          8.45060        1.40480       -9.85420
C          9.72040        1.09130       -9.63390
C         10.47090        2.37160       -9.36170
C          9.69320        3.33880      -10.26870
C          9.99890        2.87640       -7.97490
H         -7.83180        5.34750        2.86030
H         -7.14760        3.09950        3.26050
H         -6.03960        1.34710        0.37770
H         -7.57320       -0.00470       -0.95380
H         -9.42320       -1.63970       -0.95810
H         -9.64630       -2.74000        0.40960
H         -8.74670       -3.95300       -1.56490
H         -7.35070       -2.87020       -1.60600
H         -7.57300       -3.96670       -0.24380
H         -8.17580       -2.60690        2.36830
H         -6.65510       -1.25520        3.71170
H         -7.68370        0.99220        4.20930
H         -8.15470        1.20480        6.59610
H         -7.32360        1.90280        8.81680
H         -5.58980        1.87800        9.16930
H         -6.74920       -0.00450       10.30500
H         -5.61530       -0.61770        9.09640
H         -7.34420       -0.59110        8.74840
H         -3.97370        1.34810        7.41860
H         -3.49430        1.15560        5.02680
H         -4.36040       -1.44080        3.79550
H         -2.33200       -2.64620        3.30610
H         -2.23280        3.85280        0.14460
H          1.21290        3.17710       -2.12250
H         -0.31320        3.93850       -1.63100
H          1.63770        5.33040       -0.94190
H          2.28290        3.97780       -0.00460
H          0.76280        4.73990        0.47480
H          2.85940        1.23060       -1.59530
H          5.32910       -1.75370        1.54860
H          6.59350       -2.17980        3.59690
H          7.54360       -3.85860        5.13090
H          6.84550       -5.48180        5.22550
H          4.82530       -4.54560        6.35060
H          6.29220       -4.15740        7.25630
H          5.51670       -2.92690        6.25260
H          4.94470       -6.10560        3.80180
H          3.69240       -5.69530        1.74810
H          1.46870       -3.85690       -1.35690
H          1.09310       -5.70460       -2.91070
H          3.16670       -8.73710       -3.07660
H          1.65450       -7.98110       -3.60070
H          2.94700       -6.50560       -5.15520
H          3.21310       -8.21660       -5.51630
H          4.44150       -7.28690       -4.64940
H          4.81680       -7.43480       -1.76360
H          5.20060       -5.59380       -0.20880
H          1.73750       -4.49820        1.83840
H         -0.36310       -3.64580        2.65290
H          6.13850       -3.62340       -1.09550
H          8.04580       -2.33000       -2.46560
H         10.90480        0.61160       -5.88080
H          6.06420        1.77840       -6.82150
H          8.17440        4.24820       -7.99010
H          7.43940        3.34600      -10.19240
H          7.62110        0.74340      -10.02300
H         10.16430        0.11440       -9.58250
H         11.55020        2.33020       -9.48300
H          9.82210        3.11870      -11.32730
H          9.91970        4.38740      -10.08060
H         10.65080        3.64920       -7.57210
