
  xtb     02022200163D
 energy: -180.777785237396 gnorm: 0.000833779343 xtb: 6.4.1 (unknown)
 92104  0     0  0            999 V2000
    5.1973   -6.1068   -0.1856 C   0  0  0  0  0  0  0  0  0  0  0  0
    6.4441   -5.7111    0.2294 C   0  0  0  0  0  0  0  0  0  0  0  0
    6.9095   -4.3412    0.5099 C   0  0  0  0  0  0  0  0  0  0  0  0
    6.2576   -3.3313    0.6709 O   0  0  0  0  0  0  0  0  0  0  0  0
    8.3907   -4.4188    0.4862 C   0  0  0  0  0  0  0  0  0  0  0  0
    9.3048   -3.3828    0.5660 C   0  0  0  0  0  0  0  0  0  0  0  0
    8.8120   -1.7760    0.8576 Cl  0  0  0  0  0  0  0  0  0  0  0  0
   10.6635   -3.6816    0.3925 C   0  0  0  0  0  0  0  0  0  0  0  0
   11.8326   -2.4393    0.5142 Cl  0  0  0  0  0  0  0  0  0  0  0  0
   11.0591   -4.9808    0.0793 C   0  0  0  0  0  0  0  0  0  0  0  0
   12.7114   -5.3022   -0.2227 Cl  0  0  0  0  0  0  0  0  0  0  0  0
   10.1256   -6.0270   -0.0084 C   0  0  0  0  0  0  0  0  0  0  0  0
   10.6648   -7.5570   -0.5644 Cl  0  0  0  0  0  0  0  0  0  0  0  0
    8.7921   -5.7514    0.2644 C   0  0  0  0  0  0  0  0  0  0  0  0
    7.5989   -6.5917    0.2986 C   0  0  0  0  0  0  0  0  0  0  0  0
    7.5333   -7.9272    0.5917 C   0  0  0  0  0  0  0  0  0  0  0  0
    6.3192   -8.6454    0.6960 C   0  0  0  0  0  0  0  0  0  0  0  0
    5.3804   -9.2959    0.8074 N   0  0  0  0  0  0  0  0  0  0  0  0
    8.6018   -8.7463    1.0170 C   0  0  0  0  0  0  0  0  0  0  0  0
    9.3709   -9.4725    1.4621 N   0  0  0  0  0  0  0  0  0  0  0  0
    3.9941   -5.3832   -0.2094 C   0  0  0  0  0  0  0  0  0  0  0  0
    2.6952   -6.0005   -1.2499 S   0  0  0  0  0  0  0  0  0  0  0  0
    1.7042   -4.6789   -0.8105 C   0  0  0  0  0  0  0  0  0  0  0  0
    0.4533   -4.1146   -1.1037 C   0  0  0  0  0  0  0  0  0  0  0  0
   -0.5407   -4.4060   -2.0678 C   0  0  0  0  0  0  0  0  0  0  0  0
   -1.6354   -3.4877   -2.2486 C   0  0  0  0  0  0  0  0  0  0  0  0
   -2.4319   -3.8475   -3.2421 N   0  0  0  0  0  0  0  0  0  0  0  0
   -1.8702   -5.2197   -3.8867 S   0  0  0  0  0  0  0  0  0  0  0  0
   -0.5805   -5.4096   -2.9291 N   0  0  0  0  0  0  0  0  0  0  0  0
   -1.7762   -2.3949   -1.3614 C   0  0  0  0  0  0  0  0  0  0  0  0
   -2.7441   -1.3880   -1.2108 C   0  0  0  0  0  0  0  0  0  0  0  0
   -2.4176   -0.6615   -0.0489 C   0  0  0  0  0  0  0  0  0  0  0  0
   -1.2745   -1.1771    0.5157 N   0  0  0  0  0  0  0  0  0  0  0  0
   -1.0329   -1.0618    1.9409 C   0  0  0  0  0  0  0  0  0  0  0  0
   -2.2209   -1.5852    2.7477 C   0  0  0  0  0  0  0  0  0  0  0  0
   -0.8462   -2.2035   -0.3035 C   0  0  0  0  0  0  0  0  0  0  0  0
    0.3436   -2.9578   -0.2835 C   0  0  0  0  0  0  0  0  0  0  0  0
    1.5073   -2.7836    0.4377 N   0  0  0  0  0  0  0  0  0  0  0  0
    2.3370   -3.8340    0.1254 C   0  0  0  0  0  0  0  0  0  0  0  0
    3.6196   -4.2316    0.4710 C   0  0  0  0  0  0  0  0  0  0  0  0
    2.0488   -1.5187    0.8984 C   0  0  0  0  0  0  0  0  0  0  0  0
    3.1639   -1.0148   -0.0175 C   0  0  0  0  0  0  0  0  0  0  0  0
   -3.2787    0.3937    0.2242 C   0  0  0  0  0  0  0  0  0  0  0  0
   -4.2695    0.4985   -0.7394 C   0  0  0  0  0  0  0  0  0  0  0  0
   -4.1433   -0.7703   -1.9753 S   0  0  0  0  0  0  0  0  0  0  0  0
   -5.3116    1.4314   -0.9148 C   0  0  0  0  0  0  0  0  0  0  0  0
   -5.5925    2.6031   -0.2674 C   0  0  0  0  0  0  0  0  0  0  0  0
   -4.8221    3.2972    0.7908 C   0  0  0  0  0  0  0  0  0  0  0  0
   -3.9217    2.8702    1.4879 O   0  0  0  0  0  0  0  0  0  0  0  0
   -5.3683    4.6637    0.8570 C   0  0  0  0  0  0  0  0  0  0  0  0
   -4.8931    5.7097    1.6465 C   0  0  0  0  0  0  0  0  0  0  0  0
   -5.5785    6.8886    1.4832 C   0  0  0  0  0  0  0  0  0  0  0  0
   -6.6578    7.0198    0.5982 C   0  0  0  0  0  0  0  0  0  0  0  0
   -7.1457    5.9929   -0.1743 C   0  0  0  0  0  0  0  0  0  0  0  0
   -6.4635    4.7815   -0.0201 C   0  0  0  0  0  0  0  0  0  0  0  0
   -6.6856    3.4855   -0.6538 C   0  0  0  0  0  0  0  0  0  0  0  0
   -7.7774    3.1549   -1.4114 C   0  0  0  0  0  0  0  0  0  0  0  0
   -8.8185    4.0503   -1.7379 C   0  0  0  0  0  0  0  0  0  0  0  0
   -9.6979    4.7219   -2.0440 N   0  0  0  0  0  0  0  0  0  0  0  0
   -8.0652    1.8738   -1.9309 C   0  0  0  0  0  0  0  0  0  0  0  0
   -8.3932    0.8644   -2.3693 N   0  0  0  0  0  0  0  0  0  0  0  0
   -6.8522    8.4791    0.9258 C   0  0  0  0  0  0  0  0  0  0  0  0
   -6.3172    9.4954   -0.1058 C   0  0  0  0  0  0  0  0  0  0  0  0
   -6.2121   10.7835    0.6784 C   0  0  0  0  0  0  0  0  0  0  0  0
   -5.1963   10.6600    1.5230 C   0  0  0  0  0  0  0  0  0  0  0  0
   -4.5971    9.2866    1.3232 C   0  0  0  0  0  0  0  0  0  0  0  0
   -4.8336    9.1121   -0.1825 C   0  0  0  0  0  0  0  0  0  0  0  0
   -5.6537    8.3313    1.9174 C   0  0  0  0  0  0  0  0  0  0  0  0
    5.1252   -7.0968   -0.6210 H   0  0  0  0  0  0  0  0  0  0  0  0
   -0.1546   -1.6517    2.1991 H   0  0  0  0  0  0  0  0  0  0  0  0
   -0.8530   -0.0103    2.1853 H   0  0  0  0  0  0  0  0  0  0  0  0
   -3.1142   -0.9991    2.5521 H   0  0  0  0  0  0  0  0  0  0  0  0
   -1.9924   -1.5256    3.8082 H   0  0  0  0  0  0  0  0  0  0  0  0
   -2.4220   -2.6234    2.4921 H   0  0  0  0  0  0  0  0  0  0  0  0
    4.2549   -3.7436    1.1834 H   0  0  0  0  0  0  0  0  0  0  0  0
    2.4320   -1.6450    1.9160 H   0  0  0  0  0  0  0  0  0  0  0  0
    1.2496   -0.7796    0.9012 H   0  0  0  0  0  0  0  0  0  0  0  0
    3.4674   -0.0221    0.3036 H   0  0  0  0  0  0  0  0  0  0  0  0
    2.8071   -0.9536   -1.0436 H   0  0  0  0  0  0  0  0  0  0  0  0
    4.0324   -1.6659    0.0128 H   0  0  0  0  0  0  0  0  0  0  0  0
   -3.1989    1.0780    1.0479 H   0  0  0  0  0  0  0  0  0  0  0  0
   -5.9581    1.1832   -1.7487 H   0  0  0  0  0  0  0  0  0  0  0  0
   -4.0573    5.5647    2.3130 H   0  0  0  0  0  0  0  0  0  0  0  0
   -7.9782    6.1100   -0.8474 H   0  0  0  0  0  0  0  0  0  0  0  0
   -7.8283    8.7505    1.3226 H   0  0  0  0  0  0  0  0  0  0  0  0
   -6.8741    9.5335   -1.0379 H   0  0  0  0  0  0  0  0  0  0  0  0
   -6.8994   11.6031    0.5803 H   0  0  0  0  0  0  0  0  0  0  0  0
   -4.8655   11.3558    2.2716 H   0  0  0  0  0  0  0  0  0  0  0  0
   -3.5864    9.1354    1.6930 H   0  0  0  0  0  0  0  0  0  0  0  0
   -4.2561    9.8203   -0.7745 H   0  0  0  0  0  0  0  0  0  0  0  0
   -4.6537    8.1020   -0.5462 H   0  0  0  0  0  0  0  0  0  0  0  0
   -5.8322    8.4993    2.9778 H   0  0  0  0  0  0  0  0  0  0  0  0
  1  2  2  0  0  0  0
  2  3  1  0  0  0  0
  3  4  2  0  0  0  0
  3  5  1  0  0  0  0
  5  6  2  0  0  0  0
  6  7  1  0  0  0  0
  6  8  1  0  0  0  0
  8  9  1  0  0  0  0
  8 10  2  0  0  0  0
 10 11  1  0  0  0  0
 10 12  1  0  0  0  0
 12 13  1  0  0  0  0
 12 14  2  0  0  0  0
 14 15  1  0  0  0  0
 15 16  2  0  0  0  0
 16 17  1  0  0  0  0
 17 18  3  0  0  0  0
 16 19  1  0  0  0  0
 19 20  3  0  0  0  0
  1 21  1  0  0  0  0
 21 22  1  0  0  0  0
 22 23  1  0  0  0  0
 23 24  1  0  0  0  0
 24 25  1  0  0  0  0
 25 26  1  0  0  0  0
 26 27  2  0  0  0  0
 27 28  1  0  0  0  0
 28 29  1  0  0  0  0
 26 30  1  0  0  0  0
 30 31  1  0  0  0  0
 31 32  2  0  0  0  0
 32 33  1  0  0  0  0
 33 34  1  0  0  0  0
 34 35  1  0  0  0  0
 33 36  1  0  0  0  0
 36 37  1  0  0  0  0
 37 38  1  0  0  0  0
 38 39  1  0  0  0  0
 39 40  1  0  0  0  0
 38 41  1  0  0  0  0
 41 42  1  0  0  0  0
 32 43  1  0  0  0  0
 43 44  2  0  0  0  0
 44 45  1  0  0  0  0
 44 46  1  0  0  0  0
 46 47  2  0  0  0  0
 47 48  1  0  0  0  0
 48 49  2  0  0  0  0
 48 50  1  0  0  0  0
 50 51  2  0  0  0  0
 51 52  1  0  0  0  0
 52 53  2  0  0  0  0
 53 54  1  0  0  0  0
 54 55  2  0  0  0  0
 55 56  1  0  0  0  0
 56 57  2  0  0  0  0
 57 58  1  0  0  0  0
 58 59  3  0  0  0  0
 57 60  1  0  0  0  0
 60 61  3  0  0  0  0
 53 62  1  0  0  0  0
 62 63  1  0  0  0  0
 63 64  1  0  0  0  0
 64 65  2  0  0  0  0
 65 66  1  0  0  0  0
 66 67  1  0  0  0  0
 66 68  1  0  0  0  0
 15  2  1  0  0  0  0
 40 21  2  0  0  0  0
 56 47  1  0  0  0  0
 68 62  1  0  0  0  0
 14  5  1  0  0  0  0
 39 23  2  0  0  0  0
 55 50  1  0  0  0  0
 67 63  1  0  0  0  0
 37 24  2  0  0  0  0
 68 52  1  0  0  0  0
 29 25  2  0  0  0  0
 36 30  2  0  0  0  0
 45 31  1  0  0  0  0
  1 69  1  0  0  0  0
 34 70  1  0  0  0  0
 34 71  1  0  0  0  0
 35 72  1  0  0  0  0
 35 73  1  0  0  0  0
 35 74  1  0  0  0  0
 40 75  1  0  0  0  0
 41 76  1  0  0  0  0
 41 77  1  0  0  0  0
 42 78  1  0  0  0  0
 42 79  1  0  0  0  0
 42 80  1  0  0  0  0
 43 81  1  0  0  0  0
 46 82  1  0  0  0  0
 51 83  1  0  0  0  0
 54 84  1  0  0  0  0
 62 85  1  0  0  0  0
 63 86  1  0  0  0  0
 64 87  1  0  0  0  0
 65 88  1  0  0  0  0
 66 89  1  0  0  0  0
 67 90  1  0  0  0  0
 67 91  1  0  0  0  0
 68 92  1  0  0  0  0
M  END
