
  xtb     02022205453D
 energy: -199.352596149371 gnorm: 0.000622275686 xtb: 6.4.1 (unknown)
 95105  0     0  0            999 V2000
   -0.9408   -6.5087   -2.9759 C   0  0  0  0  0  0  0  0  0  0  0  0
   -1.0783   -6.8169   -4.3102 C   0  0  0  0  0  0  0  0  0  0  0  0
   -0.8959   -5.9592   -5.4920 C   0  0  0  0  0  0  0  0  0  0  0  0
   -0.4505   -4.8332   -5.5603 O   0  0  0  0  0  0  0  0  0  0  0  0
   -1.3786   -6.7593   -6.6466 C   0  0  0  0  0  0  0  0  0  0  0  0
   -1.5321   -6.3656   -7.9637 C   0  0  0  0  0  0  0  0  0  0  0  0
   -0.9925   -4.8424   -8.5118 Cl  0  0  0  0  0  0  0  0  0  0  0  0
   -2.1593   -7.2512   -8.8514 C   0  0  0  0  0  0  0  0  0  0  0  0
   -2.3406   -6.8241  -10.4975 Cl  0  0  0  0  0  0  0  0  0  0  0  0
   -2.6783   -8.4573   -8.3847 C   0  0  0  0  0  0  0  0  0  0  0  0
   -3.5364   -9.4724   -9.4625 Cl  0  0  0  0  0  0  0  0  0  0  0  0
   -2.5241   -8.8479   -7.0447 C   0  0  0  0  0  0  0  0  0  0  0  0
   -3.3524  -10.2508   -6.5072 Cl  0  0  0  0  0  0  0  0  0  0  0  0
   -1.7987   -8.0239   -6.1936 C   0  0  0  0  0  0  0  0  0  0  0  0
   -1.4259   -8.1461   -4.7863 C   0  0  0  0  0  0  0  0  0  0  0  0
   -1.2360   -9.3305   -4.1196 C   0  0  0  0  0  0  0  0  0  0  0  0
   -0.8905   -9.4605   -2.7579 C   0  0  0  0  0  0  0  0  0  0  0  0
   -0.6335   -9.6651   -1.6565 N   0  0  0  0  0  0  0  0  0  0  0  0
   -1.1781  -10.6039   -4.7275 C   0  0  0  0  0  0  0  0  0  0  0  0
   -0.9955  -11.6607   -5.1362 N   0  0  0  0  0  0  0  0  0  0  0  0
   -0.6311   -5.3137   -2.3139 C   0  0  0  0  0  0  0  0  0  0  0  0
   -0.4219   -4.0098   -2.8176 C   0  0  0  0  0  0  0  0  0  0  0  0
   -0.1841   -3.2109   -1.7182 C   0  0  0  0  0  0  0  0  0  0  0  0
   -0.2340   -4.0236   -0.5629 C   0  0  0  0  0  0  0  0  0  0  0  0
   -0.5195   -5.2885   -0.9211 N   0  0  0  0  0  0  0  0  0  0  0  0
   -0.5366   -6.4080   -0.0088 C   0  0  0  0  0  0  0  0  0  0  0  0
    0.7968   -7.1508   -0.0109 C   0  0  0  0  0  0  0  0  0  0  0  0
    0.0698   -3.1965    0.5320 C   0  0  0  0  0  0  0  0  0  0  0  0
    0.2728   -3.4881    1.8991 C   0  0  0  0  0  0  0  0  0  0  0  0
    0.7277   -2.4470    2.7725 C   0  0  0  0  0  0  0  0  0  0  0  0
    0.9324   -2.8715    4.0090 N   0  0  0  0  0  0  0  0  0  0  0  0
    0.5766   -4.4466    4.0800 S   0  0  0  0  0  0  0  0  0  0  0  0
    0.1452   -4.6479    2.5286 N   0  0  0  0  0  0  0  0  0  0  0  0
    0.8427   -1.1350    2.2654 C   0  0  0  0  0  0  0  0  0  0  0  0
    1.1473    0.0691    2.9082 C   0  0  0  0  0  0  0  0  0  0  0  0
    1.6238    0.6309    4.4720 S   0  0  0  0  0  0  0  0  0  0  0  0
    1.5976    2.2707    3.8516 C   0  0  0  0  0  0  0  0  0  0  0  0
    1.8665    3.4939    4.4475 C   0  0  0  0  0  0  0  0  0  0  0  0
    2.3184    3.6094    5.8660 C   0  0  0  0  0  0  0  0  0  0  0  0
    3.8476    3.6029    5.9519 C   0  0  0  0  0  0  0  0  0  0  0  0
    1.7106    4.5542    3.5353 C   0  0  0  0  0  0  0  0  0  0  0  0
    1.2045    3.9869    1.9402 S   0  0  0  0  0  0  0  0  0  0  0  0
    1.2355    2.3567    2.4944 C   0  0  0  0  0  0  0  0  0  0  0  0
    0.9842    1.0894    1.9615 C   0  0  0  0  0  0  0  0  0  0  0  0
    0.6188    0.5548    0.7559 N   0  0  0  0  0  0  0  0  0  0  0  0
    0.5386   -0.8189    0.9061 C   0  0  0  0  0  0  0  0  0  0  0  0
    0.2600   -1.8795    0.0051 C   0  0  0  0  0  0  0  0  0  0  0  0
    0.1037   -1.9139   -1.3724 N   0  0  0  0  0  0  0  0  0  0  0  0
    0.5847   -1.0084   -2.3933 C   0  0  0  0  0  0  0  0  0  0  0  0
    2.0802   -0.7364   -2.2511 C   0  0  0  0  0  0  0  0  0  0  0  0
    0.0740    1.4190   -0.2689 C   0  0  0  0  0  0  0  0  0  0  0  0
   -1.4227    1.1887   -0.4585 C   0  0  0  0  0  0  0  0  0  0  0  0
    1.9673    5.8882    3.8595 C   0  0  0  0  0  0  0  0  0  0  0  0
    1.8240    7.0374    3.1176 C   0  0  0  0  0  0  0  0  0  0  0  0
    1.2392    7.1446    1.7837 C   0  0  0  0  0  0  0  0  0  0  0  0
    0.9264    6.2414    1.0308 O   0  0  0  0  0  0  0  0  0  0  0  0
    1.0589    8.5934    1.5359 C   0  0  0  0  0  0  0  0  0  0  0  0
    0.4388    9.2181    0.4689 C   0  0  0  0  0  0  0  0  0  0  0  0
   -0.1066    8.3365   -0.8858 Cl  0  0  0  0  0  0  0  0  0  0  0  0
    0.2566   10.6072    0.5293 C   0  0  0  0  0  0  0  0  0  0  0  0
   -0.4753   11.4289   -0.7797 Cl  0  0  0  0  0  0  0  0  0  0  0  0
    0.6292   11.3121    1.6725 C   0  0  0  0  0  0  0  0  0  0  0  0
    0.3029   12.9886    1.7653 Cl  0  0  0  0  0  0  0  0  0  0  0  0
    1.2534   10.6703    2.7553 C   0  0  0  0  0  0  0  0  0  0  0  0
    1.5191   11.5685    4.1918 Cl  0  0  0  0  0  0  0  0  0  0  0  0
    1.5337    9.3144    2.6507 C   0  0  0  0  0  0  0  0  0  0  0  0
    2.1920    8.3719    3.5535 C   0  0  0  0  0  0  0  0  0  0  0  0
    3.1607    8.6686    4.4764 C   0  0  0  0  0  0  0  0  0  0  0  0
    3.8082    7.7068    5.2826 C   0  0  0  0  0  0  0  0  0  0  0  0
    4.3788    6.9877    5.9727 N   0  0  0  0  0  0  0  0  0  0  0  0
    3.7963    9.9188    4.6393 C   0  0  0  0  0  0  0  0  0  0  0  0
    4.4453   10.8543    4.7816 N   0  0  0  0  0  0  0  0  0  0  0  0
   -1.1350   -7.3356   -2.3067 H   0  0  0  0  0  0  0  0  0  0  0  0
   -0.4530   -3.7474   -3.8540 H   0  0  0  0  0  0  0  0  0  0  0  0
   -0.7163   -6.0023    0.9895 H   0  0  0  0  0  0  0  0  0  0  0  0
   -1.3504   -7.0897   -0.2664 H   0  0  0  0  0  0  0  0  0  0  0  0
    1.0312   -7.5329   -1.0012 H   0  0  0  0  0  0  0  0  0  0  0  0
    0.7438   -7.9898    0.6752 H   0  0  0  0  0  0  0  0  0  0  0  0
    1.5939   -6.4845    0.3097 H   0  0  0  0  0  0  0  0  0  0  0  0
    1.9277    2.7501    6.4155 H   0  0  0  0  0  0  0  0  0  0  0  0
    1.9298    4.5168    6.3296 H   0  0  0  0  0  0  0  0  0  0  0  0
    4.2668    4.4778    5.4620 H   0  0  0  0  0  0  0  0  0  0  0  0
    4.1563    3.6154    6.9931 H   0  0  0  0  0  0  0  0  0  0  0  0
    4.2478    2.7086    5.4804 H   0  0  0  0  0  0  0  0  0  0  0  0
    0.0064   -0.0837   -2.3974 H   0  0  0  0  0  0  0  0  0  0  0  0
    0.4006   -1.5079   -3.3468 H   0  0  0  0  0  0  0  0  0  0  0  0
    2.6362   -1.6656   -2.3525 H   0  0  0  0  0  0  0  0  0  0  0  0
    2.3155   -0.3041   -1.2814 H   0  0  0  0  0  0  0  0  0  0  0  0
    2.4075   -0.0519   -3.0289 H   0  0  0  0  0  0  0  0  0  0  0  0
    0.2400    2.4444    0.0699 H   0  0  0  0  0  0  0  0  0  0  0  0
    0.6210    1.2989   -1.2041 H   0  0  0  0  0  0  0  0  0  0  0  0
   -1.8009    1.8514   -1.2319 H   0  0  0  0  0  0  0  0  0  0  0  0
   -1.6340    0.1601   -0.7411 H   0  0  0  0  0  0  0  0  0  0  0  0
   -1.9515    1.4027    0.4674 H   0  0  0  0  0  0  0  0  0  0  0  0
    2.3137    6.0256    4.8756 H   0  0  0  0  0  0  0  0  0  0  0  0
  1  2  2  0  0  0  0
  2  3  1  0  0  0  0
  3  4  2  0  0  0  0
  3  5  1  0  0  0  0
  5  6  2  0  0  0  0
  6  7  1  0  0  0  0
  6  8  1  0  0  0  0
  8  9  1  0  0  0  0
  8 10  2  0  0  0  0
 10 11  1  0  0  0  0
 10 12  1  0  0  0  0
 12 13  1  0  0  0  0
 12 14  2  0  0  0  0
 14 15  1  0  0  0  0
 15 16  2  0  0  0  0
 16 17  1  0  0  0  0
 17 18  3  0  0  0  0
 16 19  1  0  0  0  0
 19 20  3  0  0  0  0
  1 21  1  0  0  0  0
 21 22  2  0  0  0  0
 22 23  1  0  0  0  0
 23 24  2  0  0  0  0
 24 25  1  0  0  0  0
 25 26  1  0  0  0  0
 26 27  1  0  0  0  0
 24 28  1  0  0  0  0
 28 29  1  0  0  0  0
 29 30  1  0  0  0  0
 30 31  2  0  0  0  0
 31 32  1  0  0  0  0
 32 33  1  0  0  0  0
 30 34  1  0  0  0  0
 34 35  1  0  0  0  0
 35 36  1  0  0  0  0
 36 37  1  0  0  0  0
 37 38  1  0  0  0  0
 38 39  1  0  0  0  0
 39 40  1  0  0  0  0
 38 41  2  0  0  0  0
 41 42  1  0  0  0  0
 42 43  1  0  0  0  0
 43 44  1  0  0  0  0
 44 45  1  0  0  0  0
 45 46  1  0  0  0  0
 46 47  1  0  0  0  0
 47 48  1  0  0  0  0
 48 49  1  0  0  0  0
 49 50  1  0  0  0  0
 45 51  1  0  0  0  0
 51 52  1  0  0  0  0
 41 53  1  0  0  0  0
 53 54  2  0  0  0  0
 54 55  1  0  0  0  0
 55 56  2  0  0  0  0
 55 57  1  0  0  0  0
 57 58  2  0  0  0  0
 58 59  1  0  0  0  0
 58 60  1  0  0  0  0
 60 61  1  0  0  0  0
 60 62  2  0  0  0  0
 62 63  1  0  0  0  0
 62 64  1  0  0  0  0
 64 65  1  0  0  0  0
 64 66  2  0  0  0  0
 66 67  1  0  0  0  0
 67 68  2  0  0  0  0
 68 69  1  0  0  0  0
 69 70  3  0  0  0  0
 68 71  1  0  0  0  0
 71 72  3  0  0  0  0
 15  2  1  0  0  0  0
 25 21  1  0  0  0  0
 47 28  2  0  0  0  0
 67 54  1  0  0  0  0
 14  5  1  0  0  0  0
 48 23  1  0  0  0  0
 66 57  1  0  0  0  0
 33 29  2  0  0  0  0
 46 34  2  0  0  0  0
 44 35  2  0  0  0  0
 43 37  2  0  0  0  0
  1 73  1  0  0  0  0
 22 74  1  0  0  0  0
 26 75  1  0  0  0  0
 26 76  1  0  0  0  0
 27 77  1  0  0  0  0
 27 78  1  0  0  0  0
 27 79  1  0  0  0  0
 39 80  1  0  0  0  0
 39 81  1  0  0  0  0
 40 82  1  0  0  0  0
 40 83  1  0  0  0  0
 40 84  1  0  0  0  0
 49 85  1  0  0  0  0
 49 86  1  0  0  0  0
 50 87  1  0  0  0  0
 50 88  1  0  0  0  0
 50 89  1  0  0  0  0
 51 90  1  0  0  0  0
 51 91  1  0  0  0  0
 52 92  1  0  0  0  0
 52 93  1  0  0  0  0
 52 94  1  0  0  0  0
 53 95  1  0  0  0  0
M  END
