
  xtb     02022204103D
 energy: -203.822659206686 gnorm: 0.000796452570 xtb: 6.4.1 (unknown)
103114  0     0  0            999 V2000
    2.2654    8.0659   -0.2403 C   0  0  0  0  0  0  0  0  0  0  0  0
    2.7807    8.1215   -1.5157 C   0  0  0  0  0  0  0  0  0  0  0  0
    2.7117    7.0691   -2.5234 C   0  0  0  0  0  0  0  0  0  0  0  0
    2.2884    5.9352   -2.3917 O   0  0  0  0  0  0  0  0  0  0  0  0
    3.2397    7.6662   -3.7712 C   0  0  0  0  0  0  0  0  0  0  0  0
    3.2927    7.1140   -5.0379 C   0  0  0  0  0  0  0  0  0  0  0  0
    2.8637    5.4871   -5.3199 Cl  0  0  0  0  0  0  0  0  0  0  0  0
    3.7020    7.9321   -6.1006 C   0  0  0  0  0  0  0  0  0  0  0  0
    3.8189    7.2852   -7.6792 Cl  0  0  0  0  0  0  0  0  0  0  0  0
    3.9683    9.2817   -5.8795 C   0  0  0  0  0  0  0  0  0  0  0  0
    4.3641   10.2844   -7.2080 Cl  0  0  0  0  0  0  0  0  0  0  0  0
    3.9031    9.8385   -4.5908 C   0  0  0  0  0  0  0  0  0  0  0  0
    4.0636   11.5387   -4.4332 Cl  0  0  0  0  0  0  0  0  0  0  0  0
    3.6110    9.0032   -3.5203 C   0  0  0  0  0  0  0  0  0  0  0  0
    3.5005    9.2454   -2.0823 C   0  0  0  0  0  0  0  0  0  0  0  0
    4.1419   10.2287   -1.3717 C   0  0  0  0  0  0  0  0  0  0  0  0
    5.1660   11.0666   -1.8635 C   0  0  0  0  0  0  0  0  0  0  0  0
    6.0779   11.7112   -2.1284 N   0  0  0  0  0  0  0  0  0  0  0  0
    3.9983   10.4377    0.0169 C   0  0  0  0  0  0  0  0  0  0  0  0
    3.9183   10.6872    1.1357 N   0  0  0  0  0  0  0  0  0  0  0  0
    1.6132    7.0383    0.4400 C   0  0  0  0  0  0  0  0  0  0  0  0
    1.1192    7.1762    1.7511 C   0  0  0  0  0  0  0  0  0  0  0  0
    1.1774    8.4188    2.5778 C   0  0  0  0  0  0  0  0  0  0  0  0
    0.0212    9.3598    2.2307 C   0  0  0  0  0  0  0  0  0  0  0  0
    0.5131    6.0121    2.1967 C   0  0  0  0  0  0  0  0  0  0  0  0
   -0.3519    5.5629    3.8268 Se  0  0  0  0  0  2  0  0  0  0  0  0
   -0.5956    3.9015    3.0294 C   0  0  0  0  0  0  0  0  0  0  0  0
   -1.1891    2.6734    3.3289 C   0  0  0  0  0  0  0  0  0  0  0  0
   -1.9466    2.2933    4.4571 C   0  0  0  0  0  0  0  0  0  0  0  0
   -2.5453    0.9970    4.4737 C   0  0  0  0  0  0  0  0  0  0  0  0
   -3.2665    0.7815    5.5622 N   0  0  0  0  0  0  0  0  0  0  0  0
   -3.1931    2.1088    6.4909 S   0  0  0  0  0  0  0  0  0  0  0  0
   -2.2377    3.0050    5.5342 N   0  0  0  0  0  0  0  0  0  0  0  0
   -2.2726    0.1134    3.4078 C   0  0  0  0  0  0  0  0  0  0  0  0
   -2.6338   -1.2269    3.2504 C   0  0  0  0  0  0  0  0  0  0  0  0
   -3.6353   -2.5153    4.1417 Se  0  0  0  0  0  2  0  0  0  0  0  0
   -3.0516   -3.6662    2.7483 C   0  0  0  0  0  0  0  0  0  0  0  0
   -3.2714   -5.0132    2.4960 C   0  0  0  0  0  0  0  0  0  0  0  0
   -4.1667   -5.8491    3.3508 C   0  0  0  0  0  0  0  0  0  0  0  0
   -5.5808   -5.9022    2.7679 C   0  0  0  0  0  0  0  0  0  0  0  0
   -2.6003   -5.4424    1.3379 C   0  0  0  0  0  0  0  0  0  0  0  0
   -1.6962   -4.1315    0.5813 S   0  0  0  0  0  0  0  0  0  0  0  0
   -2.2236   -3.0351    1.8028 C   0  0  0  0  0  0  0  0  0  0  0  0
   -2.0032   -1.6805    2.0841 C   0  0  0  0  0  0  0  0  0  0  0  0
   -1.2990   -0.6558    1.5096 N   0  0  0  0  0  0  0  0  0  0  0  0
   -1.4484    0.4697    2.3002 C   0  0  0  0  0  0  0  0  0  0  0  0
   -0.9775    1.8101    2.2134 C   0  0  0  0  0  0  0  0  0  0  0  0
   -0.2953    2.5294    1.2490 N   0  0  0  0  0  0  0  0  0  0  0  0
   -0.0688    3.7909    1.7348 C   0  0  0  0  0  0  0  0  0  0  0  0
    0.5401    4.9585    1.2619 C   0  0  0  0  0  0  0  0  0  0  0  0
    1.3184    5.4229   -0.2037 S   0  0  0  0  0  0  0  0  0  0  0  0
   -0.1214    2.2641   -0.1618 C   0  0  0  0  0  0  0  0  0  0  0  0
   -1.4666    2.1556   -0.8768 C   0  0  0  0  0  0  0  0  0  0  0  0
   -0.3422   -0.9427    0.4643 C   0  0  0  0  0  0  0  0  0  0  0  0
    1.0907   -0.8762    0.9870 C   0  0  0  0  0  0  0  0  0  0  0  0
   -2.6534   -6.7572    0.8675 C   0  0  0  0  0  0  0  0  0  0  0  0
   -2.0405   -7.3556   -0.2078 C   0  0  0  0  0  0  0  0  0  0  0  0
   -1.1142   -6.7142   -1.1415 C   0  0  0  0  0  0  0  0  0  0  0  0
   -0.7716   -5.5441   -1.1715 O   0  0  0  0  0  0  0  0  0  0  0  0
   -0.6555   -7.7778   -2.0559 C   0  0  0  0  0  0  0  0  0  0  0  0
    0.2447   -7.6891   -3.0934 C   0  0  0  0  0  0  0  0  0  0  0  0
    0.5278   -8.8489   -3.8156 C   0  0  0  0  0  0  0  0  0  0  0  0
    1.4795   -8.7165   -4.8058 O   0  0  0  0  0  0  0  0  0  0  0  0
    1.4790   -9.4585   -5.9360 C   0  0  0  0  0  0  0  0  0  0  0  0
    0.6462  -10.2712   -6.2190 O   0  0  0  0  0  0  0  0  0  0  0  0
    2.6594   -9.0781   -6.7853 C   0  0  0  0  0  0  0  0  0  0  0  0
   -0.0831  -10.0551   -3.4878 C   0  0  0  0  0  0  0  0  0  0  0  0
   -0.9934  -10.1308   -2.4423 C   0  0  0  0  0  0  0  0  0  0  0  0
   -1.2855   -8.9880   -1.7153 C   0  0  0  0  0  0  0  0  0  0  0  0
   -2.1690   -8.7528   -0.5742 C   0  0  0  0  0  0  0  0  0  0  0  0
   -2.9674   -9.7008    0.0132 C   0  0  0  0  0  0  0  0  0  0  0  0
   -3.8406   -9.4877    1.0997 C   0  0  0  0  0  0  0  0  0  0  0  0
   -4.5767   -9.3952    1.9775 N   0  0  0  0  0  0  0  0  0  0  0  0
   -3.0309  -11.0485   -0.4001 C   0  0  0  0  0  0  0  0  0  0  0  0
   -3.1307  -12.1581   -0.6768 N   0  0  0  0  0  0  0  0  0  0  0  0
    2.3519    8.9745    0.3395 H   0  0  0  0  0  0  0  0  0  0  0  0
    1.0922    8.1263    3.6292 H   0  0  0  0  0  0  0  0  0  0  0  0
    2.1283    8.9370    2.4438 H   0  0  0  0  0  0  0  0  0  0  0  0
    0.0671    9.6608    1.1865 H   0  0  0  0  0  0  0  0  0  0  0  0
   -0.9314    8.8645    2.4070 H   0  0  0  0  0  0  0  0  0  0  0  0
    0.0710   10.2505    2.8506 H   0  0  0  0  0  0  0  0  0  0  0  0
   -4.2078   -5.3893    4.3436 H   0  0  0  0  0  0  0  0  0  0  0  0
   -3.7795   -6.8631    3.4595 H   0  0  0  0  0  0  0  0  0  0  0  0
   -5.5741   -6.3592    1.7813 H   0  0  0  0  0  0  0  0  0  0  0  0
   -6.2236   -6.4926    3.4144 H   0  0  0  0  0  0  0  0  0  0  0  0
   -5.9916   -4.8980    2.6856 H   0  0  0  0  0  0  0  0  0  0  0  0
    0.4361    3.1074   -0.5751 H   0  0  0  0  0  0  0  0  0  0  0  0
    0.4891    1.3741   -0.3114 H   0  0  0  0  0  0  0  0  0  0  0  0
   -2.0022    3.0986   -0.8027 H   0  0  0  0  0  0  0  0  0  0  0  0
   -2.0883    1.3779   -0.4385 H   0  0  0  0  0  0  0  0  0  0  0  0
   -1.3087    1.9315   -1.9280 H   0  0  0  0  0  0  0  0  0  0  0  0
   -0.4947   -0.2784   -0.3855 H   0  0  0  0  0  0  0  0  0  0  0  0
   -0.5484   -1.9576    0.1181 H   0  0  0  0  0  0  0  0  0  0  0  0
    1.7878   -1.0800    0.1788 H   0  0  0  0  0  0  0  0  0  0  0  0
    1.3153    0.1006    1.4103 H   0  0  0  0  0  0  0  0  0  0  0  0
    1.2359   -1.6237    1.7636 H   0  0  0  0  0  0  0  0  0  0  0  0
   -3.2774   -7.4005    1.4726 H   0  0  0  0  0  0  0  0  0  0  0  0
    0.7233   -6.7553   -3.3420 H   0  0  0  0  0  0  0  0  0  0  0  0
    2.4839   -8.0937   -7.2146 H   0  0  0  0  0  0  0  0  0  0  0  0
    3.5565   -9.0273   -6.1742 H   0  0  0  0  0  0  0  0  0  0  0  0
    2.7810   -9.8026   -7.5844 H   0  0  0  0  0  0  0  0  0  0  0  0
    0.1460  -10.9442   -4.0520 H   0  0  0  0  0  0  0  0  0  0  0  0
   -1.4491  -11.0796   -2.2124 H   0  0  0  0  0  0  0  0  0  0  0  0
  1  2  2  0  0  0  0
  2  3  1  0  0  0  0
  3  4  2  0  0  0  0
  3  5  1  0  0  0  0
  5  6  2  0  0  0  0
  6  7  1  0  0  0  0
  6  8  1  0  0  0  0
  8  9  1  0  0  0  0
  8 10  2  0  0  0  0
 10 11  1  0  0  0  0
 10 12  1  0  0  0  0
 12 13  1  0  0  0  0
 12 14  2  0  0  0  0
 14 15  1  0  0  0  0
 15 16  2  0  0  0  0
 16 17  1  0  0  0  0
 17 18  3  0  0  0  0
 16 19  1  0  0  0  0
 19 20  3  0  0  0  0
  1 21  1  0  0  0  0
 21 22  2  0  0  0  0
 22 23  1  0  0  0  0
 23 24  1  0  0  0  0
 22 25  1  0  0  0  0
 25 26  1  0  0  0  0
 26 27  1  0  0  0  0
 27 28  1  0  0  0  0
 28 29  1  0  0  0  0
 29 30  1  0  0  0  0
 30 31  2  0  0  0  0
 31 32  1  0  0  0  0
 32 33  1  0  0  0  0
 30 34  1  0  0  0  0
 34 35  1  0  0  0  0
 35 36  1  0  0  0  0
 36 37  1  0  0  0  0
 37 38  1  0  0  0  0
 38 39  1  0  0  0  0
 39 40  1  0  0  0  0
 38 41  2  0  0  0  0
 41 42  1  0  0  0  0
 42 43  1  0  0  0  0
 43 44  1  0  0  0  0
 44 45  1  0  0  0  0
 45 46  1  0  0  0  0
 46 47  1  0  0  0  0
 47 48  1  0  0  0  0
 48 49  1  0  0  0  0
 49 50  1  0  0  0  0
 50 51  1  0  0  0  0
 48 52  1  0  0  0  0
 52 53  1  0  0  0  0
 45 54  1  0  0  0  0
 54 55  1  0  0  0  0
 41 56  1  0  0  0  0
 56 57  2  0  0  0  0
 57 58  1  0  0  0  0
 58 59  2  0  0  0  0
 58 60  1  0  0  0  0
 60 61  2  0  0  0  0
 61 62  1  0  0  0  0
 62 63  1  0  0  0  0
 63 64  1  0  0  0  0
 64 65  2  0  0  0  0
 64 66  1  0  0  0  0
 62 67  2  0  0  0  0
 67 68  1  0  0  0  0
 68 69  2  0  0  0  0
 69 70  1  0  0  0  0
 70 71  2  0  0  0  0
 71 72  1  0  0  0  0
 72 73  3  0  0  0  0
 71 74  1  0  0  0  0
 74 75  3  0  0  0  0
 15  2  1  0  0  0  0
 51 21  1  0  0  0  0
 70 57  1  0  0  0  0
 14  5  1  0  0  0  0
 50 25  2  0  0  0  0
 69 60  1  0  0  0  0
 49 27  2  0  0  0  0
 47 28  2  0  0  0  0
 33 29  2  0  0  0  0
 46 34  2  0  0  0  0
 44 35  2  0  0  0  0
 43 37  2  0  0  0  0
  1 76  1  0  0  0  0
 23 77  1  0  0  0  0
 23 78  1  0  0  0  0
 24 79  1  0  0  0  0
 24 80  1  0  0  0  0
 24 81  1  0  0  0  0
 39 82  1  0  0  0  0
 39 83  1  0  0  0  0
 40 84  1  0  0  0  0
 40 85  1  0  0  0  0
 40 86  1  0  0  0  0
 52 87  1  0  0  0  0
 52 88  1  0  0  0  0
 53 89  1  0  0  0  0
 53 90  1  0  0  0  0
 53 91  1  0  0  0  0
 54 92  1  0  0  0  0
 54 93  1  0  0  0  0
 55 94  1  0  0  0  0
 55 95  1  0  0  0  0
 55 96  1  0  0  0  0
 56 97  1  0  0  0  0
 61 98  1  0  0  0  0
 66 99  1  0  0  0  0
 66100  1  0  0  0  0
 66101  1  0  0  0  0
 67102  1  0  0  0  0
 68103  1  0  0  0  0
M  END
