177

C          5.28860       -3.13670       -7.59900
C          5.17420       -4.38450       -8.13970
C          5.83930       -4.71530       -9.41910
O          6.68980       -4.07120       -9.98560
C          5.18070       -5.96550       -9.87890
C          5.30220       -6.61980      -11.09240
Cl         6.42880       -6.10950      -12.26780
C          4.46570       -7.71800      -11.34140
Cl         4.59850       -8.57050      -12.81770
C          3.50220       -8.09470      -10.40680
Cl         2.43500       -9.38000      -10.77200
C          3.38490       -7.42960       -9.17610
Cl         2.08740       -7.83690       -8.13100
C          4.26850       -6.39880       -8.89470
C          4.44530       -5.55990       -7.71000
C          4.32310       -5.96690       -6.40790
C          4.75640       -5.17990       -5.31710
N          5.12460       -4.59570       -4.40040
C          3.95430       -7.25850       -5.97730
N          3.73500       -8.29380       -5.53370
C          4.46260       -2.52390       -6.63990
S          2.83660       -3.10000       -6.28770
C          2.65130       -1.86860       -5.11940
C          1.70410       -1.48950       -4.14560
C          2.20070       -0.43360       -3.39510
C          3.54120        0.01610       -3.94770
C          3.77150       -1.04060       -5.01390
C          4.77890       -1.39240       -5.89140
C          4.61800       -0.07360       -2.87970
C          4.78200       -1.29530       -2.23320
C          5.73340       -1.44720       -1.24620
C          6.55690       -0.38840       -0.88150
C          7.54380       -0.54060        0.23930
C          6.82920       -0.46130        1.59000
C          6.40210        0.82010       -1.54240
C          5.44160        0.98210       -2.52610
C          3.45370        1.33850       -4.68940
C          2.24680        2.00500       -4.85070
C          2.18350        3.18610       -5.56940
C          3.31780        3.72970       -6.15450
C          3.26060        5.04490       -6.87520
C          3.54680        6.19300       -5.90480
C          4.51800        3.04370       -6.01850
C          4.58410        1.86040       -5.30910
C          1.36130       -0.11260       -2.30080
C          1.50390        0.80270       -1.24180
C          2.61310        1.74010       -1.09060
C          2.87900        2.87730       -1.78830
C          3.94430        3.62500       -1.24230
C          4.48560        3.06460       -0.12850
C          5.57670        3.59140        0.73820
C          5.02110        4.11060        2.06570
S          3.68200        1.58450        0.27500
C          0.52190        0.79910       -0.26150
S          0.57190        1.88600        1.11260
C         -0.89810        1.19690        1.68800
C         -1.73280        1.41280        2.80860
C         -2.82170        0.53560        2.71900
C         -2.68980       -0.36340        1.50150
C         -2.52380       -1.77530        2.03360
C         -1.29640       -2.42260        2.01230
C         -1.16890       -3.70760        2.50780
C         -2.25800       -4.37890        3.04300
C         -2.13990       -5.80960        3.47980
C         -2.43810       -6.73900        2.30080
C         -3.47360       -3.71010        3.10920
C         -3.60290       -2.42260        2.62580
C         -3.85880       -0.15740        0.55230
C         -4.12580        1.13990        0.12600
C         -5.17130        1.39970       -0.73730
C         -5.98480        0.37260       -1.19920
C         -7.15300        0.65610       -2.09850
C         -8.42360        0.86870       -1.27320
C         -5.71450       -0.91880       -0.77230
C         -4.66190       -1.18510        0.08470
C         -1.41780        0.19210        0.88830
C         -0.62730       -0.04700       -0.26140
C         -0.78970       -0.93210       -1.34000
C          0.20550       -0.94880       -2.30270
S          0.17390       -2.09210       -3.63030
C         -1.92600       -1.83010       -1.55140
C         -2.92230       -1.66860       -2.46540
C         -3.77440       -2.78940       -2.55940
C         -3.41430       -3.80970       -1.73710
C         -4.05260       -5.14510       -1.56550
C         -3.14990       -6.26680       -2.08060
S         -2.00210       -3.40170       -0.81910
C         -3.69340        0.68530        3.77240
C         -3.27560        1.66470        4.68660
S         -1.76500        2.41520        4.19200
C         -4.00720        1.94250        5.84950
C         -3.73930        2.79530        6.88920
C         -2.55890        3.65780        7.00940
O         -1.66550        3.80910        6.19340
C         -2.65670        4.31520        8.32300
C         -1.74270        5.20200        8.88640
C         -2.09320        5.64430       10.13940
C         -3.26500        5.23020       10.78630
C         -4.17490        4.35580       10.24060
C         -3.84110        3.89770        8.96300
C         -4.54760        2.97000        8.08010
C         -5.76210        2.39210        8.34990
C         -6.46280        1.50640        7.50510
N         -7.10590        0.78350        6.88500
C         -6.50860        2.61040        9.52670
N         -7.17670        2.73580       10.45230
C         -2.98050        6.06580       12.00910
C         -3.76880        7.38780       12.17900
C         -4.14980        7.84050       10.79130
C         -3.04300        8.23500       10.17610
C         -1.89340        8.05630       11.13690
C         -2.60470        8.34920       12.46760
C         -1.67650        6.53000       11.28670
H          6.07500       -2.51620       -8.01670
H          5.73610       -0.91140       -5.97400
H          4.16200       -2.13600       -2.50890
H          5.84240       -2.40340       -0.75630
H          8.05050       -1.50460        0.15840
H          8.29780        0.24700        0.17980
H          6.29220        0.48040        1.68200
H          7.54500       -0.53680        2.40530
H          6.10710       -1.26840        1.68450
H          7.03580        1.65730       -1.28620
H          5.33100        1.94670       -2.99600
H          1.34380        1.60600       -4.41260
H          1.23350        3.69070       -5.67640
H          2.27180        5.18420       -7.31650
H          3.99950        5.06020       -7.67880
H          3.50570        7.14840       -6.42240
H          4.53510        6.07860       -5.46470
H          2.81320        6.20120       -5.10150
H          5.41180        3.43690       -6.48160
H          5.52610        1.33900       -5.23510
H          2.32040        3.18480       -2.65300
H          4.29000        4.55160       -1.66610
H          6.30380        2.80120        0.94050
H          6.08670        4.39980        0.20980
H          4.30260        4.90760        1.88890
H          4.51890        3.30870        2.60190
H          5.82520        4.49700        2.68700
H         -0.42900       -1.93450        1.59460
H         -0.20690       -4.19730        2.46590
H         -2.84340       -6.01440        4.28910
H         -1.12980       -6.00470        3.84490
H         -3.45350       -6.58180        1.94330
H         -1.75200       -6.53870        1.48090
H         -2.33280       -7.77960        2.59820
H         -4.33100       -4.20210        3.54620
H         -4.55630       -1.92150        2.69940
H         -3.50690        1.95460        0.47490
H         -5.35850        2.41480       -1.05760
H         -6.95550        1.55080       -2.69240
H         -7.30490       -0.18180       -2.78220
H         -8.29590        1.70710       -0.59210
H         -9.27040        1.07480       -1.92360
H         -8.64490       -0.01850       -0.68440
H         -6.33000       -1.73620       -1.11990
H         -4.46920       -2.20570        0.37540
H         -3.05290       -0.76670       -3.03670
H         -4.62320       -2.83100       -3.21840
H         -5.00020       -5.15360       -2.10840
H         -4.26340       -5.31500       -0.50590
H         -3.63220       -7.23190       -1.94830
H         -2.20830       -6.27020       -1.53650
H         -2.93630       -6.12500       -3.13740
H         -4.60370        0.13270        3.91920
H         -4.91420        1.35480        5.92400
H         -0.84900        5.48850        8.35440
H         -5.06860        4.04580       10.75540
H         -2.87790        5.52040       12.94510
H         -4.57410        7.34250       12.90710
H         -5.14510        7.77480       10.39250
H         -2.92860        8.56460        9.16000
H         -0.99130        8.62100       10.91650
H         -2.92630        9.38590       12.55410
H         -2.01930        8.07120       13.34300
H         -0.72250        6.29060       11.75260
