
  xtb     02022204043D
 energy: -238.315153623659 gnorm: 0.000550315755 xtb: 6.4.1 (unknown)
130146  0     0  0            999 V2000
   -1.9080   -2.0695    7.6405 C   0  0  0  0  0  0  0  0  0  0  0  0
   -1.4887   -2.3737    8.9152 C   0  0  0  0  0  0  0  0  0  0  0  0
   -0.1657   -2.0463    9.4665 C   0  0  0  0  0  0  0  0  0  0  0  0
    0.7636   -1.5096    8.9024 O   0  0  0  0  0  0  0  0  0  0  0  0
   -0.1316   -2.6694   10.8105 C   0  0  0  0  0  0  0  0  0  0  0  0
    0.8869   -2.6445   11.7443 C   0  0  0  0  0  0  0  0  0  0  0  0
    2.2579   -1.6533   11.5280 Cl  0  0  0  0  0  0  0  0  0  0  0  0
    0.7588   -3.4453   12.8874 C   0  0  0  0  0  0  0  0  0  0  0  0
    1.9714   -3.4142   14.0921 Cl  0  0  0  0  0  0  0  0  0  0  0  0
   -0.3348   -4.2990   13.0199 C   0  0  0  0  0  0  0  0  0  0  0  0
   -0.4137   -5.3550   14.3639 Cl  0  0  0  0  0  0  0  0  0  0  0  0
   -1.3690   -4.3147   12.0693 C   0  0  0  0  0  0  0  0  0  0  0  0
   -2.5946   -5.5056   12.2174 Cl  0  0  0  0  0  0  0  0  0  0  0  0
   -1.3011   -3.4324   10.9990 C   0  0  0  0  0  0  0  0  0  0  0  0
   -2.2211   -3.1293    9.9034 C   0  0  0  0  0  0  0  0  0  0  0  0
   -3.5880   -3.2590    9.9157 C   0  0  0  0  0  0  0  0  0  0  0  0
   -4.4144   -2.8344    8.8523 C   0  0  0  0  0  0  0  0  0  0  0  0
   -5.1473   -2.5023    8.0328 N   0  0  0  0  0  0  0  0  0  0  0  0
   -4.3902   -3.6344   11.0130 C   0  0  0  0  0  0  0  0  0  0  0  0
   -5.1428   -3.8284   11.8580 N   0  0  0  0  0  0  0  0  0  0  0  0
   -1.4008   -1.0718    6.7946 C   0  0  0  0  0  0  0  0  0  0  0  0
   -0.7591    0.1405    7.0792 C   0  0  0  0  0  0  0  0  0  0  0  0
   -0.5598    0.6591    8.4260 C   0  0  0  0  0  0  0  0  0  0  0  0
    0.6829    1.1637    8.8034 C   0  0  0  0  0  0  0  0  0  0  0  0
    0.9168    1.5204   10.1174 C   0  0  0  0  0  0  0  0  0  0  0  0
   -0.0733    1.3875   11.0813 C   0  0  0  0  0  0  0  0  0  0  0  0
    0.1910    1.7599   12.5102 C   0  0  0  0  0  0  0  0  0  0  0  0
   -0.0942    3.2459   12.7389 C   0  0  0  0  0  0  0  0  0  0  0  0
   -1.3319    0.9428   10.6848 C   0  0  0  0  0  0  0  0  0  0  0  0
   -1.5769    0.5843    9.3761 C   0  0  0  0  0  0  0  0  0  0  0  0
   -0.3887    0.8062    5.9071 C   0  0  0  0  0  0  0  0  0  0  0  0
    0.4525    2.3133    5.6238 S   0  0  0  0  0  0  0  0  0  0  0  0
    0.3238    2.0361    3.9225 C   0  0  0  0  0  0  0  0  0  0  0  0
    0.7767    2.6001    2.7222 C   0  0  0  0  0  0  0  0  0  0  0  0
    1.6590    3.6753    2.4695 C   0  0  0  0  0  0  0  0  0  0  0  0
    2.1529    3.8698    1.1354 C   0  0  0  0  0  0  0  0  0  0  0  0
    3.0344    4.8543    1.0633 N   0  0  0  0  0  0  0  0  0  0  0  0
    3.2208    5.4884    2.5400 S   0  0  0  0  0  0  0  0  0  0  0  0
    2.1880    4.5267    3.3334 N   0  0  0  0  0  0  0  0  0  0  0  0
    1.6428    3.0658    0.0913 C   0  0  0  0  0  0  0  0  0  0  0  0
    1.8967    3.0473   -1.2889 C   0  0  0  0  0  0  0  0  0  0  0  0
    2.9360    3.8070   -2.4460 S   0  0  0  0  0  0  0  0  0  0  0  0
    2.1864    2.8446   -3.7060 C   0  0  0  0  0  0  0  0  0  0  0  0
    2.4286    2.7174   -5.0720 C   0  0  0  0  0  0  0  0  0  0  0  0
    3.4576    3.4563   -5.7961 C   0  0  0  0  0  0  0  0  0  0  0  0
    3.5660    4.8363   -5.6374 C   0  0  0  0  0  0  0  0  0  0  0  0
    4.5022    5.5476   -6.3596 C   0  0  0  0  0  0  0  0  0  0  0  0
    5.3633    4.9058   -7.2420 C   0  0  0  0  0  0  0  0  0  0  0  0
    6.3095    5.6900   -8.0996 C   0  0  0  0  0  0  0  0  0  0  0  0
    5.6121    6.0734   -9.4074 C   0  0  0  0  0  0  0  0  0  0  0  0
    5.2844    3.5236   -7.3608 C   0  0  0  0  0  0  0  0  0  0  0  0
    4.3471    2.8043   -6.6490 C   0  0  0  0  0  0  0  0  0  0  0  0
    1.5665    1.7729   -5.6638 C   0  0  0  0  0  0  0  0  0  0  0  0
    0.4971    1.0171   -4.4857 S   0  0  0  0  0  0  0  0  0  0  0  0
    1.1756    1.9921   -3.2356 C   0  0  0  0  0  0  0  0  0  0  0  0
    1.0214    2.1112   -1.8520 C   0  0  0  0  0  0  0  0  0  0  0  0
    0.2448    1.5403   -0.8764 N   0  0  0  0  0  0  0  0  0  0  0  0
    0.6362    2.0864    0.3332 C   0  0  0  0  0  0  0  0  0  0  0  0
    0.3068    1.7602    1.6718 C   0  0  0  0  0  0  0  0  0  0  0  0
   -0.3760    0.6975    2.2291 N   0  0  0  0  0  0  0  0  0  0  0  0
   -0.3631    0.8595    3.5894 C   0  0  0  0  0  0  0  0  0  0  0  0
   -0.7676    0.1516    4.7225 C   0  0  0  0  0  0  0  0  0  0  0  0
   -1.6129   -1.3109    5.0591 S   0  0  0  0  0  0  0  0  0  0  0  0
   -0.7433   -0.5770    1.6521 C   0  0  0  0  0  0  0  0  0  0  0  0
   -2.2585   -0.7780    1.6180 C   0  0  0  0  0  0  0  0  0  0  0  0
   -1.0483    1.0068   -1.2518 C   0  0  0  0  0  0  0  0  0  0  0  0
   -1.9482    2.1027   -1.8227 C   0  0  0  0  0  0  0  0  0  0  0  0
    1.5347    1.5501   -7.0456 C   0  0  0  0  0  0  0  0  0  0  0  0
    0.8220    0.6412   -7.7867 C   0  0  0  0  0  0  0  0  0  0  0  0
   -0.1049   -0.3644   -7.2627 C   0  0  0  0  0  0  0  0  0  0  0  0
   -0.4517   -0.5243   -6.1031 O   0  0  0  0  0  0  0  0  0  0  0  0
   -0.5548   -1.1577   -8.4175 C   0  0  0  0  0  0  0  0  0  0  0  0
   -1.4305   -2.2411   -8.4001 C   0  0  0  0  0  0  0  0  0  0  0  0
   -1.6620   -2.7918   -9.6375 C   0  0  0  0  0  0  0  0  0  0  0  0
   -1.0701   -2.2968  -10.8068 C   0  0  0  0  0  0  0  0  0  0  0  0
   -0.2094   -1.2251  -10.8380 C   0  0  0  0  0  0  0  0  0  0  0  0
    0.0454   -0.6522   -9.5883 C   0  0  0  0  0  0  0  0  0  0  0  0
    0.8987    0.4795   -9.2247 C   0  0  0  0  0  0  0  0  0  0  0  0
    1.6321    1.2310  -10.1077 C   0  0  0  0  0  0  0  0  0  0  0  0
    2.4522    2.3348   -9.7928 C   0  0  0  0  0  0  0  0  0  0  0  0
    3.1410    3.2444   -9.6532 N   0  0  0  0  0  0  0  0  0  0  0  0
    1.6776    1.0063  -11.4999 C   0  0  0  0  0  0  0  0  0  0  0  0
    1.7729    0.8873  -12.6381 N   0  0  0  0  0  0  0  0  0  0  0  0
   -1.7356   -3.3327  -11.6782 C   0  0  0  0  0  0  0  0  0  0  0  0
   -0.8536   -4.5119  -12.1405 C   0  0  0  0  0  0  0  0  0  0  0  0
   -1.8516   -5.5725  -12.5457 C   0  0  0  0  0  0  0  0  0  0  0  0
   -2.4136   -6.0415  -11.4391 C   0  0  0  0  0  0  0  0  0  0  0  0
   -1.8044   -5.3063  -10.2670 C   0  0  0  0  0  0  0  0  0  0  0  0
   -0.3821   -5.0920  -10.8007 C   0  0  0  0  0  0  0  0  0  0  0  0
   -2.3961   -3.8847  -10.3742 C   0  0  0  0  0  0  0  0  0  0  0  0
   -2.6876   -2.6846    7.2055 H   0  0  0  0  0  0  0  0  0  0  0  0
    1.4768    1.2245    8.0759 H   0  0  0  0  0  0  0  0  0  0  0  0
    1.8930    1.8837   10.4036 H   0  0  0  0  0  0  0  0  0  0  0  0
   -0.4436    1.1649   13.1703 H   0  0  0  0  0  0  0  0  0  0  0  0
    1.2334    1.5510   12.7581 H   0  0  0  0  0  0  0  0  0  0  0  0
    0.5366    3.8554   12.0960 H   0  0  0  0  0  0  0  0  0  0  0  0
    0.1012    3.5142   13.7743 H   0  0  0  0  0  0  0  0  0  0  0  0
   -1.1337    3.4711   12.5114 H   0  0  0  0  0  0  0  0  0  0  0  0
   -2.1247    0.8675   11.4160 H   0  0  0  0  0  0  0  0  0  0  0  0
   -2.5592    0.2413    9.0827 H   0  0  0  0  0  0  0  0  0  0  0  0
    2.8900    5.3495   -4.9695 H   0  0  0  0  0  0  0  0  0  0  0  0
    4.5606    6.6203   -6.2440 H   0  0  0  0  0  0  0  0  0  0  0  0
    6.6304    6.5943   -7.5782 H   0  0  0  0  0  0  0  0  0  0  0  0
    7.1932    5.0899   -8.3244 H   0  0  0  0  0  0  0  0  0  0  0  0
    5.2503    5.1825   -9.9143 H   0  0  0  0  0  0  0  0  0  0  0  0
    4.7587    6.7163   -9.2048 H   0  0  0  0  0  0  0  0  0  0  0  0
    6.2987    6.6013  -10.0652 H   0  0  0  0  0  0  0  0  0  0  0  0
    5.9598    3.0062   -8.0259 H   0  0  0  0  0  0  0  0  0  0  0  0
    4.3135    1.7273   -6.7349 H   0  0  0  0  0  0  0  0  0  0  0  0
   -0.3030   -1.3625    2.2767 H   0  0  0  0  0  0  0  0  0  0  0  0
   -0.2981   -0.6575    0.6601 H   0  0  0  0  0  0  0  0  0  0  0  0
   -2.6446   -0.8952    2.6268 H   0  0  0  0  0  0  0  0  0  0  0  0
   -2.4968   -1.6750    1.0535 H   0  0  0  0  0  0  0  0  0  0  0  0
   -2.7671    0.0695    1.1636 H   0  0  0  0  0  0  0  0  0  0  0  0
   -0.8891    0.2304   -2.0060 H   0  0  0  0  0  0  0  0  0  0  0  0
   -1.5348    0.5775   -0.3845 H   0  0  0  0  0  0  0  0  0  0  0  0
   -2.9199    1.6832   -2.0675 H   0  0  0  0  0  0  0  0  0  0  0  0
   -2.0828    2.8993   -1.0936 H   0  0  0  0  0  0  0  0  0  0  0  0
   -1.5192    2.5255   -2.7266 H   0  0  0  0  0  0  0  0  0  0  0  0
    2.1929    2.2109   -7.5964 H   0  0  0  0  0  0  0  0  0  0  0  0
   -1.8670   -2.5857   -7.4756 H   0  0  0  0  0  0  0  0  0  0  0  0
    0.2320   -0.8567  -11.7485 H   0  0  0  0  0  0  0  0  0  0  0  0
   -2.3795   -2.9480  -12.4666 H   0  0  0  0  0  0  0  0  0  0  0  0
   -0.0919   -4.2514  -12.8701 H   0  0  0  0  0  0  0  0  0  0  0  0
   -2.0785   -5.8244  -13.5649 H   0  0  0  0  0  0  0  0  0  0  0  0
   -3.2038   -6.7637  -11.3491 H   0  0  0  0  0  0  0  0  0  0  0  0
   -1.9088   -5.7711   -9.2902 H   0  0  0  0  0  0  0  0  0  0  0  0
    0.1562   -6.0300  -10.9253 H   0  0  0  0  0  0  0  0  0  0  0  0
    0.2168   -4.4050  -10.2055 H   0  0  0  0  0  0  0  0  0  0  0  0
   -3.4814   -3.8677  -10.2925 H   0  0  0  0  0  0  0  0  0  0  0  0
  1  2  2  0  0  0  0
  2  3  1  0  0  0  0
  3  4  2  0  0  0  0
  3  5  1  0  0  0  0
  5  6  2  0  0  0  0
  6  7  1  0  0  0  0
  6  8  1  0  0  0  0
  8  9  1  0  0  0  0
  8 10  2  0  0  0  0
 10 11  1  0  0  0  0
 10 12  1  0  0  0  0
 12 13  1  0  0  0  0
 12 14  2  0  0  0  0
 14 15  1  0  0  0  0
 15 16  2  0  0  0  0
 16 17  1  0  0  0  0
 17 18  3  0  0  0  0
 16 19  1  0  0  0  0
 19 20  3  0  0  0  0
  1 21  1  0  0  0  0
 21 22  2  0  0  0  0
 22 23  1  0  0  0  0
 23 24  2  0  0  0  0
 24 25  1  0  0  0  0
 25 26  2  0  0  0  0
 26 27  1  0  0  0  0
 27 28  1  0  0  0  0
 26 29  1  0  0  0  0
 29 30  2  0  0  0  0
 22 31  1  0  0  0  0
 31 32  1  0  0  0  0
 32 33  1  0  0  0  0
 33 34  1  0  0  0  0
 34 35  1  0  0  0  0
 35 36  1  0  0  0  0
 36 37  2  0  0  0  0
 37 38  1  0  0  0  0
 38 39  1  0  0  0  0
 36 40  1  0  0  0  0
 40 41  1  0  0  0  0
 41 42  1  0  0  0  0
 42 43  1  0  0  0  0
 43 44  1  0  0  0  0
 44 45  1  0  0  0  0
 45 46  2  0  0  0  0
 46 47  1  0  0  0  0
 47 48  2  0  0  0  0
 48 49  1  0  0  0  0
 49 50  1  0  0  0  0
 48 51  1  0  0  0  0
 51 52  2  0  0  0  0
 44 53  2  0  0  0  0
 53 54  1  0  0  0  0
 54 55  1  0  0  0  0
 55 56  1  0  0  0  0
 56 57  1  0  0  0  0
 57 58  1  0  0  0  0
 58 59  1  0  0  0  0
 59 60  1  0  0  0  0
 60 61  1  0  0  0  0
 61 62  1  0  0  0  0
 62 63  1  0  0  0  0
 60 64  1  0  0  0  0
 64 65  1  0  0  0  0
 57 66  1  0  0  0  0
 66 67  1  0  0  0  0
 53 68  1  0  0  0  0
 68 69  2  0  0  0  0
 69 70  1  0  0  0  0
 70 71  2  0  0  0  0
 70 72  1  0  0  0  0
 72 73  2  0  0  0  0
 73 74  1  0  0  0  0
 74 75  2  0  0  0  0
 75 76  1  0  0  0  0
 76 77  2  0  0  0  0
 77 78  1  0  0  0  0
 78 79  2  0  0  0  0
 79 80  1  0  0  0  0
 80 81  3  0  0  0  0
 79 82  1  0  0  0  0
 82 83  3  0  0  0  0
 75 84  1  0  0  0  0
 84 85  1  0  0  0  0
 85 86  1  0  0  0  0
 86 87  2  0  0  0  0
 87 88  1  0  0  0  0
 88 89  1  0  0  0  0
 88 90  1  0  0  0  0
 15  2  1  0  0  0  0
 63 21  1  0  0  0  0
 78 69  1  0  0  0  0
 90 84  1  0  0  0  0
 14  5  1  0  0  0  0
 30 23  1  0  0  0  0
 62 31  2  0  0  0  0
 77 72  1  0  0  0  0
 89 85  1  0  0  0  0
 61 33  2  0  0  0  0
 90 74  1  0  0  0  0
 59 34  2  0  0  0  0
 39 35  2  0  0  0  0
 58 40  2  0  0  0  0
 56 41  2  0  0  0  0
 55 43  2  0  0  0  0
 52 45  1  0  0  0  0
  1 91  1  0  0  0  0
 24 92  1  0  0  0  0
 25 93  1  0  0  0  0
 27 94  1  0  0  0  0
 27 95  1  0  0  0  0
 28 96  1  0  0  0  0
 28 97  1  0  0  0  0
 28 98  1  0  0  0  0
 29 99  1  0  0  0  0
 30100  1  0  0  0  0
 46101  1  0  0  0  0
 47102  1  0  0  0  0
 49103  1  0  0  0  0
 49104  1  0  0  0  0
 50105  1  0  0  0  0
 50106  1  0  0  0  0
 50107  1  0  0  0  0
 51108  1  0  0  0  0
 52109  1  0  0  0  0
 64110  1  0  0  0  0
 64111  1  0  0  0  0
 65112  1  0  0  0  0
 65113  1  0  0  0  0
 65114  1  0  0  0  0
 66115  1  0  0  0  0
 66116  1  0  0  0  0
 67117  1  0  0  0  0
 67118  1  0  0  0  0
 67119  1  0  0  0  0
 68120  1  0  0  0  0
 73121  1  0  0  0  0
 76122  1  0  0  0  0
 84123  1  0  0  0  0
 85124  1  0  0  0  0
 86125  1  0  0  0  0
 87126  1  0  0  0  0
 88127  1  0  0  0  0
 89128  1  0  0  0  0
 89129  1  0  0  0  0
 90130  1  0  0  0  0
M  END
