
  xtb     02012219453D
 energy: -224.333115424693 gnorm: 0.000470582921 xtb: 6.4.1 (unknown)
117130  0     0  0            999 V2000
    3.7804    3.1844    5.7283 C   0  0  0  0  0  0  0  0  0  0  0  0
    2.8859    3.6493    6.6618 C   0  0  0  0  0  0  0  0  0  0  0  0
    1.4470    3.8012    6.4735 C   0  0  0  0  0  0  0  0  0  0  0  0
    0.7747    3.4245    5.5313 O   0  0  0  0  0  0  0  0  0  0  0  0
    0.9634    4.5504    7.6556 C   0  0  0  0  0  0  0  0  0  0  0  0
   -0.3038    5.0457    7.9042 C   0  0  0  0  0  0  0  0  0  0  0  0
   -1.6155    4.6955    6.8712 Cl  0  0  0  0  0  0  0  0  0  0  0  0
   -0.4879    5.8601    9.0305 C   0  0  0  0  0  0  0  0  0  0  0  0
   -2.0426    6.4705    9.3970 Cl  0  0  0  0  0  0  0  0  0  0  0  0
    0.6026    6.2100    9.8243 C   0  0  0  0  0  0  0  0  0  0  0  0
    0.3724    7.2871   11.1330 Cl  0  0  0  0  0  0  0  0  0  0  0  0
    1.8891    5.7096    9.5616 C   0  0  0  0  0  0  0  0  0  0  0  0
    3.2029    6.3290   10.4732 Cl  0  0  0  0  0  0  0  0  0  0  0  0
    2.0528    4.8152    8.5118 C   0  0  0  0  0  0  0  0  0  0  0  0
    3.2204    4.0990    7.9991 C   0  0  0  0  0  0  0  0  0  0  0  0
    4.3307    3.7197    8.7082 C   0  0  0  0  0  0  0  0  0  0  0  0
    5.4179    2.9958    8.1683 C   0  0  0  0  0  0  0  0  0  0  0  0
    6.3455    2.4161    7.8183 N   0  0  0  0  0  0  0  0  0  0  0  0
    4.4946    3.8191   10.1071 C   0  0  0  0  0  0  0  0  0  0  0  0
    4.6836    3.7566   11.2374 N   0  0  0  0  0  0  0  0  0  0  0  0
    3.5713    2.6676    4.4484 C   0  0  0  0  0  0  0  0  0  0  0  0
    4.6448    2.2657    3.6307 C   0  0  0  0  0  0  0  0  0  0  0  0
    6.0512    2.4336    4.0250 C   0  0  0  0  0  0  0  0  0  0  0  0
    6.5796    3.7205    4.0755 C   0  0  0  0  0  0  0  0  0  0  0  0
    7.8927    3.9262    4.4514 C   0  0  0  0  0  0  0  0  0  0  0  0
    8.6842    2.8429    4.7910 C   0  0  0  0  0  0  0  0  0  0  0  0
    8.1584    1.5652    4.7493 C   0  0  0  0  0  0  0  0  0  0  0  0
    6.8442    1.3356    4.3658 C   0  0  0  0  0  0  0  0  0  0  0  0
    6.2816   -0.0560    4.4127 C   0  0  0  0  0  0  0  0  0  0  0  0
    5.5064   -0.2772    5.7139 C   0  0  0  0  0  0  0  0  0  0  0  0
    4.2010    1.7277    2.4315 C   0  0  0  0  0  0  0  0  0  0  0  0
    5.0421    1.1150    1.0201 S   0  0  0  0  0  0  0  0  0  0  0  0
    3.5072    0.8143    0.2807 C   0  0  0  0  0  0  0  0  0  0  0  0
    2.9908    0.3491   -0.9357 C   0  0  0  0  0  0  0  0  0  0  0  0
    3.6294    0.0225   -2.1533 C   0  0  0  0  0  0  0  0  0  0  0  0
    2.8229   -0.2695   -3.3027 C   0  0  0  0  0  0  0  0  0  0  0  0
    3.5488   -0.4852   -4.3881 N   0  0  0  0  0  0  0  0  0  0  0  0
    5.1126   -0.3411   -3.9967 S   0  0  0  0  0  0  0  0  0  0  0  0
    4.9241    0.0058   -2.4275 N   0  0  0  0  0  0  0  0  0  0  0  0
    1.4216   -0.3618   -3.1463 C   0  0  0  0  0  0  0  0  0  0  0  0
    0.4208   -0.7880   -4.0304 C   0  0  0  0  0  0  0  0  0  0  0  0
    0.2639   -1.3054   -5.6727 S   0  0  0  0  0  0  0  0  0  0  0  0
   -1.4207   -1.6581   -5.3679 C   0  0  0  0  0  0  0  0  0  0  0  0
   -2.4387   -2.1709   -6.1764 C   0  0  0  0  0  0  0  0  0  0  0  0
   -2.2872   -2.4740   -7.6087 C   0  0  0  0  0  0  0  0  0  0  0  0
   -1.6023   -3.6075   -8.0467 C   0  0  0  0  0  0  0  0  0  0  0  0
   -1.1068   -4.6462   -7.0837 C   0  0  0  0  0  0  0  0  0  0  0  0
   -2.1778   -5.7206   -6.8830 C   0  0  0  0  0  0  0  0  0  0  0  0
   -1.4628   -3.8063   -9.4147 C   0  0  0  0  0  0  0  0  0  0  0  0
   -1.9865   -2.9114  -10.3287 C   0  0  0  0  0  0  0  0  0  0  0  0
   -2.6737   -1.7940   -9.8851 C   0  0  0  0  0  0  0  0  0  0  0  0
   -2.8230   -1.5779   -8.5290 C   0  0  0  0  0  0  0  0  0  0  0  0
   -3.6247   -2.3350   -5.4658 C   0  0  0  0  0  0  0  0  0  0  0  0
   -3.4845   -1.7569   -3.8070 S   0  0  0  0  0  0  0  0  0  0  0  0
   -1.8228   -1.3720   -4.0540 C   0  0  0  0  0  0  0  0  0  0  0  0
   -0.7699   -0.8604   -3.2937 C   0  0  0  0  0  0  0  0  0  0  0  0
   -0.5452   -0.4674   -2.0013 N   0  0  0  0  0  0  0  0  0  0  0  0
    0.7910   -0.1330   -1.8889 C   0  0  0  0  0  0  0  0  0  0  0  0
    1.5702    0.3629   -0.8123 C   0  0  0  0  0  0  0  0  0  0  0  0
    1.2401    0.8714    0.4321 N   0  0  0  0  0  0  0  0  0  0  0  0
    2.4116    1.1536    1.0859 C   0  0  0  0  0  0  0  0  0  0  0  0
    2.7975    1.6933    2.3151 C   0  0  0  0  0  0  0  0  0  0  0  0
    2.0087    2.3564    3.6975 S   0  0  0  0  0  0  0  0  0  0  0  0
    0.0307    1.5493    0.8498 C   0  0  0  0  0  0  0  0  0  0  0  0
   -0.1833    2.8269    0.0416 C   0  0  0  0  0  0  0  0  0  0  0  0
   -1.5059   -0.8049   -0.9736 C   0  0  0  0  0  0  0  0  0  0  0  0
   -2.6797    0.1712   -0.9329 C   0  0  0  0  0  0  0  0  0  0  0  0
   -4.8261   -2.8380   -6.0001 C   0  0  0  0  0  0  0  0  0  0  0  0
   -5.9536   -3.2630   -5.3601 C   0  0  0  0  0  0  0  0  0  0  0  0
   -7.2440   -3.2895   -6.0976 C   0  0  0  0  0  0  0  0  0  0  0  0
   -7.3997   -3.2025   -7.2942 O   0  0  0  0  0  0  0  0  0  0  0  0
   -8.2817   -3.3804   -5.0485 C   0  0  0  0  0  0  0  0  0  0  0  0
   -9.6569   -3.3228   -5.1719 C   0  0  0  0  0  0  0  0  0  0  0  0
  -10.4305   -3.4032   -4.0247 C   0  0  0  0  0  0  0  0  0  0  0  0
   -9.8188   -3.5355   -2.7829 C   0  0  0  0  0  0  0  0  0  0  0  0
  -10.7996   -3.6175   -1.3691 Cl  0  0  0  0  0  0  0  0  0  0  0  0
   -8.4359   -3.6052   -2.6435 C   0  0  0  0  0  0  0  0  0  0  0  0
   -7.6678   -3.5287   -3.7912 C   0  0  0  0  0  0  0  0  0  0  0  0
   -6.2203   -3.6191   -3.9862 C   0  0  0  0  0  0  0  0  0  0  0  0
   -5.3457   -4.2141   -3.1142 C   0  0  0  0  0  0  0  0  0  0  0  0
   -5.6748   -4.5908   -1.7975 C   0  0  0  0  0  0  0  0  0  0  0  0
   -5.8706   -4.8861   -0.7054 N   0  0  0  0  0  0  0  0  0  0  0  0
   -4.0360   -4.5979   -3.4707 C   0  0  0  0  0  0  0  0  0  0  0  0
   -2.9857   -4.9777   -3.7370 N   0  0  0  0  0  0  0  0  0  0  0  0
    4.8298    3.2356    5.9946 H   0  0  0  0  0  0  0  0  0  0  0  0
    5.9508    4.5584    3.8080 H   0  0  0  0  0  0  0  0  0  0  0  0
    8.2932    4.9283    4.4838 H   0  0  0  0  0  0  0  0  0  0  0  0
    9.7088    2.9948    5.0947 H   0  0  0  0  0  0  0  0  0  0  0  0
    8.7757    0.7238    5.0277 H   0  0  0  0  0  0  0  0  0  0  0  0
    5.6219   -0.2340    3.5621 H   0  0  0  0  0  0  0  0  0  0  0  0
    7.1007   -0.7748    4.3596 H   0  0  0  0  0  0  0  0  0  0  0  0
    5.1933   -1.3154    5.7953 H   0  0  0  0  0  0  0  0  0  0  0  0
    6.1291   -0.0286    6.5697 H   0  0  0  0  0  0  0  0  0  0  0  0
    4.6205    0.3533    5.7474 H   0  0  0  0  0  0  0  0  0  0  0  0
   -0.2005   -5.1090   -7.4784 H   0  0  0  0  0  0  0  0  0  0  0  0
   -0.8702   -4.1989   -6.1182 H   0  0  0  0  0  0  0  0  0  0  0  0
   -1.8287   -6.4731   -6.1815 H   0  0  0  0  0  0  0  0  0  0  0  0
   -3.0866   -5.2781   -6.4809 H   0  0  0  0  0  0  0  0  0  0  0  0
   -2.4177   -6.2024   -7.8284 H   0  0  0  0  0  0  0  0  0  0  0  0
   -0.9335   -4.6815   -9.7632 H   0  0  0  0  0  0  0  0  0  0  0  0
   -1.8634   -3.0863  -11.3870 H   0  0  0  0  0  0  0  0  0  0  0  0
   -3.0908   -1.0925  -10.5914 H   0  0  0  0  0  0  0  0  0  0  0  0
   -3.3504   -0.7048   -8.1713 H   0  0  0  0  0  0  0  0  0  0  0  0
   -0.8349    0.8981    0.7675 H   0  0  0  0  0  0  0  0  0  0  0  0
    0.1599    1.7998    1.9053 H   0  0  0  0  0  0  0  0  0  0  0  0
   -0.2914    2.6003   -1.0173 H   0  0  0  0  0  0  0  0  0  0  0  0
   -1.0772    3.3380    0.3882 H   0  0  0  0  0  0  0  0  0  0  0  0
    0.6656    3.4954    0.1642 H   0  0  0  0  0  0  0  0  0  0  0  0
   -0.9880   -0.8675   -0.0161 H   0  0  0  0  0  0  0  0  0  0  0  0
   -1.8928   -1.8052   -1.2005 H   0  0  0  0  0  0  0  0  0  0  0  0
   -3.2466    0.1101   -1.8582 H   0  0  0  0  0  0  0  0  0  0  0  0
   -2.3450    1.1969   -0.8081 H   0  0  0  0  0  0  0  0  0  0  0  0
   -3.3412   -0.0881   -0.1109 H   0  0  0  0  0  0  0  0  0  0  0  0
   -4.8910   -2.8149   -7.0845 H   0  0  0  0  0  0  0  0  0  0  0  0
  -10.1098   -3.2191   -6.1456 H   0  0  0  0  0  0  0  0  0  0  0  0
  -11.5065   -3.3625   -4.0848 H   0  0  0  0  0  0  0  0  0  0  0  0
   -7.9955   -3.7053   -1.6648 H   0  0  0  0  0  0  0  0  0  0  0  0
  1  2  2  0  0  0  0
  2  3  1  0  0  0  0
  3  4  2  0  0  0  0
  3  5  1  0  0  0  0
  5  6  2  0  0  0  0
  6  7  1  0  0  0  0
  6  8  1  0  0  0  0
  8  9  1  0  0  0  0
  8 10  2  0  0  0  0
 10 11  1  0  0  0  0
 10 12  1  0  0  0  0
 12 13  1  0  0  0  0
 12 14  2  0  0  0  0
 14 15  1  0  0  0  0
 15 16  2  0  0  0  0
 16 17  1  0  0  0  0
 17 18  3  0  0  0  0
 16 19  1  0  0  0  0
 19 20  3  0  0  0  0
  1 21  1  0  0  0  0
 21 22  2  0  0  0  0
 22 23  1  0  0  0  0
 23 24  2  0  0  0  0
 24 25  1  0  0  0  0
 25 26  2  0  0  0  0
 26 27  1  0  0  0  0
 27 28  2  0  0  0  0
 28 29  1  0  0  0  0
 29 30  1  0  0  0  0
 22 31  1  0  0  0  0
 31 32  1  0  0  0  0
 32 33  1  0  0  0  0
 33 34  1  0  0  0  0
 34 35  1  0  0  0  0
 35 36  1  0  0  0  0
 36 37  2  0  0  0  0
 37 38  1  0  0  0  0
 38 39  1  0  0  0  0
 36 40  1  0  0  0  0
 40 41  1  0  0  0  0
 41 42  1  0  0  0  0
 42 43  1  0  0  0  0
 43 44  1  0  0  0  0
 44 45  1  0  0  0  0
 45 46  2  0  0  0  0
 46 47  1  0  0  0  0
 47 48  1  0  0  0  0
 46 49  1  0  0  0  0
 49 50  2  0  0  0  0
 50 51  1  0  0  0  0
 51 52  2  0  0  0  0
 44 53  2  0  0  0  0
 53 54  1  0  0  0  0
 54 55  1  0  0  0  0
 55 56  1  0  0  0  0
 56 57  1  0  0  0  0
 57 58  1  0  0  0  0
 58 59  1  0  0  0  0
 59 60  1  0  0  0  0
 60 61  1  0  0  0  0
 61 62  1  0  0  0  0
 62 63  1  0  0  0  0
 60 64  1  0  0  0  0
 64 65  1  0  0  0  0
 57 66  1  0  0  0  0
 66 67  1  0  0  0  0
 53 68  1  0  0  0  0
 68 69  2  0  0  0  0
 69 70  1  0  0  0  0
 70 71  2  0  0  0  0
 70 72  1  0  0  0  0
 72 73  2  0  0  0  0
 73 74  1  0  0  0  0
 74 75  2  0  0  0  0
 75 76  1  0  0  0  0
 75 77  1  0  0  0  0
 77 78  2  0  0  0  0
 78 79  1  0  0  0  0
 79 80  2  0  0  0  0
 80 81  1  0  0  0  0
 81 82  3  0  0  0  0
 80 83  1  0  0  0  0
 83 84  3  0  0  0  0
 15  2  1  0  0  0  0
 63 21  1  0  0  0  0
 79 69  1  0  0  0  0
 14  5  1  0  0  0  0
 28 23  1  0  0  0  0
 62 31  2  0  0  0  0
 78 72  1  0  0  0  0
 61 33  2  0  0  0  0
 59 34  2  0  0  0  0
 39 35  2  0  0  0  0
 58 40  2  0  0  0  0
 56 41  2  0  0  0  0
 55 43  2  0  0  0  0
 52 45  1  0  0  0  0
  1 85  1  0  0  0  0
 24 86  1  0  0  0  0
 25 87  1  0  0  0  0
 26 88  1  0  0  0  0
 27 89  1  0  0  0  0
 29 90  1  0  0  0  0
 29 91  1  0  0  0  0
 30 92  1  0  0  0  0
 30 93  1  0  0  0  0
 30 94  1  0  0  0  0
 47 95  1  0  0  0  0
 47 96  1  0  0  0  0
 48 97  1  0  0  0  0
 48 98  1  0  0  0  0
 48 99  1  0  0  0  0
 49100  1  0  0  0  0
 50101  1  0  0  0  0
 51102  1  0  0  0  0
 52103  1  0  0  0  0
 64104  1  0  0  0  0
 64105  1  0  0  0  0
 65106  1  0  0  0  0
 65107  1  0  0  0  0
 65108  1  0  0  0  0
 66109  1  0  0  0  0
 66110  1  0  0  0  0
 67111  1  0  0  0  0
 67112  1  0  0  0  0
 67113  1  0  0  0  0
 68114  1  0  0  0  0
 73115  1  0  0  0  0
 74116  1  0  0  0  0
 77117  1  0  0  0  0
M  END
