
  xtb     02022213163D
 energy: -219.550644667793 gnorm: 0.000525290174 xtb: 6.4.1 (unknown)
125139  0     0  0            999 V2000
   -6.3910   -4.6348   -5.5874 C   0  0  0  0  0  0  0  0  0  0  0  0
   -6.8446   -4.6519   -6.8783 C   0  0  0  0  0  0  0  0  0  0  0  0
   -6.4501   -3.7709   -7.9966 C   0  0  0  0  0  0  0  0  0  0  0  0
   -5.8378   -2.7280   -7.9696 O   0  0  0  0  0  0  0  0  0  0  0  0
   -6.8882   -4.4826   -9.2269 C   0  0  0  0  0  0  0  0  0  0  0  0
   -6.6436   -4.1436  -10.5458 C   0  0  0  0  0  0  0  0  0  0  0  0
   -5.8824   -2.6748  -10.9653 Cl  0  0  0  0  0  0  0  0  0  0  0  0
   -7.0311   -5.0466  -11.5460 C   0  0  0  0  0  0  0  0  0  0  0  0
   -6.7793   -4.6561  -13.1921 Cl  0  0  0  0  0  0  0  0  0  0  0  0
   -7.5798   -6.2798  -11.2003 C   0  0  0  0  0  0  0  0  0  0  0  0
   -7.9498   -7.4069  -12.4333 Cl  0  0  0  0  0  0  0  0  0  0  0  0
   -7.8196   -6.6206   -9.8596 C   0  0  0  0  0  0  0  0  0  0  0  0
   -8.3315   -8.2191   -9.5035 Cl  0  0  0  0  0  0  0  0  0  0  0  0
   -7.5345   -5.6836   -8.8748 C   0  0  0  0  0  0  0  0  0  0  0  0
   -7.6859   -5.7047   -7.4239 C   0  0  0  0  0  0  0  0  0  0  0  0
   -8.6156   -6.4065   -6.7019 C   0  0  0  0  0  0  0  0  0  0  0  0
   -8.7380   -6.3342   -5.2958 C   0  0  0  0  0  0  0  0  0  0  0  0
   -8.9031   -6.3387   -4.1595 N   0  0  0  0  0  0  0  0  0  0  0  0
   -9.6908   -7.1527   -7.2298 C   0  0  0  0  0  0  0  0  0  0  0  0
  -10.6497   -7.6960   -7.5504 N   0  0  0  0  0  0  0  0  0  0  0  0
   -5.6579   -3.6495   -4.8656 C   0  0  0  0  0  0  0  0  0  0  0  0
   -5.6865   -2.2695   -5.1719 C   0  0  0  0  0  0  0  0  0  0  0  0
   -4.9587   -1.3570   -4.4554 C   0  0  0  0  0  0  0  0  0  0  0  0
   -4.1528   -1.7916   -3.3966 C   0  0  0  0  0  0  0  0  0  0  0  0
   -3.2606   -1.2019   -2.4819 C   0  0  0  0  0  0  0  0  0  0  0  0
   -2.7873   -2.2102   -1.6329 C   0  0  0  0  0  0  0  0  0  0  0  0
   -3.3216   -3.4142   -1.9780 N   0  0  0  0  0  0  0  0  0  0  0  0
   -4.1598   -3.1883   -3.0471 C   0  0  0  0  0  0  0  0  0  0  0  0
   -4.9140   -4.0921   -3.7573 C   0  0  0  0  0  0  0  0  0  0  0  0
   -3.1417   -4.6575   -1.2743 C   0  0  0  0  0  0  0  0  0  0  0  0
   -4.3120   -4.9442   -0.3352 C   0  0  0  0  0  0  0  0  0  0  0  0
   -1.9164   -1.6074   -0.7181 C   0  0  0  0  0  0  0  0  0  0  0  0
   -1.2212   -2.1306    0.3891 C   0  0  0  0  0  0  0  0  0  0  0  0
   -0.4502   -1.2644    1.2021 C   0  0  0  0  0  0  0  0  0  0  0  0
    0.0727   -1.9941    2.1914 N   0  0  0  0  0  0  0  0  0  0  0  0
   -0.3730   -3.2077    1.9655 N   0  0  0  0  0  0  0  0  0  0  0  0
   -0.0060   -4.3144    2.7994 C   0  0  0  0  0  0  0  0  0  0  0  0
    1.3238   -4.9150    2.3518 C   0  0  0  0  0  0  0  0  0  0  0  0
   -1.1399   -3.3581    0.9104 N   0  0  0  0  0  0  0  0  0  0  0  0
   -0.3267    0.0931    0.8494 C   0  0  0  0  0  0  0  0  0  0  0  0
   -0.9840    0.6314   -0.3049 C   0  0  0  0  0  0  0  0  0  0  0  0
   -1.8527   -0.2154   -1.0554 C   0  0  0  0  0  0  0  0  0  0  0  0
   -2.7087    0.0028   -2.1247 N   0  0  0  0  0  0  0  0  0  0  0  0
   -3.1795    1.1953   -2.7847 C   0  0  0  0  0  0  0  0  0  0  0  0
   -2.5392    1.3675   -4.1637 C   0  0  0  0  0  0  0  0  0  0  0  0
   -0.5761    1.9498   -0.4495 N   0  0  0  0  0  0  0  0  0  0  0  0
   -0.7685    2.9380   -1.4814 C   0  0  0  0  0  0  0  0  0  0  0  0
   -1.7669    4.0147   -1.0516 C   0  0  0  0  0  0  0  0  0  0  0  0
    0.2816    2.2459    0.5796 C   0  0  0  0  0  0  0  0  0  0  0  0
    0.4462    1.1235    1.3998 C   0  0  0  0  0  0  0  0  0  0  0  0
    1.3380    1.3872    2.3934 N   0  0  0  0  0  0  0  0  0  0  0  0
    1.7301    0.4988    3.4568 C   0  0  0  0  0  0  0  0  0  0  0  0
    0.9563    0.7918    4.7412 C   0  0  0  0  0  0  0  0  0  0  0  0
    1.7628    2.6829    2.2174 C   0  0  0  0  0  0  0  0  0  0  0  0
    1.1212    3.2655    1.0719 C   0  0  0  0  0  0  0  0  0  0  0  0
    1.4262    4.5886    0.7294 C   0  0  0  0  0  0  0  0  0  0  0  0
    2.3425    5.2766    1.4786 C   0  0  0  0  0  0  0  0  0  0  0  0
    3.0166    4.6864    2.5769 C   0  0  0  0  0  0  0  0  0  0  0  0
    2.6884    3.3835    2.9613 C   0  0  0  0  0  0  0  0  0  0  0  0
    3.9845    5.4862    3.2604 C   0  0  0  0  0  0  0  0  0  0  0  0
    5.0612    5.1293    4.0194 C   0  0  0  0  0  0  0  0  0  0  0  0
    5.7080    3.7986    4.1359 C   0  0  0  0  0  0  0  0  0  0  0  0
    5.2870    2.7090    3.8036 O   0  0  0  0  0  0  0  0  0  0  0  0
    7.0429    4.0530    4.7128 C   0  0  0  0  0  0  0  0  0  0  0  0
    8.0457    3.1100    4.9274 C   0  0  0  0  0  0  0  0  0  0  0  0
    9.1955    3.6297    5.4704 C   0  0  0  0  0  0  0  0  0  0  0  0
    9.3428    4.9911    5.7690 C   0  0  0  0  0  0  0  0  0  0  0  0
    8.3626    5.9316    5.5614 C   0  0  0  0  0  0  0  0  0  0  0  0
    7.1797    5.4203    5.0192 C   0  0  0  0  0  0  0  0  0  0  0  0
    5.9347    6.0944    4.6702 C   0  0  0  0  0  0  0  0  0  0  0  0
    5.6149    7.3890    4.9865 C   0  0  0  0  0  0  0  0  0  0  0  0
    4.3649    8.0009    4.7523 C   0  0  0  0  0  0  0  0  0  0  0  0
    3.3755    8.5711    4.6262 N   0  0  0  0  0  0  0  0  0  0  0  0
    6.4830    8.2856    5.6432 C   0  0  0  0  0  0  0  0  0  0  0  0
    7.1377    9.0670    6.1717 N   0  0  0  0  0  0  0  0  0  0  0  0
   10.7484    4.8078    6.2836 C   0  0  0  0  0  0  0  0  0  0  0  0
   10.9588    4.8060    7.8178 C   0  0  0  0  0  0  0  0  0  0  0  0
    9.6596    4.3417    8.4280 C   0  0  0  0  0  0  0  0  0  0  0  0
    9.5194    3.0526    8.1494 C   0  0  0  0  0  0  0  0  0  0  0  0
   10.7210    2.6221    7.3449 C   0  0  0  0  0  0  0  0  0  0  0  0
   11.7988    3.5270    7.9630 C   0  0  0  0  0  0  0  0  0  0  0  0
   10.5832    3.2906    5.9545 C   0  0  0  0  0  0  0  0  0  0  0  0
   -6.5617   -5.5474   -5.0259 H   0  0  0  0  0  0  0  0  0  0  0  0
   -6.3135   -1.9277   -5.9757 H   0  0  0  0  0  0  0  0  0  0  0  0
   -5.0148   -0.3103   -4.7124 H   0  0  0  0  0  0  0  0  0  0  0  0
   -4.9154   -5.1406   -3.4990 H   0  0  0  0  0  0  0  0  0  0  0  0
   -2.2218   -4.5727   -0.6915 H   0  0  0  0  0  0  0  0  0  0  0  0
   -3.0349   -5.4649   -2.0052 H   0  0  0  0  0  0  0  0  0  0  0  0
   -4.3820   -4.1622    0.4168 H   0  0  0  0  0  0  0  0  0  0  0  0
   -4.1592   -5.8956    0.1662 H   0  0  0  0  0  0  0  0  0  0  0  0
   -5.2495   -4.9836   -0.8848 H   0  0  0  0  0  0  0  0  0  0  0  0
   -0.8048   -5.0551    2.7278 H   0  0  0  0  0  0  0  0  0  0  0  0
    0.0709   -3.9455    3.8245 H   0  0  0  0  0  0  0  0  0  0  0  0
    1.5882   -5.7489    2.9956 H   0  0  0  0  0  0  0  0  0  0  0  0
    2.1097   -4.1657    2.4064 H   0  0  0  0  0  0  0  0  0  0  0  0
    1.2496   -5.2721    1.3274 H   0  0  0  0  0  0  0  0  0  0  0  0
   -4.2623    1.0845   -2.9108 H   0  0  0  0  0  0  0  0  0  0  0  0
   -3.0172    2.0616   -2.1506 H   0  0  0  0  0  0  0  0  0  0  0  0
   -1.4528    1.3758   -4.1011 H   0  0  0  0  0  0  0  0  0  0  0  0
   -2.8727    2.2979   -4.6158 H   0  0  0  0  0  0  0  0  0  0  0  0
   -2.8227    0.5426   -4.8120 H   0  0  0  0  0  0  0  0  0  0  0  0
    0.2049    3.4100   -1.6547 H   0  0  0  0  0  0  0  0  0  0  0  0
   -1.0637    2.4601   -2.4100 H   0  0  0  0  0  0  0  0  0  0  0  0
   -1.9106    4.7321   -1.8554 H   0  0  0  0  0  0  0  0  0  0  0  0
   -1.3928    4.5395   -0.1763 H   0  0  0  0  0  0  0  0  0  0  0  0
   -2.7309    3.5838   -0.7887 H   0  0  0  0  0  0  0  0  0  0  0  0
    1.5188   -0.5212    3.1278 H   0  0  0  0  0  0  0  0  0  0  0  0
    2.8043    0.6130    3.6272 H   0  0  0  0  0  0  0  0  0  0  0  0
    1.2844    0.1224    5.5314 H   0  0  0  0  0  0  0  0  0  0  0  0
   -0.1083    0.6420    4.5775 H   0  0  0  0  0  0  0  0  0  0  0  0
    1.1180    1.8181    5.0625 H   0  0  0  0  0  0  0  0  0  0  0  0
    0.9496    5.0678   -0.1127 H   0  0  0  0  0  0  0  0  0  0  0  0
    2.5840    6.2963    1.2167 H   0  0  0  0  0  0  0  0  0  0  0  0
    3.1481    2.9400    3.8258 H   0  0  0  0  0  0  0  0  0  0  0  0
    3.8630    6.5506    3.0884 H   0  0  0  0  0  0  0  0  0  0  0  0
    7.8927    2.0722    4.6751 H   0  0  0  0  0  0  0  0  0  0  0  0
    8.4940    6.9766    5.7875 H   0  0  0  0  0  0  0  0  0  0  0  0
   11.5246    5.3616    5.7591 H   0  0  0  0  0  0  0  0  0  0  0  0
   11.3742    5.7271    8.2174 H   0  0  0  0  0  0  0  0  0  0  0  0
    8.9700    4.9918    8.9339 H   0  0  0  0  0  0  0  0  0  0  0  0
    8.6889    2.4098    8.3761 H   0  0  0  0  0  0  0  0  0  0  0  0
   10.9213    1.5541    7.3146 H   0  0  0  0  0  0  0  0  0  0  0  0
   12.7261    3.5497    7.3920 H   0  0  0  0  0  0  0  0  0  0  0  0
   12.0123    3.2788    9.0016 H   0  0  0  0  0  0  0  0  0  0  0  0
   11.2526    2.8532    5.2160 H   0  0  0  0  0  0  0  0  0  0  0  0
  1  2  2  0  0  0  0
  2  3  1  0  0  0  0
  3  4  2  0  0  0  0
  3  5  1  0  0  0  0
  5  6  2  0  0  0  0
  6  7  1  0  0  0  0
  6  8  1  0  0  0  0
  8  9  1  0  0  0  0
  8 10  2  0  0  0  0
 10 11  1  0  0  0  0
 10 12  1  0  0  0  0
 12 13  1  0  0  0  0
 12 14  2  0  0  0  0
 14 15  1  0  0  0  0
 15 16  2  0  0  0  0
 16 17  1  0  0  0  0
 17 18  3  0  0  0  0
 16 19  1  0  0  0  0
 19 20  3  0  0  0  0
  1 21  1  0  0  0  0
 21 22  2  0  0  0  0
 22 23  1  0  0  0  0
 23 24  2  0  0  0  0
 24 25  1  0  0  0  0
 25 26  2  0  0  0  0
 26 27  1  0  0  0  0
 27 28  1  0  0  0  0
 28 29  2  0  0  0  0
 27 30  1  0  0  0  0
 30 31  1  0  0  0  0
 26 32  1  0  0  0  0
 32 33  1  0  0  0  0
 33 34  1  0  0  0  0
 34 35  2  0  0  0  0
 35 36  1  0  0  0  0
 36 37  1  0  0  0  0
 37 38  1  0  0  0  0
 36 39  1  0  0  0  0
 34 40  1  0  0  0  0
 40 41  2  0  0  0  0
 41 42  1  0  0  0  0
 42 43  1  0  0  0  0
 43 44  1  0  0  0  0
 44 45  1  0  0  0  0
 41 46  1  0  0  0  0
 46 47  1  0  0  0  0
 47 48  1  0  0  0  0
 46 49  1  0  0  0  0
 49 50  2  0  0  0  0
 50 51  1  0  0  0  0
 51 52  1  0  0  0  0
 52 53  1  0  0  0  0
 51 54  1  0  0  0  0
 54 55  2  0  0  0  0
 55 56  1  0  0  0  0
 56 57  2  0  0  0  0
 57 58  1  0  0  0  0
 58 59  2  0  0  0  0
 58 60  1  0  0  0  0
 60 61  2  0  0  0  0
 61 62  1  0  0  0  0
 62 63  2  0  0  0  0
 62 64  1  0  0  0  0
 64 65  2  0  0  0  0
 65 66  1  0  0  0  0
 66 67  2  0  0  0  0
 67 68  1  0  0  0  0
 68 69  2  0  0  0  0
 69 70  1  0  0  0  0
 70 71  2  0  0  0  0
 71 72  1  0  0  0  0
 72 73  3  0  0  0  0
 71 74  1  0  0  0  0
 74 75  3  0  0  0  0
 67 76  1  0  0  0  0
 76 77  1  0  0  0  0
 77 78  1  0  0  0  0
 78 79  2  0  0  0  0
 79 80  1  0  0  0  0
 80 81  1  0  0  0  0
 80 82  1  0  0  0  0
 15  2  1  0  0  0  0
 29 21  1  0  0  0  0
 42 32  2  0  0  0  0
 55 49  1  0  0  0  0
 70 61  1  0  0  0  0
 82 76  1  0  0  0  0
 14  5  1  0  0  0  0
 28 24  1  0  0  0  0
 39 33  2  0  0  0  0
 50 40  1  0  0  0  0
 59 54  1  0  0  0  0
 69 64  1  0  0  0  0
 81 77  1  0  0  0  0
 43 25  1  0  0  0  0
 82 66  1  0  0  0  0
  1 83  1  0  0  0  0
 22 84  1  0  0  0  0
 23 85  1  0  0  0  0
 29 86  1  0  0  0  0
 30 87  1  0  0  0  0
 30 88  1  0  0  0  0
 31 89  1  0  0  0  0
 31 90  1  0  0  0  0
 31 91  1  0  0  0  0
 37 92  1  0  0  0  0
 37 93  1  0  0  0  0
 38 94  1  0  0  0  0
 38 95  1  0  0  0  0
 38 96  1  0  0  0  0
 44 97  1  0  0  0  0
 44 98  1  0  0  0  0
 45 99  1  0  0  0  0
 45100  1  0  0  0  0
 45101  1  0  0  0  0
 47102  1  0  0  0  0
 47103  1  0  0  0  0
 48104  1  0  0  0  0
 48105  1  0  0  0  0
 48106  1  0  0  0  0
 52107  1  0  0  0  0
 52108  1  0  0  0  0
 53109  1  0  0  0  0
 53110  1  0  0  0  0
 53111  1  0  0  0  0
 56112  1  0  0  0  0
 57113  1  0  0  0  0
 59114  1  0  0  0  0
 60115  1  0  0  0  0
 65116  1  0  0  0  0
 68117  1  0  0  0  0
 76118  1  0  0  0  0
 77119  1  0  0  0  0
 78120  1  0  0  0  0
 79121  1  0  0  0  0
 80122  1  0  0  0  0
 81123  1  0  0  0  0
 81124  1  0  0  0  0
 82125  1  0  0  0  0
M  END
