
  xtb     02022203273D
 energy: -191.606910193348 gnorm: 0.000294902275 xtb: 6.4.1 (unknown)
 95105  0     0  0            999 V2000
    2.5278   -6.7071   -0.0572 C   0  0  0  0  0  0  0  0  0  0  0  0
    2.9220   -7.5407    0.9506 C   0  0  0  0  0  0  0  0  0  0  0  0
    3.7211   -8.7473    0.6419 C   0  0  0  0  0  0  0  0  0  0  0  0
    3.9543   -9.2023   -0.4530 O   0  0  0  0  0  0  0  0  0  0  0  0
    4.2241   -9.2243    1.9559 C   0  0  0  0  0  0  0  0  0  0  0  0
    5.1515  -10.2141    2.2290 C   0  0  0  0  0  0  0  0  0  0  0  0
    5.7824  -11.2067    0.9929 Cl  0  0  0  0  0  0  0  0  0  0  0  0
    5.5738  -10.3796    3.5570 C   0  0  0  0  0  0  0  0  0  0  0  0
    6.6994  -11.6070    3.9443 Cl  0  0  0  0  0  0  0  0  0  0  0  0
    5.1106   -9.5227    4.5544 C   0  0  0  0  0  0  0  0  0  0  0  0
    5.7131   -9.6834    6.1471 Cl  0  0  0  0  0  0  0  0  0  0  0  0
    4.1685   -8.5209    4.2711 C   0  0  0  0  0  0  0  0  0  0  0  0
    3.7563   -7.3958    5.5004 Cl  0  0  0  0  0  0  0  0  0  0  0  0
    3.6824   -8.4174    2.9770 C   0  0  0  0  0  0  0  0  0  0  0  0
    2.6887   -7.5269    2.3767 C   0  0  0  0  0  0  0  0  0  0  0  0
    1.5425   -7.0685    2.9764 C   0  0  0  0  0  0  0  0  0  0  0  0
    1.1200   -7.3822    4.2850 C   0  0  0  0  0  0  0  0  0  0  0  0
    0.6639   -7.6460    5.3043 N   0  0  0  0  0  0  0  0  0  0  0  0
    0.5363   -6.3667    2.2781 C   0  0  0  0  0  0  0  0  0  0  0  0
   -0.3310   -5.8187    1.7634 N   0  0  0  0  0  0  0  0  0  0  0  0
    2.0636   -5.3766   -0.0284 C   0  0  0  0  0  0  0  0  0  0  0  0
    1.2191   -4.8311   -1.0148 C   0  0  0  0  0  0  0  0  0  0  0  0
    0.9357   -3.5405   -0.6009 C   0  0  0  0  0  0  0  0  0  0  0  0
    1.6621   -3.2991    0.5831 C   0  0  0  0  0  0  0  0  0  0  0  0
    2.3266   -4.4211    0.9437 N   0  0  0  0  0  0  0  0  0  0  0  0
    3.4054   -4.4245    1.9055 C   0  0  0  0  0  0  0  0  0  0  0  0
    4.7646   -4.3806    1.2108 C   0  0  0  0  0  0  0  0  0  0  0  0
    1.4341   -1.9602    0.9394 C   0  0  0  0  0  0  0  0  0  0  0  0
    1.9881   -1.1479    1.9536 C   0  0  0  0  0  0  0  0  0  0  0  0
    1.6562    0.2459    1.9893 C   0  0  0  0  0  0  0  0  0  0  0  0
    2.2892    0.8971    2.9518 N   0  0  0  0  0  0  0  0  0  0  0  0
    3.2209   -0.1484    3.7573 S   0  0  0  0  0  0  0  0  0  0  0  0
    2.8541   -1.4787    2.9021 N   0  0  0  0  0  0  0  0  0  0  0  0
    0.7008    0.7422    1.0772 C   0  0  0  0  0  0  0  0  0  0  0  0
    0.1364    2.0165    0.9449 C   0  0  0  0  0  0  0  0  0  0  0  0
    0.3036    3.5972    1.6203 S   0  0  0  0  0  0  0  0  0  0  0  0
   -0.9667    4.1564    0.5562 C   0  0  0  0  0  0  0  0  0  0  0  0
   -1.5399    5.4130    0.3586 C   0  0  0  0  0  0  0  0  0  0  0  0
   -1.1558    6.6216    1.1457 C   0  0  0  0  0  0  0  0  0  0  0  0
   -1.9935    6.7131    2.4246 C   0  0  0  0  0  0  0  0  0  0  0  0
   -2.5007    5.3822   -0.6492 C   0  0  0  0  0  0  0  0  0  0  0  0
   -2.7134    3.7573   -1.3087 S   0  0  0  0  0  0  0  0  0  0  0  0
   -1.4874    3.1442   -0.2649 C   0  0  0  0  0  0  0  0  0  0  0  0
   -0.8526    1.9217   -0.0438 C   0  0  0  0  0  0  0  0  0  0  0  0
   -0.9028    0.6464   -0.5382 N   0  0  0  0  0  0  0  0  0  0  0  0
    0.0619   -0.1005    0.1196 C   0  0  0  0  0  0  0  0  0  0  0  0
    0.5153   -1.4368   -0.0257 C   0  0  0  0  0  0  0  0  0  0  0  0
    0.2334   -2.4206   -0.9604 N   0  0  0  0  0  0  0  0  0  0  0  0
   -0.3040   -2.3188   -2.2985 C   0  0  0  0  0  0  0  0  0  0  0  0
    0.4817   -1.3263   -3.1526 C   0  0  0  0  0  0  0  0  0  0  0  0
   -2.0764    0.2137   -1.2666 C   0  0  0  0  0  0  0  0  0  0  0  0
   -2.9084   -0.7718   -0.4506 C   0  0  0  0  0  0  0  0  0  0  0  0
   -3.3065    6.4564   -1.0690 C   0  0  0  0  0  0  0  0  0  0  0  0
   -4.0620    6.5783   -2.2014 C   0  0  0  0  0  0  0  0  0  0  0  0
   -5.1992    7.5284   -2.2261 C   0  0  0  0  0  0  0  0  0  0  0  0
   -5.4445    8.3981   -1.4223 O   0  0  0  0  0  0  0  0  0  0  0  0
   -5.9975    7.1385   -3.4135 C   0  0  0  0  0  0  0  0  0  0  0  0
   -7.2177    7.6299   -3.8329 C   0  0  0  0  0  0  0  0  0  0  0  0
   -7.7785    7.0739   -4.9720 C   0  0  0  0  0  0  0  0  0  0  0  0
   -8.9625    7.5178   -5.4115 F   0  0  0  0  0  0  0  0  0  0  0  0
   -7.1250    6.0543   -5.6647 C   0  0  0  0  0  0  0  0  0  0  0  0
   -7.6984    5.5273   -6.7526 F   0  0  0  0  0  0  0  0  0  0  0  0
   -5.8932    5.5681   -5.2519 C   0  0  0  0  0  0  0  0  0  0  0  0
   -5.3284    6.1189   -4.1139 C   0  0  0  0  0  0  0  0  0  0  0  0
   -4.0477    5.8629   -3.4552 C   0  0  0  0  0  0  0  0  0  0  0  0
   -2.9491    5.3023   -4.0547 C   0  0  0  0  0  0  0  0  0  0  0  0
   -1.6497    5.3912   -3.5121 C   0  0  0  0  0  0  0  0  0  0  0  0
   -0.5733    5.4974   -3.1277 N   0  0  0  0  0  0  0  0  0  0  0  0
   -2.9755    4.6598   -5.3074 C   0  0  0  0  0  0  0  0  0  0  0  0
   -2.9510    4.0955   -6.3068 N   0  0  0  0  0  0  0  0  0  0  0  0
    2.6200   -7.1332   -1.0520 H   0  0  0  0  0  0  0  0  0  0  0  0
    0.8400   -5.3739   -1.8576 H   0  0  0  0  0  0  0  0  0  0  0  0
    3.2778   -3.5313    2.5235 H   0  0  0  0  0  0  0  0  0  0  0  0
    3.3496   -5.3065    2.5444 H   0  0  0  0  0  0  0  0  0  0  0  0
    4.9096   -5.2600    0.5864 H   0  0  0  0  0  0  0  0  0  0  0  0
    5.5537   -4.3490    1.9564 H   0  0  0  0  0  0  0  0  0  0  0  0
    4.8407   -3.4931    0.5871 H   0  0  0  0  0  0  0  0  0  0  0  0
   -1.2889    7.5225    0.5472 H   0  0  0  0  0  0  0  0  0  0  0  0
   -0.1010    6.5382    1.4141 H   0  0  0  0  0  0  0  0  0  0  0  0
   -3.0517    6.7959    2.1873 H   0  0  0  0  0  0  0  0  0  0  0  0
   -1.6977    7.5865    2.9991 H   0  0  0  0  0  0  0  0  0  0  0  0
   -1.8445    5.8278    3.0381 H   0  0  0  0  0  0  0  0  0  0  0  0
   -0.2153   -3.3162   -2.7340 H   0  0  0  0  0  0  0  0  0  0  0  0
   -1.3667   -2.0752   -2.2734 H   0  0  0  0  0  0  0  0  0  0  0  0
    1.5155   -1.6516   -3.2427 H   0  0  0  0  0  0  0  0  0  0  0  0
    0.4776   -0.3323   -2.7122 H   0  0  0  0  0  0  0  0  0  0  0  0
    0.0494   -1.2693   -4.1480 H   0  0  0  0  0  0  0  0  0  0  0  0
   -2.6683    1.1120   -1.4599 H   0  0  0  0  0  0  0  0  0  0  0  0
   -1.7991   -0.1979   -2.2372 H   0  0  0  0  0  0  0  0  0  0  0  0
   -2.3325   -1.6556   -0.1874 H   0  0  0  0  0  0  0  0  0  0  0  0
   -3.7815   -1.0777   -1.0204 H   0  0  0  0  0  0  0  0  0  0  0  0
   -3.2449   -0.3011    0.4704 H   0  0  0  0  0  0  0  0  0  0  0  0
   -3.4206    7.2690   -0.3586 H   0  0  0  0  0  0  0  0  0  0  0  0
   -7.7218    8.4192   -3.2985 H   0  0  0  0  0  0  0  0  0  0  0  0
   -5.4236    4.7791   -5.8167 H   0  0  0  0  0  0  0  0  0  0  0  0
  1  2  2  0  0  0  0
  2  3  1  0  0  0  0
  3  4  2  0  0  0  0
  3  5  1  0  0  0  0
  5  6  2  0  0  0  0
  6  7  1  0  0  0  0
  6  8  1  0  0  0  0
  8  9  1  0  0  0  0
  8 10  2  0  0  0  0
 10 11  1  0  0  0  0
 10 12  1  0  0  0  0
 12 13  1  0  0  0  0
 12 14  2  0  0  0  0
 14 15  1  0  0  0  0
 15 16  2  0  0  0  0
 16 17  1  0  0  0  0
 17 18  3  0  0  0  0
 16 19  1  0  0  0  0
 19 20  3  0  0  0  0
  1 21  1  0  0  0  0
 21 22  2  0  0  0  0
 22 23  1  0  0  0  0
 23 24  2  0  0  0  0
 24 25  1  0  0  0  0
 25 26  1  0  0  0  0
 26 27  1  0  0  0  0
 24 28  1  0  0  0  0
 28 29  1  0  0  0  0
 29 30  1  0  0  0  0
 30 31  2  0  0  0  0
 31 32  1  0  0  0  0
 32 33  1  0  0  0  0
 30 34  1  0  0  0  0
 34 35  1  0  0  0  0
 35 36  1  0  0  0  0
 36 37  1  0  0  0  0
 37 38  1  0  0  0  0
 38 39  1  0  0  0  0
 39 40  1  0  0  0  0
 38 41  2  0  0  0  0
 41 42  1  0  0  0  0
 42 43  1  0  0  0  0
 43 44  1  0  0  0  0
 44 45  1  0  0  0  0
 45 46  1  0  0  0  0
 46 47  1  0  0  0  0
 47 48  1  0  0  0  0
 48 49  1  0  0  0  0
 49 50  1  0  0  0  0
 45 51  1  0  0  0  0
 51 52  1  0  0  0  0
 41 53  1  0  0  0  0
 53 54  2  0  0  0  0
 54 55  1  0  0  0  0
 55 56  2  0  0  0  0
 55 57  1  0  0  0  0
 57 58  2  0  0  0  0
 58 59  1  0  0  0  0
 59 60  1  0  0  0  0
 59 61  2  0  0  0  0
 61 62  1  0  0  0  0
 61 63  1  0  0  0  0
 63 64  2  0  0  0  0
 64 65  1  0  0  0  0
 65 66  2  0  0  0  0
 66 67  1  0  0  0  0
 67 68  3  0  0  0  0
 66 69  1  0  0  0  0
 69 70  3  0  0  0  0
 15  2  1  0  0  0  0
 25 21  1  0  0  0  0
 47 28  2  0  0  0  0
 65 54  1  0  0  0  0
 14  5  1  0  0  0  0
 48 23  1  0  0  0  0
 64 57  1  0  0  0  0
 33 29  2  0  0  0  0
 46 34  2  0  0  0  0
 44 35  2  0  0  0  0
 43 37  2  0  0  0  0
  1 71  1  0  0  0  0
 22 72  1  0  0  0  0
 26 73  1  0  0  0  0
 26 74  1  0  0  0  0
 27 75  1  0  0  0  0
 27 76  1  0  0  0  0
 27 77  1  0  0  0  0
 39 78  1  0  0  0  0
 39 79  1  0  0  0  0
 40 80  1  0  0  0  0
 40 81  1  0  0  0  0
 40 82  1  0  0  0  0
 49 83  1  0  0  0  0
 49 84  1  0  0  0  0
 50 85  1  0  0  0  0
 50 86  1  0  0  0  0
 50 87  1  0  0  0  0
 51 88  1  0  0  0  0
 51 89  1  0  0  0  0
 52 90  1  0  0  0  0
 52 91  1  0  0  0  0
 52 92  1  0  0  0  0
 53 93  1  0  0  0  0
 58 94  1  0  0  0  0
 63 95  1  0  0  0  0
M  END
