
  xtb     02102218503D
 energy: -203.034642247794 gnorm: 0.000511349721 xtb: 6.4.1 (unknown)
109120  0     0  0            999 V2000
    1.0275   -6.9694    4.7929 C   0  0  0  0  0  0  0  0  0  0  0  0
    0.0466   -7.8592    5.1407 C   0  0  0  0  0  0  0  0  0  0  0  0
   -1.4160   -7.7774    4.9596 C   0  0  0  0  0  0  0  0  0  0  0  0
   -2.0892   -6.8369    4.5964 O   0  0  0  0  0  0  0  0  0  0  0  0
   -1.9433   -9.1092    5.3502 C   0  0  0  0  0  0  0  0  0  0  0  0
   -3.2343   -9.5923    5.2316 C   0  0  0  0  0  0  0  0  0  0  0  0
   -4.5224   -8.5898    4.7336 Cl  0  0  0  0  0  0  0  0  0  0  0  0
   -3.4643  -10.9448    5.5193 C   0  0  0  0  0  0  0  0  0  0  0  0
   -5.0485  -11.5818    5.4182 Cl  0  0  0  0  0  0  0  0  0  0  0  0
   -2.3974  -11.7824    5.8406 C   0  0  0  0  0  0  0  0  0  0  0  0
   -2.6870  -13.4514    6.0814 Cl  0  0  0  0  0  0  0  0  0  0  0  0
   -1.0890  -11.2862    5.9555 C   0  0  0  0  0  0  0  0  0  0  0  0
    0.1918  -12.4072    6.1695 Cl  0  0  0  0  0  0  0  0  0  0  0  0
   -0.8802   -9.9233    5.7838 C   0  0  0  0  0  0  0  0  0  0  0  0
    0.3169   -9.0918    5.8731 C   0  0  0  0  0  0  0  0  0  0  0  0
    1.3952   -9.3446    6.6797 C   0  0  0  0  0  0  0  0  0  0  0  0
    1.4395  -10.3465    7.6749 C   0  0  0  0  0  0  0  0  0  0  0  0
    1.5293  -11.0510    8.5764 N   0  0  0  0  0  0  0  0  0  0  0  0
    2.5595   -8.5515    6.7830 C   0  0  0  0  0  0  0  0  0  0  0  0
    3.5527   -7.9932    6.9313 N   0  0  0  0  0  0  0  0  0  0  0  0
    1.0183   -5.7486    4.0602 C   0  0  0  0  0  0  0  0  0  0  0  0
    2.1964   -4.9568    4.1301 C   0  0  0  0  0  0  0  0  0  0  0  0
    2.3075   -3.7507    3.4956 C   0  0  0  0  0  0  0  0  0  0  0  0
    1.2343   -3.2804    2.7258 C   0  0  0  0  0  0  0  0  0  0  0  0
    0.9575   -2.1489    1.9380 C   0  0  0  0  0  0  0  0  0  0  0  0
   -0.3067   -2.3390    1.3525 C   0  0  0  0  0  0  0  0  0  0  0  0
   -0.8476   -3.5180    1.7567 N   0  0  0  0  0  0  0  0  0  0  0  0
    0.0619   -4.1060    2.6058 C   0  0  0  0  0  0  0  0  0  0  0  0
   -0.0472   -5.3094    3.2634 C   0  0  0  0  0  0  0  0  0  0  0  0
   -2.1669   -4.0041    1.4380 C   0  0  0  0  0  0  0  0  0  0  0  0
   -3.1352   -3.8258    2.6057 C   0  0  0  0  0  0  0  0  0  0  0  0
   -0.5259   -1.2731    0.4685 C   0  0  0  0  0  0  0  0  0  0  0  0
   -1.4926   -1.0344   -0.5307 C   0  0  0  0  0  0  0  0  0  0  0  0
   -1.3030    0.0238   -1.4614 C   0  0  0  0  0  0  0  0  0  0  0  0
   -2.2944   -0.0398   -2.3538 N   0  0  0  0  0  0  0  0  0  0  0  0
   -3.0144   -1.0646   -1.9640 N   0  0  0  0  0  0  0  0  0  0  0  0
   -4.2232   -1.4394   -2.6378 C   0  0  0  0  0  0  0  0  0  0  0  0
   -5.4239   -0.7140   -2.0366 C   0  0  0  0  0  0  0  0  0  0  0  0
   -2.5941   -1.6970   -0.8935 N   0  0  0  0  0  0  0  0  0  0  0  0
   -0.2234    0.9149   -1.2974 C   0  0  0  0  0  0  0  0  0  0  0  0
    0.6720    0.7581   -0.1993 C   0  0  0  0  0  0  0  0  0  0  0  0
    0.6077   -0.4146    0.5913 C   0  0  0  0  0  0  0  0  0  0  0  0
    1.5042   -0.9690    1.4893 N   0  0  0  0  0  0  0  0  0  0  0  0
    2.9115   -0.6935    1.6729 C   0  0  0  0  0  0  0  0  0  0  0  0
    3.2371   -0.2690    3.1054 C   0  0  0  0  0  0  0  0  0  0  0  0
    1.5716    1.8151   -0.1780 N   0  0  0  0  0  0  0  0  0  0  0  0
    2.1445    2.4048    1.0127 C   0  0  0  0  0  0  0  0  0  0  0  0
    1.3945    3.6689    1.4336 C   0  0  0  0  0  0  0  0  0  0  0  0
    1.2919    2.5971   -1.2778 C   0  0  0  0  0  0  0  0  0  0  0  0
    0.2015    2.0646   -1.9822 C   0  0  0  0  0  0  0  0  0  0  0  0
   -0.0687    2.8186   -3.0818 N   0  0  0  0  0  0  0  0  0  0  0  0
   -1.1644    2.6199   -3.9954 C   0  0  0  0  0  0  0  0  0  0  0  0
   -2.3400    3.5381   -3.6668 C   0  0  0  0  0  0  0  0  0  0  0  0
    0.8403    3.8544   -3.0917 C   0  0  0  0  0  0  0  0  0  0  0  0
    1.7257    3.7440   -1.9640 C   0  0  0  0  0  0  0  0  0  0  0  0
    2.7440    4.6902   -1.8033 C   0  0  0  0  0  0  0  0  0  0  0  0
    2.8780    5.7023   -2.7159 C   0  0  0  0  0  0  0  0  0  0  0  0
    2.0124    5.8212   -3.8294 C   0  0  0  0  0  0  0  0  0  0  0  0
    0.9830    4.8744   -4.0022 C   0  0  0  0  0  0  0  0  0  0  0  0
    2.0864    6.8342   -4.8287 C   0  0  0  0  0  0  0  0  0  0  0  0
    2.9042    7.9021   -5.0820 C   0  0  0  0  0  0  0  0  0  0  0  0
    4.0925    8.4109   -4.3442 C   0  0  0  0  0  0  0  0  0  0  0  0
    4.5957    8.0164   -3.3134 O   0  0  0  0  0  0  0  0  0  0  0  0
    4.5553    9.5442   -5.1453 C   0  0  0  0  0  0  0  0  0  0  0  0
    5.8413   10.6652   -5.0349 S   0  0  0  0  0  0  0  0  0  0  0  0
    5.2835   11.4143   -6.5032 C   0  0  0  0  0  0  0  0  0  0  0  0
    6.2045   12.8889   -7.2014 Br  0  0  0  0  0  0  0  0  0  0  0  0
    4.1699   10.8353   -7.0457 C   0  0  0  0  0  0  0  0  0  0  0  0
    3.7511    9.7500   -6.2540 C   0  0  0  0  0  0  0  0  0  0  0  0
    2.6966    8.7530   -6.2508 C   0  0  0  0  0  0  0  0  0  0  0  0
    1.7141    8.6935   -7.2058 C   0  0  0  0  0  0  0  0  0  0  0  0
    0.6448    7.7786   -7.2825 C   0  0  0  0  0  0  0  0  0  0  0  0
   -0.2611    7.0872   -7.4344 N   0  0  0  0  0  0  0  0  0  0  0  0
    1.6720    9.6123   -8.2767 C   0  0  0  0  0  0  0  0  0  0  0  0
    1.6131   10.3433   -9.1592 N   0  0  0  0  0  0  0  0  0  0  0  0
    2.0204   -7.2415    5.1310 H   0  0  0  0  0  0  0  0  0  0  0  0
    3.0219   -5.3204    4.7240 H   0  0  0  0  0  0  0  0  0  0  0  0
    3.2208   -3.1818    3.5776 H   0  0  0  0  0  0  0  0  0  0  0  0
   -0.9321   -5.9095    3.1583 H   0  0  0  0  0  0  0  0  0  0  0  0
   -2.5159   -3.4378    0.5705 H   0  0  0  0  0  0  0  0  0  0  0  0
   -2.0978   -5.0630    1.1706 H   0  0  0  0  0  0  0  0  0  0  0  0
   -2.8237   -4.4174    3.4626 H   0  0  0  0  0  0  0  0  0  0  0  0
   -4.1289   -4.1474    2.3072 H   0  0  0  0  0  0  0  0  0  0  0  0
   -3.1812   -2.7793    2.8981 H   0  0  0  0  0  0  0  0  0  0  0  0
   -4.1070   -1.1770   -3.6912 H   0  0  0  0  0  0  0  0  0  0  0  0
   -4.3384   -2.5200   -2.5316 H   0  0  0  0  0  0  0  0  0  0  0  0
   -5.2989    0.3618   -2.1330 H   0  0  0  0  0  0  0  0  0  0  0  0
   -6.3317   -1.0094   -2.5546 H   0  0  0  0  0  0  0  0  0  0  0  0
   -5.5235   -0.9640   -0.9831 H   0  0  0  0  0  0  0  0  0  0  0  0
    3.2299    0.0596    0.9518 H   0  0  0  0  0  0  0  0  0  0  0  0
    3.4592   -1.6177    1.4517 H   0  0  0  0  0  0  0  0  0  0  0  0
    4.3124   -0.1606    3.2181 H   0  0  0  0  0  0  0  0  0  0  0  0
    2.8844   -1.0190    3.8073 H   0  0  0  0  0  0  0  0  0  0  0  0
    2.7676    0.6750    3.3704 H   0  0  0  0  0  0  0  0  0  0  0  0
    3.1981    2.6401    0.8281 H   0  0  0  0  0  0  0  0  0  0  0  0
    2.0694    1.6832    1.8204 H   0  0  0  0  0  0  0  0  0  0  0  0
    1.4606    4.4385    0.6699 H   0  0  0  0  0  0  0  0  0  0  0  0
    0.3447    3.4405    1.6061 H   0  0  0  0  0  0  0  0  0  0  0  0
    1.8228    4.0558    2.3546 H   0  0  0  0  0  0  0  0  0  0  0  0
   -0.8141    2.8043   -5.0152 H   0  0  0  0  0  0  0  0  0  0  0  0
   -1.4808    1.5783   -3.9044 H   0  0  0  0  0  0  0  0  0  0  0  0
   -2.0391    4.5821   -3.7121 H   0  0  0  0  0  0  0  0  0  0  0  0
   -2.7092    3.3242   -2.6668 H   0  0  0  0  0  0  0  0  0  0  0  0
   -3.1448    3.3756   -4.3778 H   0  0  0  0  0  0  0  0  0  0  0  0
    3.4254    4.6200   -0.9687 H   0  0  0  0  0  0  0  0  0  0  0  0
    3.6619    6.4269   -2.5877 H   0  0  0  0  0  0  0  0  0  0  0  0
    0.3196    4.9543   -4.8508 H   0  0  0  0  0  0  0  0  0  0  0  0
    1.3048    6.7145   -5.5704 H   0  0  0  0  0  0  0  0  0  0  0  0
    3.7026   11.1799   -7.9493 H   0  0  0  0  0  0  0  0  0  0  0  0
  1  2  2  0  0  0  0
  2  3  1  0  0  0  0
  3  4  2  0  0  0  0
  3  5  1  0  0  0  0
  5  6  2  0  0  0  0
  6  7  1  0  0  0  0
  6  8  1  0  0  0  0
  8  9  1  0  0  0  0
  8 10  2  0  0  0  0
 10 11  1  0  0  0  0
 10 12  1  0  0  0  0
 12 13  1  0  0  0  0
 12 14  2  0  0  0  0
 14 15  1  0  0  0  0
 15 16  2  0  0  0  0
 16 17  1  0  0  0  0
 17 18  3  0  0  0  0
 16 19  1  0  0  0  0
 19 20  3  0  0  0  0
  1 21  1  0  0  0  0
 21 22  2  0  0  0  0
 22 23  1  0  0  0  0
 23 24  2  0  0  0  0
 24 25  1  0  0  0  0
 25 26  2  0  0  0  0
 26 27  1  0  0  0  0
 27 28  1  0  0  0  0
 28 29  2  0  0  0  0
 27 30  1  0  0  0  0
 30 31  1  0  0  0  0
 26 32  1  0  0  0  0
 32 33  1  0  0  0  0
 33 34  1  0  0  0  0
 34 35  2  0  0  0  0
 35 36  1  0  0  0  0
 36 37  1  0  0  0  0
 37 38  1  0  0  0  0
 36 39  1  0  0  0  0
 34 40  1  0  0  0  0
 40 41  2  0  0  0  0
 41 42  1  0  0  0  0
 42 43  1  0  0  0  0
 43 44  1  0  0  0  0
 44 45  1  0  0  0  0
 41 46  1  0  0  0  0
 46 47  1  0  0  0  0
 47 48  1  0  0  0  0
 46 49  1  0  0  0  0
 49 50  2  0  0  0  0
 50 51  1  0  0  0  0
 51 52  1  0  0  0  0
 52 53  1  0  0  0  0
 51 54  1  0  0  0  0
 54 55  2  0  0  0  0
 55 56  1  0  0  0  0
 56 57  2  0  0  0  0
 57 58  1  0  0  0  0
 58 59  2  0  0  0  0
 58 60  1  0  0  0  0
 60 61  2  0  0  0  0
 61 62  1  0  0  0  0
 62 63  2  0  0  0  0
 62 64  1  0  0  0  0
 64 65  1  0  0  0  0
 65 66  1  0  0  0  0
 66 67  1  0  0  0  0
 66 68  2  0  0  0  0
 68 69  1  0  0  0  0
 69 70  1  0  0  0  0
 70 71  2  0  0  0  0
 71 72  1  0  0  0  0
 72 73  3  0  0  0  0
 71 74  1  0  0  0  0
 74 75  3  0  0  0  0
 15  2  1  0  0  0  0
 29 21  1  0  0  0  0
 42 32  2  0  0  0  0
 55 49  1  0  0  0  0
 70 61  1  0  0  0  0
 14  5  1  0  0  0  0
 28 24  1  0  0  0  0
 39 33  2  0  0  0  0
 50 40  1  0  0  0  0
 59 54  1  0  0  0  0
 69 64  2  0  0  0  0
 43 25  1  0  0  0  0
  1 76  1  0  0  0  0
 22 77  1  0  0  0  0
 23 78  1  0  0  0  0
 29 79  1  0  0  0  0
 30 80  1  0  0  0  0
 30 81  1  0  0  0  0
 31 82  1  0  0  0  0
 31 83  1  0  0  0  0
 31 84  1  0  0  0  0
 37 85  1  0  0  0  0
 37 86  1  0  0  0  0
 38 87  1  0  0  0  0
 38 88  1  0  0  0  0
 38 89  1  0  0  0  0
 44 90  1  0  0  0  0
 44 91  1  0  0  0  0
 45 92  1  0  0  0  0
 45 93  1  0  0  0  0
 45 94  1  0  0  0  0
 47 95  1  0  0  0  0
 47 96  1  0  0  0  0
 48 97  1  0  0  0  0
 48 98  1  0  0  0  0
 48 99  1  0  0  0  0
 52100  1  0  0  0  0
 52101  1  0  0  0  0
 53102  1  0  0  0  0
 53103  1  0  0  0  0
 53104  1  0  0  0  0
 56105  1  0  0  0  0
 57106  1  0  0  0  0
 59107  1  0  0  0  0
 60108  1  0  0  0  0
 68109  1  0  0  0  0
M  END
