112

C          3.71110       -1.99040       -6.20840
C          4.22460       -1.75400       -7.45400
C          4.58480       -0.45200       -8.04000
O          4.77590        0.59080       -7.45620
C          4.76600       -0.71320       -9.48900
C          4.90410        0.19490      -10.52180
Cl         5.06580        1.86400      -10.21840
C          4.88380       -0.28810      -11.83730
Cl         5.05250        0.79810      -13.14630
C          4.68040       -1.64560      -12.08100
Cl         4.56580       -2.19780      -13.69650
C          4.55130       -2.56450      -11.02750
Cl         4.13970       -4.18650      -11.40420
C          4.65930       -2.09780       -9.72380
C          4.57280       -2.77430       -8.43020
C          4.92550       -4.07090       -8.16860
C          4.82750       -4.69390       -6.90490
N          4.76090       -5.28040       -5.91990
C          5.60010       -4.92670       -9.06770
N          6.23810       -5.65280       -9.68570
C          3.10320       -1.10220       -5.30030
C          2.47010        0.13350       -5.46220
C          2.23400        0.75840       -6.76680
C          1.61540       -0.02980       -7.73840
C          1.37830        0.45980       -9.00520
C          1.76160        1.75500       -9.31770
C          2.36990        2.53900       -8.35900
C          2.62290        2.06560       -7.07450
C          3.36770        2.94250       -6.10920
C          2.65480        4.26850       -5.84590
C          1.91080        0.57820       -4.25690
S          0.94190        1.97760       -3.85030
C          0.78590        1.37450       -2.23910
C          0.16390        1.72080       -1.03210
C         -0.53260        2.88930       -0.65320
C         -1.01910        2.99910        0.69020
N         -1.61000        4.16080        0.92100
S         -1.55990        5.04030       -0.43680
N         -0.78400        3.97140       -1.37310
C         -0.89010        1.88780        1.55260
C         -1.43860        1.64740        2.81970
S         -2.40040        2.46260        4.00570
C         -2.45900        0.97940        4.93390
C         -3.09390        0.63420        6.13250
C         -3.87840        1.55210        6.97220
C         -5.10690        2.06390        6.54750
C         -5.74040        1.62180        5.25910
C         -6.41680        0.26010        5.43390
C         -5.78480        2.93640        7.38850
C         -5.26790        3.29950        8.61870
C         -4.05490        2.78060        9.03720
C         -3.36660        1.90800        8.21650
C         -2.86660       -0.69890        6.46330
S         -1.85050       -1.51850        5.28670
C         -1.74010       -0.07280        4.34960
C         -1.14860        0.31750        3.14230
N         -0.40190       -0.25350        2.14930
C         -0.23000        0.68980        1.15050
C          0.40790        0.65430       -0.11810
N          1.21350       -0.28170       -0.74660
C          1.43550        0.15330       -2.02640
C          2.08460       -0.30180       -3.17620
S          2.96600       -1.70400       -3.64440
C          2.07450       -1.29810       -0.18040
C          2.99910       -0.71820        0.88640
C         -0.21690       -1.68680        2.12670
C         -1.07020       -2.34720        1.04700
C         -3.43240       -1.37260        7.56340
C         -3.32530       -2.68480        7.88740
S         -2.42130       -3.92220        7.04170
C         -2.98000       -5.18550        8.18800
O         -2.67360       -6.33890        8.10680
N         -3.79190       -4.61360        9.12060
C         -4.36840       -5.41470       10.18830
C         -3.37340       -5.61960       11.32250
C         -4.02720       -3.24960        9.03850
O         -4.73150       -2.64440        9.81350
H          3.72380       -3.01760       -5.86160
H          1.31340       -1.03640       -7.48400
H          0.89860       -0.16390       -9.74490
H          1.59300        2.14520      -10.31030
H          2.68380        3.53930       -8.61650
H          4.35390        3.14160       -6.53530
H          3.52440        2.41630       -5.16850
H          1.64720        4.09670       -5.47520
H          2.58740        4.86480       -6.75180
H          3.20230        4.84170       -5.10160
H         -4.99440        1.55330        4.46710
H         -6.48740        2.35630        4.95380
H         -6.90350       -0.04110        4.50920
H         -7.16600        0.30810        6.22100
H         -5.68720       -0.50010        5.70440
H         -6.73770        3.33450        7.07060
H         -5.81380        3.98180        9.25290
H         -3.64650        3.05210        9.99870
H         -2.41620        1.50050        8.53010
H          1.48780       -2.13160        0.20670
H          2.67620       -1.68780       -1.00500
H          3.63030       -1.50320        1.29380
H          3.63720        0.04690        0.45010
H          2.43320       -0.26510        1.69710
H          0.83900       -1.93320        2.01410
H         -0.52970       -2.05620        3.10630
H         -0.83960       -1.94980        0.06140
H         -0.89770       -3.41980        1.04470
H         -2.12390       -2.16770        1.24710
H         -4.05270       -0.77450        8.22180
H         -4.66550       -6.37590        9.76240
H         -5.24810       -4.87060       10.53990
H         -3.06910       -4.66040       11.73510
H         -2.49440       -6.14770       10.96040
H         -3.83500       -6.20830       12.10990
