
  xtb     02012221523D
 energy: -228.738101613821 gnorm: 0.000595657288 xtb: 6.4.1 (unknown)
117130  0     0  0            999 V2000
    0.5076    6.3401    4.2652 C   0  0  0  0  0  0  0  0  0  0  0  0
    1.2698    7.2908    4.8838 C   0  0  0  0  0  0  0  0  0  0  0  0
    0.5904    8.4077    5.5783 C   0  0  0  0  0  0  0  0  0  0  0  0
   -0.5788    8.7030    5.5077 O   0  0  0  0  0  0  0  0  0  0  0  0
    1.6406    9.0271    6.4222 C   0  0  0  0  0  0  0  0  0  0  0  0
    1.5025   10.0135    7.3827 C   0  0  0  0  0  0  0  0  0  0  0  0
    0.0060   10.7856    7.6550 Cl  0  0  0  0  0  0  0  0  0  0  0  0
    2.6294   10.3646    8.1402 C   0  0  0  0  0  0  0  0  0  0  0  0
    2.5108   11.5876    9.3287 Cl  0  0  0  0  0  0  0  0  0  0  0  0
    3.8377    9.6991    7.9441 C   0  0  0  0  0  0  0  0  0  0  0  0
    5.1793   10.0940    8.9276 Cl  0  0  0  0  0  0  0  0  0  0  0  0
    3.9738    8.7047    6.9610 C   0  0  0  0  0  0  0  0  0  0  0  0
    5.4600    7.8605    6.8577 Cl  0  0  0  0  0  0  0  0  0  0  0  0
    2.8773    8.3966    6.1685 C   0  0  0  0  0  0  0  0  0  0  0  0
    2.6940    7.4611    5.0582 C   0  0  0  0  0  0  0  0  0  0  0  0
    3.6222    7.0809    4.1250 C   0  0  0  0  0  0  0  0  0  0  0  0
    3.2537    6.3846    2.9529 C   0  0  0  0  0  0  0  0  0  0  0  0
    2.9926    5.8472    1.9732 N   0  0  0  0  0  0  0  0  0  0  0  0
    4.9782    7.4604    4.0506 C   0  0  0  0  0  0  0  0  0  0  0  0
    6.0694    7.7480    3.8419 N   0  0  0  0  0  0  0  0  0  0  0  0
    0.8238    5.0273    3.8693 C   0  0  0  0  0  0  0  0  0  0  0  0
    1.8393    4.1584    4.2717 C   0  0  0  0  0  0  0  0  0  0  0  0
    2.8679    4.4015    5.2896 C   0  0  0  0  0  0  0  0  0  0  0  0
    4.1980    4.2644    4.8926 C   0  0  0  0  0  0  0  0  0  0  0  0
    5.2303    4.4572    5.7905 C   0  0  0  0  0  0  0  0  0  0  0  0
    4.9391    4.7834    7.1029 C   0  0  0  0  0  0  0  0  0  0  0  0
    3.6202    4.8987    7.5058 C   0  0  0  0  0  0  0  0  0  0  0  0
    2.5669    4.7066    6.6212 C   0  0  0  0  0  0  0  0  0  0  0  0
    1.1585    4.7029    7.1464 C   0  0  0  0  0  0  0  0  0  0  0  0
    0.6573    3.2654    7.3046 C   0  0  0  0  0  0  0  0  0  0  0  0
    1.7702    2.9458    3.5762 C   0  0  0  0  0  0  0  0  0  0  0  0
    2.7542    1.5023    3.6363 S   0  0  0  0  0  0  0  0  0  0  0  0
    1.7653    0.8092    2.3981 C   0  0  0  0  0  0  0  0  0  0  0  0
    1.6777   -0.3754    1.6484 C   0  0  0  0  0  0  0  0  0  0  0  0
    2.3438   -1.6216    1.7216 C   0  0  0  0  0  0  0  0  0  0  0  0
    1.9102   -2.7015    0.8735 C   0  0  0  0  0  0  0  0  0  0  0  0
    2.5734   -3.8217    1.1094 N   0  0  0  0  0  0  0  0  0  0  0  0
    3.6527   -3.5477    2.2830 S   0  0  0  0  0  0  0  0  0  0  0  0
    3.3154   -1.9868    2.5420 N   0  0  0  0  0  0  0  0  0  0  0  0
    0.9369   -2.4498   -0.1224 C   0  0  0  0  0  0  0  0  0  0  0  0
    0.4359   -3.2113   -1.1902 C   0  0  0  0  0  0  0  0  0  0  0  0
    0.5505   -4.8196   -1.8196 S   0  0  0  0  0  0  0  0  0  0  0  0
   -0.4843   -4.3372   -3.1502 C   0  0  0  0  0  0  0  0  0  0  0  0
   -0.9856   -5.0211   -4.2478 C   0  0  0  0  0  0  0  0  0  0  0  0
   -0.6714   -6.4248   -4.5489 C   0  0  0  0  0  0  0  0  0  0  0  0
   -1.6348   -7.4343   -4.4834 C   0  0  0  0  0  0  0  0  0  0  0  0
   -3.0305   -7.1667   -3.9962 C   0  0  0  0  0  0  0  0  0  0  0  0
   -3.0752   -7.2590   -2.4692 C   0  0  0  0  0  0  0  0  0  0  0  0
   -1.2520   -8.7339   -4.7875 C   0  0  0  0  0  0  0  0  0  0  0  0
    0.0477   -9.0351   -5.1481 C   0  0  0  0  0  0  0  0  0  0  0  0
    1.0021   -8.0330   -5.1918 C   0  0  0  0  0  0  0  0  0  0  0  0
    0.6430   -6.7347   -4.8885 C   0  0  0  0  0  0  0  0  0  0  0  0
   -1.7786   -4.1871   -5.0618 C   0  0  0  0  0  0  0  0  0  0  0  0
   -1.9100   -2.5529   -4.4103 S   0  0  0  0  0  0  0  0  0  0  0  0
   -0.8974   -2.9928   -3.0876 C   0  0  0  0  0  0  0  0  0  0  0  0
   -0.3686   -2.3585   -1.9634 C   0  0  0  0  0  0  0  0  0  0  0  0
   -0.4063   -1.1067   -1.4012 N   0  0  0  0  0  0  0  0  0  0  0  0
    0.3618   -1.1564   -0.2565 C   0  0  0  0  0  0  0  0  0  0  0  0
    0.6070   -0.1841    0.7353 C   0  0  0  0  0  0  0  0  0  0  0  0
    0.0069    1.0369    0.9727 N   0  0  0  0  0  0  0  0  0  0  0  0
    0.7217    1.6459    1.9732 C   0  0  0  0  0  0  0  0  0  0  0  0
    0.7124    2.8621    2.6584 C   0  0  0  0  0  0  0  0  0  0  0  0
   -0.2421    4.2924    2.6720 S   0  0  0  0  0  0  0  0  0  0  0  0
   -1.3845    1.3722    0.7421 C   0  0  0  0  0  0  0  0  0  0  0  0
   -2.2107    1.2129    2.0179 C   0  0  0  0  0  0  0  0  0  0  0  0
   -0.6531    0.0582   -2.2296 C   0  0  0  0  0  0  0  0  0  0  0  0
    0.3652    0.1536   -3.3650 C   0  0  0  0  0  0  0  0  0  0  0  0
   -2.3426   -4.6436   -6.2543 C   0  0  0  0  0  0  0  0  0  0  0  0
   -3.1155   -3.9891   -7.1869 C   0  0  0  0  0  0  0  0  0  0  0  0
   -3.4880   -2.5759   -7.1535 C   0  0  0  0  0  0  0  0  0  0  0  0
   -3.2581   -1.7573   -6.2803 O   0  0  0  0  0  0  0  0  0  0  0  0
   -4.2083   -2.3146   -8.4173 C   0  0  0  0  0  0  0  0  0  0  0  0
   -4.7383   -1.1240   -8.8720 C   0  0  0  0  0  0  0  0  0  0  0  0
   -5.3625   -1.1307  -10.1090 C   0  0  0  0  0  0  0  0  0  0  0  0
   -5.8900    0.0016  -10.5912 F   0  0  0  0  0  0  0  0  0  0  0  0
   -5.4448   -2.3053  -10.8564 C   0  0  0  0  0  0  0  0  0  0  0  0
   -6.0490   -2.2820  -12.0498 F   0  0  0  0  0  0  0  0  0  0  0  0
   -4.9149   -3.5022  -10.3962 C   0  0  0  0  0  0  0  0  0  0  0  0
   -4.2895   -3.5045   -9.1597 C   0  0  0  0  0  0  0  0  0  0  0  0
   -3.6477   -4.5780   -8.3972 C   0  0  0  0  0  0  0  0  0  0  0  0
   -3.6196   -5.8978   -8.7672 C   0  0  0  0  0  0  0  0  0  0  0  0
   -3.0922   -6.9606   -8.0037 C   0  0  0  0  0  0  0  0  0  0  0  0
   -2.7127   -7.8903   -7.4459 N   0  0  0  0  0  0  0  0  0  0  0  0
   -4.1614   -6.3888   -9.9743 C   0  0  0  0  0  0  0  0  0  0  0  0
   -4.5794   -6.8496  -10.9388 N   0  0  0  0  0  0  0  0  0  0  0  0
   -0.5281    6.6330    4.1114 H   0  0  0  0  0  0  0  0  0  0  0  0
    4.4170    4.0114    3.8655 H   0  0  0  0  0  0  0  0  0  0  0  0
    6.2533    4.3517    5.4643 H   0  0  0  0  0  0  0  0  0  0  0  0
    5.7353    4.9323    7.8162 H   0  0  0  0  0  0  0  0  0  0  0  0
    3.3983    5.1306    8.5377 H   0  0  0  0  0  0  0  0  0  0  0  0
    1.1380    5.1988    8.1188 H   0  0  0  0  0  0  0  0  0  0  0  0
    0.4848    5.2454    6.4833 H   0  0  0  0  0  0  0  0  0  0  0  0
    1.3110    2.7074    7.9710 H   0  0  0  0  0  0  0  0  0  0  0  0
   -0.3483    3.2606    7.7180 H   0  0  0  0  0  0  0  0  0  0  0  0
    0.6388    2.7585    6.3422 H   0  0  0  0  0  0  0  0  0  0  0  0
   -3.3715   -6.1770   -4.3034 H   0  0  0  0  0  0  0  0  0  0  0  0
   -3.7084   -7.9054   -4.4262 H   0  0  0  0  0  0  0  0  0  0  0  0
   -4.0864   -7.0867   -2.1078 H   0  0  0  0  0  0  0  0  0  0  0  0
   -2.4159   -6.5164   -2.0243 H   0  0  0  0  0  0  0  0  0  0  0  0
   -2.7507   -8.2432   -2.1400 H   0  0  0  0  0  0  0  0  0  0  0  0
   -1.9924   -9.5182   -4.7462 H   0  0  0  0  0  0  0  0  0  0  0  0
    0.3181  -10.0516   -5.3902 H   0  0  0  0  0  0  0  0  0  0  0  0
    2.0222   -8.2597   -5.4627 H   0  0  0  0  0  0  0  0  0  0  0  0
    1.3772   -5.9427   -4.9256 H   0  0  0  0  0  0  0  0  0  0  0  0
   -1.4439    2.4062    0.3880 H   0  0  0  0  0  0  0  0  0  0  0  0
   -1.7900    0.7014   -0.0131 H   0  0  0  0  0  0  0  0  0  0  0  0
   -1.8814    1.9043    2.7881 H   0  0  0  0  0  0  0  0  0  0  0  0
   -3.2552    1.4151    1.7986 H   0  0  0  0  0  0  0  0  0  0  0  0
   -2.1238    0.1971    2.3977 H   0  0  0  0  0  0  0  0  0  0  0  0
   -0.5701    0.9556   -1.6205 H   0  0  0  0  0  0  0  0  0  0  0  0
   -1.6631   -0.0170   -2.6436 H   0  0  0  0  0  0  0  0  0  0  0  0
    0.1846    1.0604   -3.9349 H   0  0  0  0  0  0  0  0  0  0  0  0
    1.3756    0.1882   -2.9629 H   0  0  0  0  0  0  0  0  0  0  0  0
    0.2827   -0.6954   -4.0372 H   0  0  0  0  0  0  0  0  0  0  0  0
   -2.1057   -5.6809   -6.4618 H   0  0  0  0  0  0  0  0  0  0  0  0
   -4.6716   -0.2184   -8.2906 H   0  0  0  0  0  0  0  0  0  0  0  0
   -5.0048   -4.3805  -11.0138 H   0  0  0  0  0  0  0  0  0  0  0  0
  1  2  2  0  0  0  0
  2  3  1  0  0  0  0
  3  4  2  0  0  0  0
  3  5  1  0  0  0  0
  5  6  2  0  0  0  0
  6  7  1  0  0  0  0
  6  8  1  0  0  0  0
  8  9  1  0  0  0  0
  8 10  2  0  0  0  0
 10 11  1  0  0  0  0
 10 12  1  0  0  0  0
 12 13  1  0  0  0  0
 12 14  2  0  0  0  0
 14 15  1  0  0  0  0
 15 16  2  0  0  0  0
 16 17  1  0  0  0  0
 17 18  3  0  0  0  0
 16 19  1  0  0  0  0
 19 20  3  0  0  0  0
  1 21  1  0  0  0  0
 21 22  2  0  0  0  0
 22 23  1  0  0  0  0
 23 24  2  0  0  0  0
 24 25  1  0  0  0  0
 25 26  2  0  0  0  0
 26 27  1  0  0  0  0
 27 28  2  0  0  0  0
 28 29  1  0  0  0  0
 29 30  1  0  0  0  0
 22 31  1  0  0  0  0
 31 32  1  0  0  0  0
 32 33  1  0  0  0  0
 33 34  1  0  0  0  0
 34 35  1  0  0  0  0
 35 36  1  0  0  0  0
 36 37  2  0  0  0  0
 37 38  1  0  0  0  0
 38 39  1  0  0  0  0
 36 40  1  0  0  0  0
 40 41  1  0  0  0  0
 41 42  1  0  0  0  0
 42 43  1  0  0  0  0
 43 44  1  0  0  0  0
 44 45  1  0  0  0  0
 45 46  2  0  0  0  0
 46 47  1  0  0  0  0
 47 48  1  0  0  0  0
 46 49  1  0  0  0  0
 49 50  2  0  0  0  0
 50 51  1  0  0  0  0
 51 52  2  0  0  0  0
 44 53  2  0  0  0  0
 53 54  1  0  0  0  0
 54 55  1  0  0  0  0
 55 56  1  0  0  0  0
 56 57  1  0  0  0  0
 57 58  1  0  0  0  0
 58 59  1  0  0  0  0
 59 60  1  0  0  0  0
 60 61  1  0  0  0  0
 61 62  1  0  0  0  0
 62 63  1  0  0  0  0
 60 64  1  0  0  0  0
 64 65  1  0  0  0  0
 57 66  1  0  0  0  0
 66 67  1  0  0  0  0
 53 68  1  0  0  0  0
 68 69  2  0  0  0  0
 69 70  1  0  0  0  0
 70 71  2  0  0  0  0
 70 72  1  0  0  0  0
 72 73  2  0  0  0  0
 73 74  1  0  0  0  0
 74 75  1  0  0  0  0
 74 76  2  0  0  0  0
 76 77  1  0  0  0  0
 76 78  1  0  0  0  0
 78 79  2  0  0  0  0
 79 80  1  0  0  0  0
 80 81  2  0  0  0  0
 81 82  1  0  0  0  0
 82 83  3  0  0  0  0
 81 84  1  0  0  0  0
 84 85  3  0  0  0  0
 15  2  1  0  0  0  0
 63 21  1  0  0  0  0
 80 69  1  0  0  0  0
 14  5  1  0  0  0  0
 28 23  1  0  0  0  0
 62 31  2  0  0  0  0
 79 72  1  0  0  0  0
 61 33  2  0  0  0  0
 59 34  2  0  0  0  0
 39 35  2  0  0  0  0
 58 40  2  0  0  0  0
 56 41  2  0  0  0  0
 55 43  2  0  0  0  0
 52 45  1  0  0  0  0
  1 86  1  0  0  0  0
 24 87  1  0  0  0  0
 25 88  1  0  0  0  0
 26 89  1  0  0  0  0
 27 90  1  0  0  0  0
 29 91  1  0  0  0  0
 29 92  1  0  0  0  0
 30 93  1  0  0  0  0
 30 94  1  0  0  0  0
 30 95  1  0  0  0  0
 47 96  1  0  0  0  0
 47 97  1  0  0  0  0
 48 98  1  0  0  0  0
 48 99  1  0  0  0  0
 48100  1  0  0  0  0
 49101  1  0  0  0  0
 50102  1  0  0  0  0
 51103  1  0  0  0  0
 52104  1  0  0  0  0
 64105  1  0  0  0  0
 64106  1  0  0  0  0
 65107  1  0  0  0  0
 65108  1  0  0  0  0
 65109  1  0  0  0  0
 66110  1  0  0  0  0
 66111  1  0  0  0  0
 67112  1  0  0  0  0
 67113  1  0  0  0  0
 67114  1  0  0  0  0
 68115  1  0  0  0  0
 73116  1  0  0  0  0
 78117  1  0  0  0  0
M  END
