95

C          2.52780       -6.70710       -0.05720
C          2.92200       -7.54070        0.95060
C          3.72110       -8.74730        0.64190
O          3.95430       -9.20230       -0.45300
C          4.22410       -9.22430        1.95590
C          5.15150      -10.21410        2.22900
Cl         5.78240      -11.20670        0.99290
C          5.57380      -10.37960        3.55700
Cl         6.69940      -11.60700        3.94430
C          5.11060       -9.52270        4.55440
Cl         5.71310       -9.68340        6.14710
C          4.16850       -8.52090        4.27110
Cl         3.75630       -7.39580        5.50040
C          3.68240       -8.41740        2.97700
C          2.68870       -7.52690        2.37670
C          1.54250       -7.06850        2.97640
C          1.12000       -7.38220        4.28500
N          0.66390       -7.64600        5.30430
C          0.53630       -6.36670        2.27810
N         -0.33100       -5.81870        1.76340
C          2.06360       -5.37660       -0.02840
C          1.21910       -4.83110       -1.01480
C          0.93570       -3.54050       -0.60090
C          1.66210       -3.29910        0.58310
N          2.32660       -4.42110        0.94370
C          3.40540       -4.42450        1.90550
C          4.76460       -4.38060        1.21080
C          1.43410       -1.96020        0.93940
C          1.98810       -1.14790        1.95360
C          1.65620        0.24590        1.98930
N          2.28920        0.89710        2.95180
S          3.22090       -0.14840        3.75730
N          2.85410       -1.47870        2.90210
C          0.70080        0.74220        1.07720
C          0.13640        2.01650        0.94490
S          0.30360        3.59720        1.62030
C         -0.96670        4.15640        0.55620
C         -1.53990        5.41300        0.35860
C         -1.15580        6.62160        1.14570
C         -1.99350        6.71310        2.42460
C         -2.50070        5.38220       -0.64920
S         -2.71340        3.75730       -1.30870
C         -1.48740        3.14420       -0.26490
C         -0.85260        1.92170       -0.04380
N         -0.90280        0.64640       -0.53820
C          0.06190       -0.10050        0.11960
C          0.51530       -1.43680       -0.02570
N          0.23340       -2.42060       -0.96040
C         -0.30400       -2.31880       -2.29850
C          0.48170       -1.32630       -3.15260
C         -2.07640        0.21370       -1.26660
C         -2.90840       -0.77180       -0.45060
C         -3.30650        6.45640       -1.06900
C         -4.06200        6.57830       -2.20140
C         -5.19920        7.52840       -2.22610
O         -5.44450        8.39810       -1.42230
C         -5.99750        7.13850       -3.41350
C         -7.21770        7.62990       -3.83290
C         -7.77850        7.07390       -4.97200
F         -8.96250        7.51780       -5.41150
C         -7.12500        6.05430       -5.66470
F         -7.69840        5.52730       -6.75260
C         -5.89320        5.56810       -5.25190
C         -5.32840        6.11890       -4.11390
C         -4.04770        5.86290       -3.45520
C         -2.94910        5.30230       -4.05470
C         -1.64970        5.39120       -3.51210
N         -0.57330        5.49740       -3.12770
C         -2.97550        4.65980       -5.30740
N         -2.95100        4.09550       -6.30680
H          2.62000       -7.13320       -1.05200
H          0.84000       -5.37390       -1.85760
H          3.27780       -3.53130        2.52350
H          3.34960       -5.30650        2.54440
H          4.90960       -5.26000        0.58640
H          5.55370       -4.34900        1.95640
H          4.84070       -3.49310        0.58710
H         -1.28890        7.52250        0.54720
H         -0.10100        6.53820        1.41410
H         -3.05170        6.79590        2.18730
H         -1.69770        7.58650        2.99910
H         -1.84450        5.82780        3.03810
H         -0.21530       -3.31620       -2.73400
H         -1.36670       -2.07520       -2.27340
H          1.51550       -1.65160       -3.24270
H          0.47760       -0.33230       -2.71220
H          0.04940       -1.26930       -4.14800
H         -2.66830        1.11200       -1.45990
H         -1.79910       -0.19790       -2.23720
H         -2.33250       -1.65560       -0.18740
H         -3.78150       -1.07770       -1.02040
H         -3.24490       -0.30110        0.47040
H         -3.42060        7.26900       -0.35860
H         -7.72180        8.41920       -3.29850
H         -5.42360        4.77910       -5.81670
