
  xtb     02102219353D
 energy: -218.447298320524 gnorm: 0.000815844237 xtb: 6.4.1 (unknown)
116128  0     0  0            999 V2000
   -5.5085   -2.3289   -3.9708 C   0  0  0  0  0  0  0  0  0  0  0  0
   -5.0526   -3.0575   -5.0434 C   0  0  0  0  0  0  0  0  0  0  0  0
   -3.6567   -3.3231   -5.3731 C   0  0  0  0  0  0  0  0  0  0  0  0
   -2.6641   -2.8524   -4.8486 O   0  0  0  0  0  0  0  0  0  0  0  0
   -3.6841   -4.3210   -6.4670 C   0  0  0  0  0  0  0  0  0  0  0  0
   -2.6232   -4.9774   -7.0638 C   0  0  0  0  0  0  0  0  0  0  0  0
   -1.0064   -4.5796   -6.6915 Cl  0  0  0  0  0  0  0  0  0  0  0  0
   -2.9068   -5.9952   -7.9854 C   0  0  0  0  0  0  0  0  0  0  0  0
   -1.6290   -6.8105   -8.7768 Cl  0  0  0  0  0  0  0  0  0  0  0  0
   -4.2269   -6.3734   -8.2222 C   0  0  0  0  0  0  0  0  0  0  0  0
   -4.5449   -7.6856   -9.2723 Cl  0  0  0  0  0  0  0  0  0  0  0  0
   -5.2999   -5.7090   -7.6044 C   0  0  0  0  0  0  0  0  0  0  0  0
   -6.8769   -6.3535   -7.8054 Cl  0  0  0  0  0  0  0  0  0  0  0  0
   -5.0255   -4.6257   -6.7801 C   0  0  0  0  0  0  0  0  0  0  0  0
   -5.8873   -3.7100   -6.0329 C   0  0  0  0  0  0  0  0  0  0  0  0
   -7.1760   -3.3581   -6.3417 C   0  0  0  0  0  0  0  0  0  0  0  0
   -7.9543   -2.4350   -5.6072 C   0  0  0  0  0  0  0  0  0  0  0  0
   -8.6600   -1.7040   -5.0715 N   0  0  0  0  0  0  0  0  0  0  0  0
   -7.8688   -3.7021   -7.5228 C   0  0  0  0  0  0  0  0  0  0  0  0
   -8.4788   -3.8329   -8.4860 N   0  0  0  0  0  0  0  0  0  0  0  0
   -4.8129   -1.6139   -2.9950 C   0  0  0  0  0  0  0  0  0  0  0  0
   -5.4854   -0.9444   -1.9527 C   0  0  0  0  0  0  0  0  0  0  0  0
   -6.9381   -1.0476   -1.7546 C   0  0  0  0  0  0  0  0  0  0  0  0
   -7.4599   -2.2754   -1.3550 C   0  0  0  0  0  0  0  0  0  0  0  0
   -8.8183   -2.4333   -1.1632 C   0  0  0  0  0  0  0  0  0  0  0  0
   -9.6678   -1.3629   -1.3825 C   0  0  0  0  0  0  0  0  0  0  0  0
   -9.1524   -0.1455   -1.7863 C   0  0  0  0  0  0  0  0  0  0  0  0
   -7.7891    0.0372   -1.9750 C   0  0  0  0  0  0  0  0  0  0  0  0
   -7.2719    1.3483   -2.4928 C   0  0  0  0  0  0  0  0  0  0  0  0
   -7.0194    1.2684   -4.0003 C   0  0  0  0  0  0  0  0  0  0  0  0
   -4.6030   -0.2485   -1.1397 C   0  0  0  0  0  0  0  0  0  0  0  0
   -4.8200    0.7216    0.3059 S   0  0  0  0  0  0  0  0  0  0  0  0
   -3.1037    0.9323    0.3841 C   0  0  0  0  0  0  0  0  0  0  0  0
   -2.1444    1.5559    1.1952 C   0  0  0  0  0  0  0  0  0  0  0  0
   -2.2634    2.4163    2.3103 C   0  0  0  0  0  0  0  0  0  0  0  0
   -1.0719    2.9430    2.9141 C   0  0  0  0  0  0  0  0  0  0  0  0
   -1.3355    3.7719    3.9111 N   0  0  0  0  0  0  0  0  0  0  0  0
   -2.9419    3.8797    4.0800 S   0  0  0  0  0  0  0  0  0  0  0  0
   -3.3642    2.8700    2.8875 N   0  0  0  0  0  0  0  0  0  0  0  0
    0.1860    2.4805    2.4633 C   0  0  0  0  0  0  0  0  0  0  0  0
    1.4734    2.6245    2.9973 C   0  0  0  0  0  0  0  0  0  0  0  0
    2.2588    3.4316    4.3124 S   0  0  0  0  0  0  0  0  0  0  0  0
    3.7419    2.6020    3.8881 C   0  0  0  0  0  0  0  0  0  0  0  0
    5.0061    2.5846    4.4681 C   0  0  0  0  0  0  0  0  0  0  0  0
    5.3744    3.3747    5.6541 C   0  0  0  0  0  0  0  0  0  0  0  0
    5.5547    2.7736    6.9026 C   0  0  0  0  0  0  0  0  0  0  0  0
    5.3078    1.3058    7.1114 C   0  0  0  0  0  0  0  0  0  0  0  0
    3.8149    1.0479    7.3285 C   0  0  0  0  0  0  0  0  0  0  0  0
    5.8901    3.5800    7.9822 C   0  0  0  0  0  0  0  0  0  0  0  0
    6.0455    4.9467    7.8379 C   0  0  0  0  0  0  0  0  0  0  0  0
    5.8526    5.5362    6.6005 C   0  0  0  0  0  0  0  0  0  0  0  0
    5.5150    4.7512    5.5145 C   0  0  0  0  0  0  0  0  0  0  0  0
    5.8792    1.7328    3.7790 C   0  0  0  0  0  0  0  0  0  0  0  0
    5.0982    0.9383    2.4183 S   0  0  0  0  0  0  0  0  0  0  0  0
    3.6213    1.7567    2.7722 C   0  0  0  0  0  0  0  0  0  0  0  0
    2.3195    1.7828    2.2620 C   0  0  0  0  0  0  0  0  0  0  0  0
    1.6068    1.1519    1.2784 N   0  0  0  0  0  0  0  0  0  0  0  0
    0.2964    1.5734    1.3697 C   0  0  0  0  0  0  0  0  0  0  0  0
   -0.8712    1.2250    0.6467 C   0  0  0  0  0  0  0  0  0  0  0  0
   -1.0589    0.4836   -0.5051 N   0  0  0  0  0  0  0  0  0  0  0  0
   -2.4100    0.2921   -0.6517 C   0  0  0  0  0  0  0  0  0  0  0  0
   -3.2568   -0.3783   -1.5347 C   0  0  0  0  0  0  0  0  0  0  0  0
   -3.0699   -1.3647   -2.9352 S   0  0  0  0  0  0  0  0  0  0  0  0
   -0.2201    0.4201   -1.6843 C   0  0  0  0  0  0  0  0  0  0  0  0
   -0.6240    1.4874   -2.7012 C   0  0  0  0  0  0  0  0  0  0  0  0
    2.1756    0.0200    0.5801 C   0  0  0  0  0  0  0  0  0  0  0  0
    3.1706    0.4493   -0.4983 C   0  0  0  0  0  0  0  0  0  0  0  0
    7.2226    1.5685    4.1515 C   0  0  0  0  0  0  0  0  0  0  0  0
    8.1960    0.7810    3.6096 C   0  0  0  0  0  0  0  0  0  0  0  0
    9.8163    0.7507    4.2925 S   0  0  0  0  0  0  0  0  0  0  0  0
   10.3395   -0.4187    3.1038 C   0  0  0  0  0  0  0  0  0  0  0  0
   11.6253   -0.8993    3.1242 C   0  0  0  0  0  0  0  0  0  0  0  0
   12.1874   -1.8362    2.2414 C   0  0  0  0  0  0  0  0  0  0  0  0
   12.7150   -2.5881    1.5513 N   0  0  0  0  0  0  0  0  0  0  0  0
   12.5159   -0.4394    4.1168 C   0  0  0  0  0  0  0  0  0  0  0  0
   13.2462   -0.0701    4.9205 N   0  0  0  0  0  0  0  0  0  0  0  0
    9.3296   -0.7420    2.2524 N   0  0  0  0  0  0  0  0  0  0  0  0
    9.4521   -1.6432    1.1212 C   0  0  0  0  0  0  0  0  0  0  0  0
   10.0563   -0.9428   -0.0898 C   0  0  0  0  0  0  0  0  0  0  0  0
    8.1159   -0.1093    2.4752 C   0  0  0  0  0  0  0  0  0  0  0  0
    7.1385   -0.3206    1.7773 O   0  0  0  0  0  0  0  0  0  0  0  0
   -6.5817   -2.3072   -3.8224 H   0  0  0  0  0  0  0  0  0  0  0  0
   -6.7854   -3.1037   -1.1875 H   0  0  0  0  0  0  0  0  0  0  0  0
   -9.2107   -3.3890   -0.8500 H   0  0  0  0  0  0  0  0  0  0  0  0
  -10.7321   -1.4794   -1.2452 H   0  0  0  0  0  0  0  0  0  0  0  0
   -9.8205    0.6833   -1.9684 H   0  0  0  0  0  0  0  0  0  0  0  0
   -8.0109    2.1266   -2.2959 H   0  0  0  0  0  0  0  0  0  0  0  0
   -6.3478    1.6253   -1.9829 H   0  0  0  0  0  0  0  0  0  0  0  0
   -6.7570    2.2484   -4.3920 H   0  0  0  0  0  0  0  0  0  0  0  0
   -6.2058    0.5803   -4.2196 H   0  0  0  0  0  0  0  0  0  0  0  0
   -7.9098    0.9115   -4.5121 H   0  0  0  0  0  0  0  0  0  0  0  0
    5.6491    0.7291    6.2502 H   0  0  0  0  0  0  0  0  0  0  0  0
    5.8622    0.9652    7.9879 H   0  0  0  0  0  0  0  0  0  0  0  0
    3.6344   -0.0111    7.4969 H   0  0  0  0  0  0  0  0  0  0  0  0
    3.4571    1.6040    8.1917 H   0  0  0  0  0  0  0  0  0  0  0  0
    3.2425    1.3638    6.4595 H   0  0  0  0  0  0  0  0  0  0  0  0
    6.0291    3.1246    8.9522 H   0  0  0  0  0  0  0  0  0  0  0  0
    6.3106    5.5516    8.6918 H   0  0  0  0  0  0  0  0  0  0  0  0
    5.9634    6.6031    6.4807 H   0  0  0  0  0  0  0  0  0  0  0  0
    5.3631    5.1994    4.5434 H   0  0  0  0  0  0  0  0  0  0  0  0
   -0.3310   -0.5737   -2.1282 H   0  0  0  0  0  0  0  0  0  0  0  0
    0.8148    0.5812   -1.4071 H   0  0  0  0  0  0  0  0  0  0  0  0
   -1.6423    1.3311   -3.0459 H   0  0  0  0  0  0  0  0  0  0  0  0
    0.0397    1.4396   -3.5597 H   0  0  0  0  0  0  0  0  0  0  0  0
   -0.5533    2.4785   -2.2571 H   0  0  0  0  0  0  0  0  0  0  0  0
    1.3665   -0.5868    0.1725 H   0  0  0  0  0  0  0  0  0  0  0  0
    2.7091   -0.5897    1.3175 H   0  0  0  0  0  0  0  0  0  0  0  0
    3.4502   -0.4096   -1.1015 H   0  0  0  0  0  0  0  0  0  0  0  0
    4.0699    0.8496   -0.0390 H   0  0  0  0  0  0  0  0  0  0  0  0
    2.7543    1.2166   -1.1479 H   0  0  0  0  0  0  0  0  0  0  0  0
    7.5158    2.1657    5.0088 H   0  0  0  0  0  0  0  0  0  0  0  0
    8.4341   -1.9692    0.8899 H   0  0  0  0  0  0  0  0  0  0  0  0
   10.0518   -2.5069    1.4120 H   0  0  0  0  0  0  0  0  0  0  0  0
   10.1058   -1.6409   -0.9199 H   0  0  0  0  0  0  0  0  0  0  0  0
   11.0641   -0.5936    0.1220 H   0  0  0  0  0  0  0  0  0  0  0  0
    9.4391   -0.0955   -0.3801 H   0  0  0  0  0  0  0  0  0  0  0  0
  1  2  2  0  0  0  0
  2  3  1  0  0  0  0
  3  4  2  0  0  0  0
  3  5  1  0  0  0  0
  5  6  2  0  0  0  0
  6  7  1  0  0  0  0
  6  8  1  0  0  0  0
  8  9  1  0  0  0  0
  8 10  2  0  0  0  0
 10 11  1  0  0  0  0
 10 12  1  0  0  0  0
 12 13  1  0  0  0  0
 12 14  2  0  0  0  0
 14 15  1  0  0  0  0
 15 16  2  0  0  0  0
 16 17  1  0  0  0  0
 17 18  3  0  0  0  0
 16 19  1  0  0  0  0
 19 20  3  0  0  0  0
  1 21  1  0  0  0  0
 21 22  2  0  0  0  0
 22 23  1  0  0  0  0
 23 24  2  0  0  0  0
 24 25  1  0  0  0  0
 25 26  2  0  0  0  0
 26 27  1  0  0  0  0
 27 28  2  0  0  0  0
 28 29  1  0  0  0  0
 29 30  1  0  0  0  0
 22 31  1  0  0  0  0
 31 32  1  0  0  0  0
 32 33  1  0  0  0  0
 33 34  1  0  0  0  0
 34 35  1  0  0  0  0
 35 36  1  0  0  0  0
 36 37  2  0  0  0  0
 37 38  1  0  0  0  0
 38 39  1  0  0  0  0
 36 40  1  0  0  0  0
 40 41  1  0  0  0  0
 41 42  1  0  0  0  0
 42 43  1  0  0  0  0
 43 44  1  0  0  0  0
 44 45  1  0  0  0  0
 45 46  2  0  0  0  0
 46 47  1  0  0  0  0
 47 48  1  0  0  0  0
 46 49  1  0  0  0  0
 49 50  2  0  0  0  0
 50 51  1  0  0  0  0
 51 52  2  0  0  0  0
 44 53  2  0  0  0  0
 53 54  1  0  0  0  0
 54 55  1  0  0  0  0
 55 56  1  0  0  0  0
 56 57  1  0  0  0  0
 57 58  1  0  0  0  0
 58 59  1  0  0  0  0
 59 60  1  0  0  0  0
 60 61  1  0  0  0  0
 61 62  1  0  0  0  0
 62 63  1  0  0  0  0
 60 64  1  0  0  0  0
 64 65  1  0  0  0  0
 57 66  1  0  0  0  0
 66 67  1  0  0  0  0
 53 68  1  0  0  0  0
 68 69  2  0  0  0  0
 69 70  1  0  0  0  0
 70 71  1  0  0  0  0
 71 72  2  0  0  0  0
 72 73  1  0  0  0  0
 73 74  3  0  0  0  0
 72 75  1  0  0  0  0
 75 76  3  0  0  0  0
 71 77  1  0  0  0  0
 77 78  1  0  0  0  0
 78 79  1  0  0  0  0
 77 80  1  0  0  0  0
 80 81  2  0  0  0  0
 15  2  1  0  0  0  0
 63 21  1  0  0  0  0
 80 69  1  0  0  0  0
 14  5  1  0  0  0  0
 28 23  1  0  0  0  0
 62 31  2  0  0  0  0
 61 33  2  0  0  0  0
 59 34  2  0  0  0  0
 39 35  2  0  0  0  0
 58 40  2  0  0  0  0
 56 41  2  0  0  0  0
 55 43  2  0  0  0  0
 52 45  1  0  0  0  0
  1 82  1  0  0  0  0
 24 83  1  0  0  0  0
 25 84  1  0  0  0  0
 26 85  1  0  0  0  0
 27 86  1  0  0  0  0
 29 87  1  0  0  0  0
 29 88  1  0  0  0  0
 30 89  1  0  0  0  0
 30 90  1  0  0  0  0
 30 91  1  0  0  0  0
 47 92  1  0  0  0  0
 47 93  1  0  0  0  0
 48 94  1  0  0  0  0
 48 95  1  0  0  0  0
 48 96  1  0  0  0  0
 49 97  1  0  0  0  0
 50 98  1  0  0  0  0
 51 99  1  0  0  0  0
 52100  1  0  0  0  0
 64101  1  0  0  0  0
 64102  1  0  0  0  0
 65103  1  0  0  0  0
 65104  1  0  0  0  0
 65105  1  0  0  0  0
 66106  1  0  0  0  0
 66107  1  0  0  0  0
 67108  1  0  0  0  0
 67109  1  0  0  0  0
 67110  1  0  0  0  0
 68111  1  0  0  0  0
 78112  1  0  0  0  0
 78113  1  0  0  0  0
 79114  1  0  0  0  0
 79115  1  0  0  0  0
 79116  1  0  0  0  0
M  END
