117

C          0.59380        2.35570        7.81380
C          1.72400        1.74630        8.27570
C          1.91950        1.50770        9.72140
O          1.29880        1.99810       10.63360
C          2.99000        0.47760        9.79220
C          3.44970       -0.22460       10.89250
Cl         2.89910        0.13280       12.46740
C          4.38200       -1.25210       10.68310
Cl         4.99240       -2.13080       12.01670
C          4.78490       -1.58350        9.39030
Cl         5.85420       -2.89750        9.15430
C          4.31890       -0.86490        8.27820
Cl         4.73460       -1.40680        6.70500
C          3.46090        0.20280        8.49110
C          2.85200        1.16770        7.57750
C          3.41970        1.72230        6.46080
C          2.85920        2.86490        5.84580
N          2.45110        3.81600        5.35000
C          4.67090        1.39940        5.89800
N          5.68980        1.25000        5.39160
C          0.03710        2.30000        6.52360
C         -1.01870        3.09360        6.07230
C         -1.50310        4.24370        6.84250
C         -0.58150        5.24880        7.13100
C         -0.96810        6.37390        7.83240
C         -2.27860        6.49560        8.26210
C         -3.18920        5.48970        7.99280
C         -2.82530        4.35380        7.28210
C         -3.81400        3.23890        7.09220
C         -3.54150        2.10230        8.08010
C         -1.41880        2.73110        4.78290
S         -2.61830        3.36960        3.68130
C         -2.12840        2.20250        2.50480
C         -2.45780        1.81000        1.19720
C         -3.51050        2.15550        0.31780
C         -3.65610        1.43500       -0.92040
N         -4.73050        1.81020       -1.59550
S         -5.48710        2.97120       -0.76150
N         -4.47810        3.03930        0.50090
C         -2.65420        0.51320       -1.30460
C         -2.41430       -0.20600       -2.48820
S         -3.16520       -0.49990       -4.01780
C         -1.76330       -1.42480       -4.50010
C         -1.42390       -2.08710       -5.68320
C         -2.25830       -2.10880       -6.89580
C         -3.04470       -3.21540       -7.21600
C         -3.12000       -4.41020       -6.30770
C         -4.22670       -4.21940       -5.26820
C         -3.81330       -3.16660       -8.37160
C         -3.80180       -2.05380       -9.19230
C         -3.01750       -0.96060       -8.86530
C         -2.24720       -0.98810       -7.71840
C         -0.14570       -2.62920       -5.61750
S          0.59500       -2.39570       -4.03370
C         -0.77790       -1.49870       -3.50510
C         -1.15300       -0.80660       -2.35450
N         -0.61220       -0.51320       -1.12710
C         -1.53750        0.27060       -0.46190
C         -1.53810        0.78420        0.85150
N         -0.72980        0.50170        1.93430
C         -1.08320        1.37020        2.93640
C         -0.68600        1.66320        4.24080
S          0.50680        1.08070        5.34050
C         -0.10370       -0.76990        2.23430
C         -0.95510       -1.58980        3.20330
C          0.83050       -0.45610       -0.97580
C          1.44690        0.56760       -1.92910
C          0.50780       -3.32510       -6.65600
C          1.84500       -3.53360       -6.81960
C          2.32530       -4.65470       -7.67100
O          1.66640       -5.30930       -8.44170
C          3.75500       -4.81040       -7.31180
C          4.68330       -5.76310       -7.69160
F          4.35700       -6.74480       -8.53690
C          5.97920       -5.71020       -7.19150
C          6.33500       -4.70410       -6.31000
C          5.42470       -3.73010       -5.91840
C          4.13750       -3.78560       -6.42370
C          2.99480       -2.89390       -6.22750
C          3.07180       -1.58570       -5.82250
C          2.00600       -0.67200       -5.95870
N          1.18030        0.11350       -6.10110
C          4.23160       -0.98270       -5.29880
N          5.13320       -0.44670       -4.83190
H         -0.00140        2.87480        8.55860
H          0.43410        5.14480        6.77730
H         -0.24860        7.14990        8.04360
H         -2.59010        7.37040        8.81280
H         -4.20680        5.58290        8.34410
H         -4.82260        3.62140        7.25660
H         -3.76560        2.85080        6.07440
H         -2.55880        1.66850        7.90740
H         -4.28830        1.31950        7.97000
H         -3.57610        2.47270        9.10220
H         -3.33220       -5.30360       -6.89810
H         -2.16800       -4.56090       -5.79480
H         -5.18680       -4.08170       -5.75990
H         -4.02950       -3.34180       -4.65660
H         -4.29010       -5.08920       -4.61840
H         -4.42670       -4.01810       -8.62900
H         -4.40480       -2.03960      -10.08790
H         -3.00350       -0.08920       -9.50190
H         -1.62290       -0.14770       -7.45330
H          0.88220       -0.58270        2.67170
H          0.00700       -1.33660        1.31170
H         -1.94920       -1.74620        2.78960
H         -0.48810       -2.55710        3.36530
H         -1.05000       -1.08910        4.16250
H          1.23570       -1.45160       -1.18220
H          1.07730       -0.16750        0.04380
H          1.23960        0.31970       -2.96670
H          1.04810        1.55880       -1.72460
H          2.52420        0.58980       -1.79080
H         -0.13900       -3.80610       -7.38400
H          6.69070       -6.45980       -7.49990
H          7.34080       -4.67460       -5.92040
H          5.72170       -2.95810       -5.22740
