
  xtb     02102219083D
 energy: -227.522988708434 gnorm: 0.000884970282 xtb: 6.4.1 (unknown)
121134  0     0  0            999 V2000
   -1.2596    2.3921    8.1777 C   0  0  0  0  0  0  0  0  0  0  0  0
   -0.1912    2.0033    8.9537 C   0  0  0  0  0  0  0  0  0  0  0  0
    0.9746    1.2556    8.4960 C   0  0  0  0  0  0  0  0  0  0  0  0
    1.1603    0.7572    7.4007 O   0  0  0  0  0  0  0  0  0  0  0  0
    1.9227    1.2433    9.6332 C   0  0  0  0  0  0  0  0  0  0  0  0
    3.2130    0.7478    9.6775 C   0  0  0  0  0  0  0  0  0  0  0  0
    3.8781   -0.1250    8.3711 Cl  0  0  0  0  0  0  0  0  0  0  0  0
    3.9756    0.9884   10.8291 C   0  0  0  0  0  0  0  0  0  0  0  0
    5.5634    0.3646   10.9468 Cl  0  0  0  0  0  0  0  0  0  0  0  0
    3.4579    1.7740   11.8569 C   0  0  0  0  0  0  0  0  0  0  0  0
    4.4441    2.1422   13.2053 Cl  0  0  0  0  0  0  0  0  0  0  0  0
    2.1488    2.2814   11.8012 C   0  0  0  0  0  0  0  0  0  0  0  0
    1.6549    3.3877   13.0153 Cl  0  0  0  0  0  0  0  0  0  0  0  0
    1.3523    1.9462   10.7141 C   0  0  0  0  0  0  0  0  0  0  0  0
   -0.0348    2.2605   10.3718 C   0  0  0  0  0  0  0  0  0  0  0  0
   -1.0486    2.5205   11.2576 C   0  0  0  0  0  0  0  0  0  0  0  0
   -0.9738    2.3781   12.6606 C   0  0  0  0  0  0  0  0  0  0  0  0
   -1.0511    2.1823   13.7887 N   0  0  0  0  0  0  0  0  0  0  0  0
   -2.3880    2.7897   10.9002 C   0  0  0  0  0  0  0  0  0  0  0  0
   -3.4972    3.0224   10.7142 N   0  0  0  0  0  0  0  0  0  0  0  0
   -1.5340    2.1564    6.8300 C   0  0  0  0  0  0  0  0  0  0  0  0
   -2.6931    2.6598    6.2072 C   0  0  0  0  0  0  0  0  0  0  0  0
   -3.7034    3.4878    6.8834 C   0  0  0  0  0  0  0  0  0  0  0  0
   -3.7505    4.8429    6.5694 C   0  0  0  0  0  0  0  0  0  0  0  0
   -4.6728    5.6711    7.1783 C   0  0  0  0  0  0  0  0  0  0  0  0
   -5.5602    5.1453    8.1022 C   0  0  0  0  0  0  0  0  0  0  0  0
   -5.5283    3.7959    8.3992 C   0  0  0  0  0  0  0  0  0  0  0  0
   -4.6068    2.9470    7.8004 C   0  0  0  0  0  0  0  0  0  0  0  0
   -4.6615    1.4721    8.0765 C   0  0  0  0  0  0  0  0  0  0  0  0
   -5.5764    0.7832    7.0615 C   0  0  0  0  0  0  0  0  0  0  0  0
   -2.7466    2.3172    4.8657 C   0  0  0  0  0  0  0  0  0  0  0  0
   -3.9338    2.6255    3.6132 S   0  0  0  0  0  0  0  0  0  0  0  0
   -2.9452    1.7310    2.5100 C   0  0  0  0  0  0  0  0  0  0  0  0
   -2.9635    1.3105    1.1755 C   0  0  0  0  0  0  0  0  0  0  0  0
   -3.9659    1.4256    0.1864 C   0  0  0  0  0  0  0  0  0  0  0  0
   -3.7659    0.7818   -1.0776 C   0  0  0  0  0  0  0  0  0  0  0  0
   -4.8039    0.9219   -1.8866 N   0  0  0  0  0  0  0  0  0  0  0  0
   -5.9345    1.7940   -1.1242 S   0  0  0  0  0  0  0  0  0  0  0  0
   -5.1427    2.0252    0.2695 N   0  0  0  0  0  0  0  0  0  0  0  0
   -2.5266    0.1538   -1.3338 C   0  0  0  0  0  0  0  0  0  0  0  0
   -2.0206   -0.4231   -2.5050 C   0  0  0  0  0  0  0  0  0  0  0  0
   -2.5393   -0.7819   -4.1169 S   0  0  0  0  0  0  0  0  0  0  0  0
   -0.9275   -1.3788   -4.4598 C   0  0  0  0  0  0  0  0  0  0  0  0
   -0.3447   -1.8892   -5.6132 C   0  0  0  0  0  0  0  0  0  0  0  0
   -1.0751   -2.0976   -6.8735 C   0  0  0  0  0  0  0  0  0  0  0  0
   -0.8749   -1.2776   -7.9857 C   0  0  0  0  0  0  0  0  0  0  0  0
    0.0369   -0.0855   -7.9313 C   0  0  0  0  0  0  0  0  0  0  0  0
   -0.7176    1.1299   -7.3879 C   0  0  0  0  0  0  0  0  0  0  0  0
   -1.6047   -1.5371   -9.1379 C   0  0  0  0  0  0  0  0  0  0  0  0
   -2.5096   -2.5802   -9.1951 C   0  0  0  0  0  0  0  0  0  0  0  0
   -2.7140   -3.3797   -8.0834 C   0  0  0  0  0  0  0  0  0  0  0  0
   -2.0008   -3.1352   -6.9262 C   0  0  0  0  0  0  0  0  0  0  0  0
    1.0072   -2.2100   -5.4155 C   0  0  0  0  0  0  0  0  0  0  0  0
    1.5391   -1.8553   -3.7738 S   0  0  0  0  0  0  0  0  0  0  0  0
   -0.0430   -1.2933   -3.3715 C   0  0  0  0  0  0  0  0  0  0  0  0
   -0.6848   -0.7574   -2.2496 C   0  0  0  0  0  0  0  0  0  0  0  0
   -0.3629   -0.4453   -0.9571 N   0  0  0  0  0  0  0  0  0  0  0  0
   -1.4820    0.1111   -0.3623 C   0  0  0  0  0  0  0  0  0  0  0  0
   -1.7492    0.5949    0.9463 C   0  0  0  0  0  0  0  0  0  0  0  0
   -1.0424    0.5520    2.1345 N   0  0  0  0  0  0  0  0  0  0  0  0
   -1.7652    1.2313    3.0786 C   0  0  0  0  0  0  0  0  0  0  0  0
   -1.6482    1.5477    4.4333 C   0  0  0  0  0  0  0  0  0  0  0  0
   -0.5273    1.2404    5.7073 S   0  0  0  0  0  0  0  0  0  0  0  0
    0.0315   -0.3211    2.5553 C   0  0  0  0  0  0  0  0  0  0  0  0
   -0.3550   -1.7908    2.4122 C   0  0  0  0  0  0  0  0  0  0  0  0
    1.0273   -0.4056   -0.5607 C   0  0  0  0  0  0  0  0  0  0  0  0
    1.5143    1.0290   -0.3741 C   0  0  0  0  0  0  0  0  0  0  0  0
    1.7959   -2.7474   -6.4428 C   0  0  0  0  0  0  0  0  0  0  0  0
    3.1156   -3.1151   -6.4495 C   0  0  0  0  0  0  0  0  0  0  0  0
    4.0177   -3.0926   -5.2975 C   0  0  0  0  0  0  0  0  0  0  0  0
    3.7947   -2.6500   -4.1825 O   0  0  0  0  0  0  0  0  0  0  0  0
    5.2633   -3.7452   -5.7398 C   0  0  0  0  0  0  0  0  0  0  0  0
    6.3975   -4.0155   -5.0022 C   0  0  0  0  0  0  0  0  0  0  0  0
    7.4239   -4.7067   -5.6297 C   0  0  0  0  0  0  0  0  0  0  0  0
    7.2912   -5.1494   -6.9340 C   0  0  0  0  0  0  0  0  0  0  0  0
    6.1381   -4.8912   -7.6842 C   0  0  0  0  0  0  0  0  0  0  0  0
    5.9110   -5.3660   -8.9206 O   0  0  0  0  0  0  0  0  0  0  0  0
    6.9260   -6.0567   -9.6129 C   0  0  0  0  0  0  0  0  0  0  0  0
    5.1286   -4.1256   -7.0854 C   0  0  0  0  0  0  0  0  0  0  0  0
    3.8539   -3.6318   -7.5935 C   0  0  0  0  0  0  0  0  0  0  0  0
    3.4808   -3.5161   -8.9068 C   0  0  0  0  0  0  0  0  0  0  0  0
    4.2689   -3.8017  -10.0446 C   0  0  0  0  0  0  0  0  0  0  0  0
    4.8065   -3.9189  -11.0527 N   0  0  0  0  0  0  0  0  0  0  0  0
    2.2647   -2.9567   -9.3581 C   0  0  0  0  0  0  0  0  0  0  0  0
    1.3168   -2.5091   -9.8292 N   0  0  0  0  0  0  0  0  0  0  0  0
   -2.0161    2.9998    8.6617 H   0  0  0  0  0  0  0  0  0  0  0  0
   -3.0487    5.2416    5.8509 H   0  0  0  0  0  0  0  0  0  0  0  0
   -4.6964    6.7223    6.9334 H   0  0  0  0  0  0  0  0  0  0  0  0
   -6.2800    5.7873    8.5871 H   0  0  0  0  0  0  0  0  0  0  0  0
   -6.2238    3.3868    9.1160 H   0  0  0  0  0  0  0  0  0  0  0  0
   -3.6659    1.0290    8.0204 H   0  0  0  0  0  0  0  0  0  0  0  0
   -5.0456    1.3106    9.0844 H   0  0  0  0  0  0  0  0  0  0  0  0
   -5.6339   -0.2834    7.2654 H   0  0  0  0  0  0  0  0  0  0  0  0
   -6.5788    1.2016    7.1110 H   0  0  0  0  0  0  0  0  0  0  0  0
   -5.1987    0.9242    6.0509 H   0  0  0  0  0  0  0  0  0  0  0  0
    0.8999   -0.2861   -7.2943 H   0  0  0  0  0  0  0  0  0  0  0  0
    0.4036    0.1302   -8.9356 H   0  0  0  0  0  0  0  0  0  0  0  0
   -0.0651    1.9996   -7.3587 H   0  0  0  0  0  0  0  0  0  0  0  0
   -1.0807    0.9342   -6.3812 H   0  0  0  0  0  0  0  0  0  0  0  0
   -1.5731    1.3574   -8.0194 H   0  0  0  0  0  0  0  0  0  0  0  0
   -1.4491   -0.9132  -10.0048 H   0  0  0  0  0  0  0  0  0  0  0  0
   -3.0586   -2.7685  -10.1054 H   0  0  0  0  0  0  0  0  0  0  0  0
   -3.4244   -4.1921   -8.1163 H   0  0  0  0  0  0  0  0  0  0  0  0
   -2.1474   -3.7547   -6.0528 H   0  0  0  0  0  0  0  0  0  0  0  0
    0.2170   -0.0994    3.6089 H   0  0  0  0  0  0  0  0  0  0  0  0
    0.9490   -0.0913    2.0138 H   0  0  0  0  0  0  0  0  0  0  0  0
   -1.2168   -2.0101    3.0381 H   0  0  0  0  0  0  0  0  0  0  0  0
   -0.6114   -2.0355    1.3840 H   0  0  0  0  0  0  0  0  0  0  0  0
    0.4708   -2.4215    2.7294 H   0  0  0  0  0  0  0  0  0  0  0  0
    1.5938   -0.8746   -1.3687 H   0  0  0  0  0  0  0  0  0  0  0  0
    1.1891   -1.0062    0.3344 H   0  0  0  0  0  0  0  0  0  0  0  0
    0.9228    1.5552    0.3717 H   0  0  0  0  0  0  0  0  0  0  0  0
    1.4362    1.5714   -1.3133 H   0  0  0  0  0  0  0  0  0  0  0  0
    2.5551    1.0278   -0.0623 H   0  0  0  0  0  0  0  0  0  0  0  0
    1.2389   -2.8947   -7.3612 H   0  0  0  0  0  0  0  0  0  0  0  0
    6.4690   -3.6959   -3.9750 H   0  0  0  0  0  0  0  0  0  0  0  0
    8.3344   -4.9249   -5.0923 H   0  0  0  0  0  0  0  0  0  0  0  0
    8.0958   -5.7161   -7.3753 H   0  0  0  0  0  0  0  0  0  0  0  0
    7.1502   -7.0165   -9.1376 H   0  0  0  0  0  0  0  0  0  0  0  0
    6.5231   -6.2235  -10.6102 H   0  0  0  0  0  0  0  0  0  0  0  0
    7.8369   -5.4570   -9.6887 H   0  0  0  0  0  0  0  0  0  0  0  0
  1  2  2  0  0  0  0
  2  3  1  0  0  0  0
  3  4  2  0  0  0  0
  3  5  1  0  0  0  0
  5  6  2  0  0  0  0
  6  7  1  0  0  0  0
  6  8  1  0  0  0  0
  8  9  1  0  0  0  0
  8 10  2  0  0  0  0
 10 11  1  0  0  0  0
 10 12  1  0  0  0  0
 12 13  1  0  0  0  0
 12 14  2  0  0  0  0
 14 15  1  0  0  0  0
 15 16  2  0  0  0  0
 16 17  1  0  0  0  0
 17 18  3  0  0  0  0
 16 19  1  0  0  0  0
 19 20  3  0  0  0  0
  1 21  1  0  0  0  0
 21 22  2  0  0  0  0
 22 23  1  0  0  0  0
 23 24  2  0  0  0  0
 24 25  1  0  0  0  0
 25 26  2  0  0  0  0
 26 27  1  0  0  0  0
 27 28  2  0  0  0  0
 28 29  1  0  0  0  0
 29 30  1  0  0  0  0
 22 31  1  0  0  0  0
 31 32  1  0  0  0  0
 32 33  1  0  0  0  0
 33 34  1  0  0  0  0
 34 35  1  0  0  0  0
 35 36  1  0  0  0  0
 36 37  2  0  0  0  0
 37 38  1  0  0  0  0
 38 39  1  0  0  0  0
 36 40  1  0  0  0  0
 40 41  1  0  0  0  0
 41 42  1  0  0  0  0
 42 43  1  0  0  0  0
 43 44  1  0  0  0  0
 44 45  1  0  0  0  0
 45 46  2  0  0  0  0
 46 47  1  0  0  0  0
 47 48  1  0  0  0  0
 46 49  1  0  0  0  0
 49 50  2  0  0  0  0
 50 51  1  0  0  0  0
 51 52  2  0  0  0  0
 44 53  2  0  0  0  0
 53 54  1  0  0  0  0
 54 55  1  0  0  0  0
 55 56  1  0  0  0  0
 56 57  1  0  0  0  0
 57 58  1  0  0  0  0
 58 59  1  0  0  0  0
 59 60  1  0  0  0  0
 60 61  1  0  0  0  0
 61 62  1  0  0  0  0
 62 63  1  0  0  0  0
 60 64  1  0  0  0  0
 64 65  1  0  0  0  0
 57 66  1  0  0  0  0
 66 67  1  0  0  0  0
 53 68  1  0  0  0  0
 68 69  2  0  0  0  0
 69 70  1  0  0  0  0
 70 71  2  0  0  0  0
 70 72  1  0  0  0  0
 72 73  2  0  0  0  0
 73 74  1  0  0  0  0
 74 75  2  0  0  0  0
 75 76  1  0  0  0  0
 76 77  1  0  0  0  0
 77 78  1  0  0  0  0
 76 79  2  0  0  0  0
 79 80  1  0  0  0  0
 80 81  2  0  0  0  0
 81 82  1  0  0  0  0
 82 83  3  0  0  0  0
 81 84  1  0  0  0  0
 84 85  3  0  0  0  0
 15  2  1  0  0  0  0
 63 21  1  0  0  0  0
 80 69  1  0  0  0  0
 14  5  1  0  0  0  0
 28 23  1  0  0  0  0
 62 31  2  0  0  0  0
 79 72  1  0  0  0  0
 61 33  2  0  0  0  0
 59 34  2  0  0  0  0
 39 35  2  0  0  0  0
 58 40  2  0  0  0  0
 56 41  2  0  0  0  0
 55 43  2  0  0  0  0
 52 45  1  0  0  0  0
  1 86  1  0  0  0  0
 24 87  1  0  0  0  0
 25 88  1  0  0  0  0
 26 89  1  0  0  0  0
 27 90  1  0  0  0  0
 29 91  1  0  0  0  0
 29 92  1  0  0  0  0
 30 93  1  0  0  0  0
 30 94  1  0  0  0  0
 30 95  1  0  0  0  0
 47 96  1  0  0  0  0
 47 97  1  0  0  0  0
 48 98  1  0  0  0  0
 48 99  1  0  0  0  0
 48100  1  0  0  0  0
 49101  1  0  0  0  0
 50102  1  0  0  0  0
 51103  1  0  0  0  0
 52104  1  0  0  0  0
 64105  1  0  0  0  0
 64106  1  0  0  0  0
 65107  1  0  0  0  0
 65108  1  0  0  0  0
 65109  1  0  0  0  0
 66110  1  0  0  0  0
 66111  1  0  0  0  0
 67112  1  0  0  0  0
 67113  1  0  0  0  0
 67114  1  0  0  0  0
 68115  1  0  0  0  0
 73116  1  0  0  0  0
 74117  1  0  0  0  0
 75118  1  0  0  0  0
 78119  1  0  0  0  0
 78120  1  0  0  0  0
 78121  1  0  0  0  0
M  END
