
  xtb     02012223113D
 energy: -199.852188365285 gnorm: 0.000296417102 xtb: 6.4.1 (unknown)
111124  0     0  0            999 V2000
   -7.5055   -6.5582    0.5906 C   0  0  0  0  0  0  0  0  0  0  0  0
   -7.4292   -7.8623    0.9786 C   0  0  0  0  0  0  0  0  0  0  0  0
   -8.5997   -8.5287    1.5958 C   0  0  0  0  0  0  0  0  0  0  0  0
   -9.7471   -8.1550    1.5716 O   0  0  0  0  0  0  0  0  0  0  0  0
   -8.0316   -9.6999    2.3124 C   0  0  0  0  0  0  0  0  0  0  0  0
   -8.6517  -10.5623    3.2001 C   0  0  0  0  0  0  0  0  0  0  0  0
  -10.3284  -10.4722    3.5015 Cl  0  0  0  0  0  0  0  0  0  0  0  0
   -7.8622  -11.5155    3.8608 C   0  0  0  0  0  0  0  0  0  0  0  0
   -8.5902  -12.6150    4.9491 Cl  0  0  0  0  0  0  0  0  0  0  0  0
   -6.4822  -11.5466    3.6625 C   0  0  0  0  0  0  0  0  0  0  0  0
   -5.5311  -12.6591    4.5466 Cl  0  0  0  0  0  0  0  0  0  0  0  0
   -5.8587  -10.6719    2.7588 C   0  0  0  0  0  0  0  0  0  0  0  0
   -4.1467  -10.6529    2.6643 Cl  0  0  0  0  0  0  0  0  0  0  0  0
   -6.6495   -9.7856    2.0438 C   0  0  0  0  0  0  0  0  0  0  0  0
   -6.3263   -8.8012    1.0128 C   0  0  0  0  0  0  0  0  0  0  0  0
   -5.3983   -8.9350    0.0159 C   0  0  0  0  0  0  0  0  0  0  0  0
   -4.5170  -10.0216   -0.1620 C   0  0  0  0  0  0  0  0  0  0  0  0
   -3.8077  -10.8847   -0.4232 N   0  0  0  0  0  0  0  0  0  0  0  0
   -5.3580   -8.0565   -1.0914 C   0  0  0  0  0  0  0  0  0  0  0  0
   -5.3187   -7.3894   -2.0240 N   0  0  0  0  0  0  0  0  0  0  0  0
   -6.4622   -5.6335    0.3937 C   0  0  0  0  0  0  0  0  0  0  0  0
   -6.6109   -4.3446   -0.0962 C   0  0  0  0  0  0  0  0  0  0  0  0
   -5.4186   -3.6370   -0.0884 C   0  0  0  0  0  0  0  0  0  0  0  0
   -4.9778   -2.0312   -0.5862 S   0  0  0  0  0  0  0  0  0  0  0  0
   -3.3532   -2.3501   -0.0926 C   0  0  0  0  0  0  0  0  0  0  0  0
   -2.1374   -1.6041   -0.1155 C   0  0  0  0  0  0  0  0  0  0  0  0
   -1.1257   -2.4479    0.4003 C   0  0  0  0  0  0  0  0  0  0  0  0
   -1.6868   -3.8121    0.7703 C   0  0  0  0  0  0  0  0  0  0  0  0
   -1.1638   -4.9372   -0.1497 C   0  0  0  0  0  0  0  0  0  0  0  0
    0.3233   -5.2415   -0.0351 C   0  0  0  0  0  0  0  0  0  0  0  0
   -1.4265   -4.0590    2.2690 C   0  0  0  0  0  0  0  0  0  0  0  0
   -1.9229   -5.3930    2.8089 C   0  0  0  0  0  0  0  0  0  0  0  0
   -3.1458   -3.6128    0.4433 C   0  0  0  0  0  0  0  0  0  0  0  0
   -4.3242   -4.3548    0.4379 C   0  0  0  0  0  0  0  0  0  0  0  0
   -4.8058   -5.9408    0.9078 S   0  0  0  0  0  0  0  0  0  0  0  0
    0.1472   -1.9561    0.5772 C   0  0  0  0  0  0  0  0  0  0  0  0
    0.3851   -0.6349    0.2056 C   0  0  0  0  0  0  0  0  0  0  0  0
    1.5615    0.1633    0.3324 C   0  0  0  0  0  0  0  0  0  0  0  0
    1.3242    1.4619   -0.0879 C   0  0  0  0  0  0  0  0  0  0  0  0
   -0.0863    1.5967   -0.6062 C   0  0  0  0  0  0  0  0  0  0  0  0
   -0.6189    0.1975   -0.3436 C   0  0  0  0  0  0  0  0  0  0  0  0
   -1.8981   -0.2851   -0.4937 C   0  0  0  0  0  0  0  0  0  0  0  0
   -0.9331    2.6053    0.1956 C   0  0  0  0  0  0  0  0  0  0  0  0
   -0.5957    4.0730   -0.0275 C   0  0  0  0  0  0  0  0  0  0  0  0
    0.0075    1.9196   -2.1130 C   0  0  0  0  0  0  0  0  0  0  0  0
   -1.3214    1.9753   -2.8539 C   0  0  0  0  0  0  0  0  0  0  0  0
    2.4710    2.2506    0.0229 C   0  0  0  0  0  0  0  0  0  0  0  0
    3.5640    1.5265    0.5452 C   0  0  0  0  0  0  0  0  0  0  0  0
    3.1724   -0.1348    0.8894 S   0  0  0  0  0  0  0  0  0  0  0  0
    4.7139    2.2798    0.6831 C   0  0  0  0  0  0  0  0  0  0  0  0
    4.5321    3.6044    0.2852 C   0  0  0  0  0  0  0  0  0  0  0  0
    2.8967    3.8933   -0.2895 S   0  0  0  0  0  0  0  0  0  0  0  0
    5.5631    4.5541    0.3830 C   0  0  0  0  0  0  0  0  0  0  0  0
    5.5521    5.9023    0.1479 C   0  0  0  0  0  0  0  0  0  0  0  0
    4.3856    6.6977   -0.2592 C   0  0  0  0  0  0  0  0  0  0  0  0
    3.2816    6.2867   -0.5721 O   0  0  0  0  0  0  0  0  0  0  0  0
    4.8075    8.1061   -0.2097 C   0  0  0  0  0  0  0  0  0  0  0  0
    4.0171    9.2263   -0.4556 C   0  0  0  0  0  0  0  0  0  0  0  0
    4.6801   10.4208   -0.3090 C   0  0  0  0  0  0  0  0  0  0  0  0
    6.0307   10.4957    0.0576 C   0  0  0  0  0  0  0  0  0  0  0  0
    6.8216    9.3980    0.3019 C   0  0  0  0  0  0  0  0  0  0  0  0
    6.1679    8.1713    0.1550 C   0  0  0  0  0  0  0  0  0  0  0  0
    6.6684    6.8105    0.3402 C   0  0  0  0  0  0  0  0  0  0  0  0
    7.9678    6.4746    0.6183 C   0  0  0  0  0  0  0  0  0  0  0  0
    8.4663    5.1636    0.7708 C   0  0  0  0  0  0  0  0  0  0  0  0
    8.9584    4.1343    0.9069 N   0  0  0  0  0  0  0  0  0  0  0  0
    9.0181    7.4040    0.7739 C   0  0  0  0  0  0  0  0  0  0  0  0
    9.9232    8.0968    0.9129 N   0  0  0  0  0  0  0  0  0  0  0  0
    6.0402   12.0029    0.0182 C   0  0  0  0  0  0  0  0  0  0  0  0
    6.6922   12.6880   -1.2082 C   0  0  0  0  0  0  0  0  0  0  0  0
    6.5796   11.7134   -2.3542 C   0  0  0  0  0  0  0  0  0  0  0  0
    5.3017   11.6432   -2.7021 C   0  0  0  0  0  0  0  0  0  0  0  0
    4.5267   12.5689   -1.7972 C   0  0  0  0  0  0  0  0  0  0  0  0
    5.5729   13.6738   -1.5798 C   0  0  0  0  0  0  0  0  0  0  0  0
    4.5358   11.9197   -0.3910 C   0  0  0  0  0  0  0  0  0  0  0  0
   -8.5090   -6.1495    0.5283 H   0  0  0  0  0  0  0  0  0  0  0  0
   -7.5483   -3.9617   -0.4560 H   0  0  0  0  0  0  0  0  0  0  0  0
   -1.7387   -5.8396    0.0679 H   0  0  0  0  0  0  0  0  0  0  0  0
   -1.3865   -4.6512   -1.1811 H   0  0  0  0  0  0  0  0  0  0  0  0
    0.5985   -5.5104    0.9809 H   0  0  0  0  0  0  0  0  0  0  0  0
    0.5658   -6.0806   -0.6832 H   0  0  0  0  0  0  0  0  0  0  0  0
    0.9202   -4.3902   -0.3500 H   0  0  0  0  0  0  0  0  0  0  0  0
   -1.9049   -3.2474    2.8240 H   0  0  0  0  0  0  0  0  0  0  0  0
   -0.3526   -3.9808    2.4431 H   0  0  0  0  0  0  0  0  0  0  0  0
   -1.6955   -5.4577    3.8707 H   0  0  0  0  0  0  0  0  0  0  0  0
   -2.9977   -5.4906    2.6886 H   0  0  0  0  0  0  0  0  0  0  0  0
   -1.4417   -6.2287    2.3093 H   0  0  0  0  0  0  0  0  0  0  0  0
    0.9424   -2.5410    1.0121 H   0  0  0  0  0  0  0  0  0  0  0  0
   -2.7108    0.3217   -0.8609 H   0  0  0  0  0  0  0  0  0  0  0  0
   -1.9827    2.4407   -0.0531 H   0  0  0  0  0  0  0  0  0  0  0  0
   -0.8104    2.3648    1.2552 H   0  0  0  0  0  0  0  0  0  0  0  0
    0.4451    4.2810    0.1995 H   0  0  0  0  0  0  0  0  0  0  0  0
   -0.7902    4.3741   -1.0525 H   0  0  0  0  0  0  0  0  0  0  0  0
   -1.2135    4.6847    0.6264 H   0  0  0  0  0  0  0  0  0  0  0  0
    0.5251    2.8750   -2.2133 H   0  0  0  0  0  0  0  0  0  0  0  0
    0.6366    1.1552   -2.5772 H   0  0  0  0  0  0  0  0  0  0  0  0
   -1.7967    0.9984   -2.8739 H   0  0  0  0  0  0  0  0  0  0  0  0
   -1.1456    2.2843   -3.8820 H   0  0  0  0  0  0  0  0  0  0  0  0
   -2.0016    2.6895   -2.3987 H   0  0  0  0  0  0  0  0  0  0  0  0
    5.6502    1.9101    1.0608 H   0  0  0  0  0  0  0  0  0  0  0  0
    6.4933    4.1263    0.7370 H   0  0  0  0  0  0  0  0  0  0  0  0
    2.9789    9.1224   -0.7299 H   0  0  0  0  0  0  0  0  0  0  0  0
    7.8566    9.4751    0.5895 H   0  0  0  0  0  0  0  0  0  0  0  0
    6.2881   12.5022    0.9528 H   0  0  0  0  0  0  0  0  0  0  0  0
    7.6810   13.0984   -1.0226 H   0  0  0  0  0  0  0  0  0  0  0  0
    7.4070   11.1498   -2.7438 H   0  0  0  0  0  0  0  0  0  0  0  0
    4.8474   11.0089   -3.4406 H   0  0  0  0  0  0  0  0  0  0  0  0
    3.5437   12.8721   -2.1480 H   0  0  0  0  0  0  0  0  0  0  0  0
    5.3165   14.3624   -0.7759 H   0  0  0  0  0  0  0  0  0  0  0  0
    5.7892   14.2333   -2.4885 H   0  0  0  0  0  0  0  0  0  0  0  0
    3.8006   12.3649    0.2766 H   0  0  0  0  0  0  0  0  0  0  0  0
  1  2  2  0  0  0  0
  2  3  1  0  0  0  0
  3  4  2  0  0  0  0
  3  5  1  0  0  0  0
  5  6  2  0  0  0  0
  6  7  1  0  0  0  0
  6  8  1  0  0  0  0
  8  9  1  0  0  0  0
  8 10  2  0  0  0  0
 10 11  1  0  0  0  0
 10 12  1  0  0  0  0
 12 13  1  0  0  0  0
 12 14  2  0  0  0  0
 14 15  1  0  0  0  0
 15 16  2  0  0  0  0
 16 17  1  0  0  0  0
 17 18  3  0  0  0  0
 16 19  1  0  0  0  0
 19 20  3  0  0  0  0
  1 21  1  0  0  0  0
 21 22  2  0  0  0  0
 22 23  1  0  0  0  0
 23 24  1  0  0  0  0
 24 25  1  0  0  0  0
 25 26  1  0  0  0  0
 26 27  2  0  0  0  0
 27 28  1  0  0  0  0
 28 29  1  0  0  0  0
 29 30  1  0  0  0  0
 28 31  1  0  0  0  0
 31 32  1  0  0  0  0
 28 33  1  0  0  0  0
 33 34  1  0  0  0  0
 34 35  1  0  0  0  0
 27 36  1  0  0  0  0
 36 37  2  0  0  0  0
 37 38  1  0  0  0  0
 38 39  2  0  0  0  0
 39 40  1  0  0  0  0
 40 41  1  0  0  0  0
 41 42  2  0  0  0  0
 40 43  1  0  0  0  0
 43 44  1  0  0  0  0
 40 45  1  0  0  0  0
 45 46  1  0  0  0  0
 39 47  1  0  0  0  0
 47 48  2  0  0  0  0
 48 49  1  0  0  0  0
 48 50  1  0  0  0  0
 50 51  2  0  0  0  0
 51 52  1  0  0  0  0
 51 53  1  0  0  0  0
 53 54  2  0  0  0  0
 54 55  1  0  0  0  0
 55 56  2  0  0  0  0
 55 57  1  0  0  0  0
 57 58  2  0  0  0  0
 58 59  1  0  0  0  0
 59 60  2  0  0  0  0
 60 61  1  0  0  0  0
 61 62  2  0  0  0  0
 62 63  1  0  0  0  0
 63 64  2  0  0  0  0
 64 65  1  0  0  0  0
 65 66  3  0  0  0  0
 64 67  1  0  0  0  0
 67 68  3  0  0  0  0
 60 69  1  0  0  0  0
 69 70  1  0  0  0  0
 70 71  1  0  0  0  0
 71 72  2  0  0  0  0
 72 73  1  0  0  0  0
 73 74  1  0  0  0  0
 73 75  1  0  0  0  0
 15  2  1  0  0  0  0
 35 21  1  0  0  0  0
 41 37  1  0  0  0  0
 52 47  1  0  0  0  0
 63 54  1  0  0  0  0
 75 69  1  0  0  0  0
 14  5  1  0  0  0  0
 34 23  2  0  0  0  0
 49 38  1  0  0  0  0
 62 57  1  0  0  0  0
 74 70  1  0  0  0  0
 33 25  2  0  0  0  0
 75 59  1  0  0  0  0
 42 26  1  0  0  0  0
  1 76  1  0  0  0  0
 22 77  1  0  0  0  0
 29 78  1  0  0  0  0
 29 79  1  0  0  0  0
 30 80  1  0  0  0  0
 30 81  1  0  0  0  0
 30 82  1  0  0  0  0
 31 83  1  0  0  0  0
 31 84  1  0  0  0  0
 32 85  1  0  0  0  0
 32 86  1  0  0  0  0
 32 87  1  0  0  0  0
 36 88  1  0  0  0  0
 42 89  1  0  0  0  0
 43 90  1  0  0  0  0
 43 91  1  0  0  0  0
 44 92  1  0  0  0  0
 44 93  1  0  0  0  0
 44 94  1  0  0  0  0
 45 95  1  0  0  0  0
 45 96  1  0  0  0  0
 46 97  1  0  0  0  0
 46 98  1  0  0  0  0
 46 99  1  0  0  0  0
 50100  1  0  0  0  0
 53101  1  0  0  0  0
 58102  1  0  0  0  0
 61103  1  0  0  0  0
 69104  1  0  0  0  0
 70105  1  0  0  0  0
 71106  1  0  0  0  0
 72107  1  0  0  0  0
 73108  1  0  0  0  0
 74109  1  0  0  0  0
 74110  1  0  0  0  0
 75111  1  0  0  0  0
M  END
