
  xtb     02022205333D
 energy: -234.118116417661 gnorm: 0.000647556447 xtb: 6.4.1 (unknown)
123137  0     0  0            999 V2000
    3.8333   -4.0546   -6.7061 C   0  0  0  0  0  0  0  0  0  0  0  0
    3.1161   -3.7221   -7.8330 C   0  0  0  0  0  0  0  0  0  0  0  0
    2.0507   -2.7280   -7.9059 C   0  0  0  0  0  0  0  0  0  0  0  0
    1.6598   -1.9864   -7.0224 O   0  0  0  0  0  0  0  0  0  0  0  0
    1.5071   -2.8105   -9.2796 C   0  0  0  0  0  0  0  0  0  0  0  0
    0.4251   -2.1412   -9.8217 C   0  0  0  0  0  0  0  0  0  0  0  0
   -0.3911   -0.9179   -8.9572 Cl  0  0  0  0  0  0  0  0  0  0  0  0
    0.0014   -2.5006  -11.1089 C   0  0  0  0  0  0  0  0  0  0  0  0
   -1.3069   -1.6763  -11.8384 Cl  0  0  0  0  0  0  0  0  0  0  0  0
    0.6145   -3.5609  -11.7735 C   0  0  0  0  0  0  0  0  0  0  0  0
    0.0122   -4.0514  -13.2976 Cl  0  0  0  0  0  0  0  0  0  0  0  0
    1.7053   -4.2449  -11.2107 C   0  0  0  0  0  0  0  0  0  0  0  0
    2.2726   -5.6548  -12.0057 Cl  0  0  0  0  0  0  0  0  0  0  0  0
    2.2038   -3.8101   -9.9889 C   0  0  0  0  0  0  0  0  0  0  0  0
    3.3201   -4.2666   -9.1613 C   0  0  0  0  0  0  0  0  0  0  0  0
    4.4443   -4.9130   -9.6091 C   0  0  0  0  0  0  0  0  0  0  0  0
    5.4865   -5.4033   -8.7929 C   0  0  0  0  0  0  0  0  0  0  0  0
    6.3669   -5.8674   -8.2193 N   0  0  0  0  0  0  0  0  0  0  0  0
    4.8246   -5.0454  -10.9626 C   0  0  0  0  0  0  0  0  0  0  0  0
    5.2808   -5.0933  -12.0146 N   0  0  0  0  0  0  0  0  0  0  0  0
    3.7365   -3.5824   -5.3961 C   0  0  0  0  0  0  0  0  0  0  0  0
    4.5496   -4.0865   -4.3615 C   0  0  0  0  0  0  0  0  0  0  0  0
    5.6298   -5.0590   -4.5806 C   0  0  0  0  0  0  0  0  0  0  0  0
    6.7544   -4.6481   -5.2913 C   0  0  0  0  0  0  0  0  0  0  0  0
    7.8053   -5.5171   -5.5080 C   0  0  0  0  0  0  0  0  0  0  0  0
    7.7347   -6.8096   -5.0191 C   0  0  0  0  0  0  0  0  0  0  0  0
    6.6157   -7.2223   -4.3193 C   0  0  0  0  0  0  0  0  0  0  0  0
    5.5513   -6.3626   -4.0848 C   0  0  0  0  0  0  0  0  0  0  0  0
    4.3156   -6.8671   -3.3943 C   0  0  0  0  0  0  0  0  0  0  0  0
    3.2413   -7.2413   -4.4180 C   0  0  0  0  0  0  0  0  0  0  0  0
    4.2403   -3.5103   -3.1380 C   0  0  0  0  0  0  0  0  0  0  0  0
    4.9107   -3.7094   -1.5293 S   0  0  0  0  0  0  0  0  0  0  0  0
    3.7825   -2.5307   -0.9542 C   0  0  0  0  0  0  0  0  0  0  0  0
    3.4478   -1.8812    0.2389 C   0  0  0  0  0  0  0  0  0  0  0  0
    4.0454   -1.9468    1.5173 C   0  0  0  0  0  0  0  0  0  0  0  0
    3.5623   -1.0803    2.5493 C   0  0  0  0  0  0  0  0  0  0  0  0
    4.2407   -1.2100    3.6784 N   0  0  0  0  0  0  0  0  0  0  0  0
    5.3877   -2.3312    3.4610 S   0  0  0  0  0  0  0  0  0  0  0  0
    5.0625   -2.6935    1.9167 N   0  0  0  0  0  0  0  0  0  0  0  0
    2.4411   -0.2636    2.2824 C   0  0  0  0  0  0  0  0  0  0  0  0
    1.7060    0.5734    3.1293 C   0  0  0  0  0  0  0  0  0  0  0  0
    1.7409    1.1352    4.7655 S   0  0  0  0  0  0  0  0  0  0  0  0
    0.2515    2.0085    4.4564 C   0  0  0  0  0  0  0  0  0  0  0  0
   -0.5439    2.8213    5.2525 C   0  0  0  0  0  0  0  0  0  0  0  0
   -0.2600    3.1965    6.6455 C   0  0  0  0  0  0  0  0  0  0  0  0
   -0.3790    2.2793    7.6913 C   0  0  0  0  0  0  0  0  0  0  0  0
   -0.8845    0.8845    7.4571 C   0  0  0  0  0  0  0  0  0  0  0  0
   -2.4124    0.8812    7.3646 C   0  0  0  0  0  0  0  0  0  0  0  0
   -0.1066    2.7110    8.9822 C   0  0  0  0  0  0  0  0  0  0  0  0
    0.2789    4.0130    9.2399 C   0  0  0  0  0  0  0  0  0  0  0  0
    0.3937    4.9175    8.1987 C   0  0  0  0  0  0  0  0  0  0  0  0
    0.1201    4.5100    6.9080 C   0  0  0  0  0  0  0  0  0  0  0  0
   -1.6648    3.2997    4.5493 C   0  0  0  0  0  0  0  0  0  0  0  0
   -1.6921    2.7439    2.8792 S   0  0  0  0  0  0  0  0  0  0  0  0
   -0.2309    1.8635    3.1423 C   0  0  0  0  0  0  0  0  0  0  0  0
    0.6160    1.0461    2.3878 C   0  0  0  0  0  0  0  0  0  0  0  0
    0.6724    0.5586    1.1106 N   0  0  0  0  0  0  0  0  0  0  0  0
    1.7913   -0.2498    1.0107 C   0  0  0  0  0  0  0  0  0  0  0  0
    2.3652   -0.9965   -0.0540 C   0  0  0  0  0  0  0  0  0  0  0  0
    2.0847   -1.0944   -1.4057 N   0  0  0  0  0  0  0  0  0  0  0  0
    2.9410   -2.0147   -1.9484 C   0  0  0  0  0  0  0  0  0  0  0  0
    3.2002   -2.5632   -3.2066 C   0  0  0  0  0  0  0  0  0  0  0  0
    2.5945   -2.3731   -4.8099 S   0  0  0  0  0  0  0  0  0  0  0  0
    1.3606   -0.2028   -2.2848 C   0  0  0  0  0  0  0  0  0  0  0  0
    1.9571    1.2027   -2.2665 C   0  0  0  0  0  0  0  0  0  0  0  0
   -0.4916    0.6710    0.2602 C   0  0  0  0  0  0  0  0  0  0  0  0
   -1.2098   -0.6686    0.1165 C   0  0  0  0  0  0  0  0  0  0  0  0
   -2.6559    4.0522    5.1846 C   0  0  0  0  0  0  0  0  0  0  0  0
   -3.8282    4.5763    4.6967 C   0  0  0  0  0  0  0  0  0  0  0  0
   -4.2588    4.5517    3.2984 C   0  0  0  0  0  0  0  0  0  0  0  0
   -3.7000    4.0105    2.3572 O   0  0  0  0  0  0  0  0  0  0  0  0
   -5.5086    5.3272    3.2412 C   0  0  0  0  0  0  0  0  0  0  0  0
   -6.2885    5.6150    2.1593 C   0  0  0  0  0  0  0  0  0  0  0  0
   -7.4580    6.3866    2.3404 C   0  0  0  0  0  0  0  0  0  0  0  0
   -8.3018    6.7121    1.2593 C   0  0  0  0  0  0  0  0  0  0  0  0
   -9.4314    7.4591    1.4475 C   0  0  0  0  0  0  0  0  0  0  0  0
   -9.7431    7.9018    2.7399 C   0  0  0  0  0  0  0  0  0  0  0  0
  -10.8588    8.6355    2.9060 F   0  0  0  0  0  0  0  0  0  0  0  0
   -8.9588    7.6149    3.8227 C   0  0  0  0  0  0  0  0  0  0  0  0
   -7.7922    6.8459    3.6473 C   0  0  0  0  0  0  0  0  0  0  0  0
   -6.9631    6.5301    4.7498 C   0  0  0  0  0  0  0  0  0  0  0  0
   -5.8362    5.7787    4.5514 C   0  0  0  0  0  0  0  0  0  0  0  0
   -4.8148    5.2921    5.4773 C   0  0  0  0  0  0  0  0  0  0  0  0
   -4.8374    5.4520    6.8401 C   0  0  0  0  0  0  0  0  0  0  0  0
   -3.9054    4.9120    7.7510 C   0  0  0  0  0  0  0  0  0  0  0  0
   -3.2091    4.4936    8.5639 N   0  0  0  0  0  0  0  0  0  0  0  0
   -5.8384    6.1661    7.5307 C   0  0  0  0  0  0  0  0  0  0  0  0
   -6.6184    6.7375    8.1502 N   0  0  0  0  0  0  0  0  0  0  0  0
    4.5857   -4.8267   -6.8199 H   0  0  0  0  0  0  0  0  0  0  0  0
    6.7982   -3.6357   -5.6666 H   0  0  0  0  0  0  0  0  0  0  0  0
    8.6690   -5.1885   -6.0639 H   0  0  0  0  0  0  0  0  0  0  0  0
    8.5478   -7.4986   -5.1894 H   0  0  0  0  0  0  0  0  0  0  0  0
    6.5602   -8.2353   -3.9472 H   0  0  0  0  0  0  0  0  0  0  0  0
    4.5687   -7.7491   -2.8037 H   0  0  0  0  0  0  0  0  0  0  0  0
    3.9183   -6.1115   -2.7157 H   0  0  0  0  0  0  0  0  0  0  0  0
    2.9277   -6.3666   -4.9842 H   0  0  0  0  0  0  0  0  0  0  0  0
    3.6273   -7.9801   -5.1169 H   0  0  0  0  0  0  0  0  0  0  0  0
    2.3705   -7.6581   -3.9173 H   0  0  0  0  0  0  0  0  0  0  0  0
   -0.5757    0.2465    8.2868 H   0  0  0  0  0  0  0  0  0  0  0  0
   -0.4643    0.4706    6.5393 H   0  0  0  0  0  0  0  0  0  0  0  0
   -2.7462    1.4307    6.4869 H   0  0  0  0  0  0  0  0  0  0  0  0
   -2.7861   -0.1378    7.2960 H   0  0  0  0  0  0  0  0  0  0  0  0
   -2.8427    1.3546    8.2441 H   0  0  0  0  0  0  0  0  0  0  0  0
   -0.2087    2.0118    9.7992 H   0  0  0  0  0  0  0  0  0  0  0  0
    0.4810    4.3252   10.2531 H   0  0  0  0  0  0  0  0  0  0  0  0
    0.6882    5.9382    8.3903 H   0  0  0  0  0  0  0  0  0  0  0  0
    0.2049    5.2071    6.0859 H   0  0  0  0  0  0  0  0  0  0  0  0
    1.4512   -0.6177   -3.2915 H   0  0  0  0  0  0  0  0  0  0  0  0
    0.2997   -0.1950   -2.0370 H   0  0  0  0  0  0  0  0  0  0  0  0
    1.9632    1.6174   -1.2608 H   0  0  0  0  0  0  0  0  0  0  0  0
    1.3815    1.8570   -2.9151 H   0  0  0  0  0  0  0  0  0  0  0  0
    2.9825    1.1744   -2.6276 H   0  0  0  0  0  0  0  0  0  0  0  0
   -0.2204    1.0911   -0.7079 H   0  0  0  0  0  0  0  0  0  0  0  0
   -1.1612    1.3863    0.7434 H   0  0  0  0  0  0  0  0  0  0  0  0
   -1.5576   -1.0078    1.0893 H   0  0  0  0  0  0  0  0  0  0  0  0
   -2.0703   -0.5580   -0.5375 H   0  0  0  0  0  0  0  0  0  0  0  0
   -0.5504   -1.4309   -0.2924 H   0  0  0  0  0  0  0  0  0  0  0  0
   -2.4418    4.2270    6.2325 H   0  0  0  0  0  0  0  0  0  0  0  0
   -6.0173    5.2579    1.1770 H   0  0  0  0  0  0  0  0  0  0  0  0
   -8.0401    6.3593    0.2730 H   0  0  0  0  0  0  0  0  0  0  0  0
  -10.0878    7.7165    0.6314 H   0  0  0  0  0  0  0  0  0  0  0  0
   -9.2305    7.9721    4.8037 H   0  0  0  0  0  0  0  0  0  0  0  0
   -7.2439    6.8948    5.7246 H   0  0  0  0  0  0  0  0  0  0  0  0
  1  2  2  0  0  0  0
  2  3  1  0  0  0  0
  3  4  2  0  0  0  0
  3  5  1  0  0  0  0
  5  6  2  0  0  0  0
  6  7  1  0  0  0  0
  6  8  1  0  0  0  0
  8  9  1  0  0  0  0
  8 10  2  0  0  0  0
 10 11  1  0  0  0  0
 10 12  1  0  0  0  0
 12 13  1  0  0  0  0
 12 14  2  0  0  0  0
 14 15  1  0  0  0  0
 15 16  2  0  0  0  0
 16 17  1  0  0  0  0
 17 18  3  0  0  0  0
 16 19  1  0  0  0  0
 19 20  3  0  0  0  0
  1 21  1  0  0  0  0
 21 22  2  0  0  0  0
 22 23  1  0  0  0  0
 23 24  2  0  0  0  0
 24 25  1  0  0  0  0
 25 26  2  0  0  0  0
 26 27  1  0  0  0  0
 27 28  2  0  0  0  0
 28 29  1  0  0  0  0
 29 30  1  0  0  0  0
 22 31  1  0  0  0  0
 31 32  1  0  0  0  0
 32 33  1  0  0  0  0
 33 34  1  0  0  0  0
 34 35  1  0  0  0  0
 35 36  1  0  0  0  0
 36 37  2  0  0  0  0
 37 38  1  0  0  0  0
 38 39  1  0  0  0  0
 36 40  1  0  0  0  0
 40 41  1  0  0  0  0
 41 42  1  0  0  0  0
 42 43  1  0  0  0  0
 43 44  1  0  0  0  0
 44 45  1  0  0  0  0
 45 46  2  0  0  0  0
 46 47  1  0  0  0  0
 47 48  1  0  0  0  0
 46 49  1  0  0  0  0
 49 50  2  0  0  0  0
 50 51  1  0  0  0  0
 51 52  2  0  0  0  0
 44 53  2  0  0  0  0
 53 54  1  0  0  0  0
 54 55  1  0  0  0  0
 55 56  1  0  0  0  0
 56 57  1  0  0  0  0
 57 58  1  0  0  0  0
 58 59  1  0  0  0  0
 59 60  1  0  0  0  0
 60 61  1  0  0  0  0
 61 62  1  0  0  0  0
 62 63  1  0  0  0  0
 60 64  1  0  0  0  0
 64 65  1  0  0  0  0
 57 66  1  0  0  0  0
 66 67  1  0  0  0  0
 53 68  1  0  0  0  0
 68 69  2  0  0  0  0
 69 70  1  0  0  0  0
 70 71  2  0  0  0  0
 70 72  1  0  0  0  0
 72 73  2  0  0  0  0
 73 74  1  0  0  0  0
 74 75  2  0  0  0  0
 75 76  1  0  0  0  0
 76 77  2  0  0  0  0
 77 78  1  0  0  0  0
 77 79  1  0  0  0  0
 79 80  2  0  0  0  0
 80 81  1  0  0  0  0
 81 82  2  0  0  0  0
 82 83  1  0  0  0  0
 83 84  2  0  0  0  0
 84 85  1  0  0  0  0
 85 86  3  0  0  0  0
 84 87  1  0  0  0  0
 87 88  3  0  0  0  0
 15  2  1  0  0  0  0
 63 21  1  0  0  0  0
 83 69  1  0  0  0  0
 14  5  1  0  0  0  0
 28 23  1  0  0  0  0
 62 31  2  0  0  0  0
 82 72  1  0  0  0  0
 61 33  2  0  0  0  0
 80 74  1  0  0  0  0
 59 34  2  0  0  0  0
 39 35  2  0  0  0  0
 58 40  2  0  0  0  0
 56 41  2  0  0  0  0
 55 43  2  0  0  0  0
 52 45  1  0  0  0  0
  1 89  1  0  0  0  0
 24 90  1  0  0  0  0
 25 91  1  0  0  0  0
 26 92  1  0  0  0  0
 27 93  1  0  0  0  0
 29 94  1  0  0  0  0
 29 95  1  0  0  0  0
 30 96  1  0  0  0  0
 30 97  1  0  0  0  0
 30 98  1  0  0  0  0
 47 99  1  0  0  0  0
 47100  1  0  0  0  0
 48101  1  0  0  0  0
 48102  1  0  0  0  0
 48103  1  0  0  0  0
 49104  1  0  0  0  0
 50105  1  0  0  0  0
 51106  1  0  0  0  0
 52107  1  0  0  0  0
 64108  1  0  0  0  0
 64109  1  0  0  0  0
 65110  1  0  0  0  0
 65111  1  0  0  0  0
 65112  1  0  0  0  0
 66113  1  0  0  0  0
 66114  1  0  0  0  0
 67115  1  0  0  0  0
 67116  1  0  0  0  0
 67117  1  0  0  0  0
 68118  1  0  0  0  0
 73119  1  0  0  0  0
 75120  1  0  0  0  0
 76121  1  0  0  0  0
 79122  1  0  0  0  0
 81123  1  0  0  0  0
M  END
