
  xtb     02022207543D
 energy: -193.879826961324 gnorm: 0.000927783752 xtb: 6.4.1 (unknown)
 85 96  0     0  0            999 V2000
    3.2872    5.6513    6.1701 C   0  0  0  0  0  0  0  0  0  0  0  0
    3.4869    4.9558    7.3423 C   0  0  0  0  0  0  0  0  0  0  0  0
    3.2199    3.5427    7.5349 C   0  0  0  0  0  0  0  0  0  0  0  0
    2.6948    2.7730    6.7404 O   0  0  0  0  0  0  0  0  0  0  0  0
    3.7366    3.1969    8.8721 C   0  0  0  0  0  0  0  0  0  0  0  0
    3.8064    1.9567    9.4814 C   0  0  0  0  0  0  0  0  0  0  0  0
    3.1015    0.5755    8.7711 Cl  0  0  0  0  0  0  0  0  0  0  0  0
    4.4861    1.8578   10.7038 C   0  0  0  0  0  0  0  0  0  0  0  0
    4.5700    0.3544   11.5133 Cl  0  0  0  0  0  0  0  0  0  0  0  0
    5.1326    2.9723   11.2351 C   0  0  0  0  0  0  0  0  0  0  0  0
    6.0441    2.8035   12.6718 Cl  0  0  0  0  0  0  0  0  0  0  0  0
    5.0639    4.2279   10.6062 C   0  0  0  0  0  0  0  0  0  0  0  0
    6.0372    5.4969   11.2244 Cl  0  0  0  0  0  0  0  0  0  0  0  0
    4.2944    4.3542    9.4572 C   0  0  0  0  0  0  0  0  0  0  0  0
    3.9859    5.4955    8.5950 C   0  0  0  0  0  0  0  0  0  0  0  0
    3.9605    6.8138    8.9678 C   0  0  0  0  0  0  0  0  0  0  0  0
    3.6627    7.8879    8.0997 C   0  0  0  0  0  0  0  0  0  0  0  0
    3.4502    8.8191    7.4625 N   0  0  0  0  0  0  0  0  0  0  0  0
    4.0547    7.3022   10.2898 C   0  0  0  0  0  0  0  0  0  0  0  0
    4.0044    7.7890   11.3275 N   0  0  0  0  0  0  0  0  0  0  0  0
    2.7917    5.2275    4.9342 C   0  0  0  0  0  0  0  0  0  0  0  0
    2.7122    6.1103    3.8497 C   0  0  0  0  0  0  0  0  0  0  0  0
    2.2196    5.5644    2.6826 C   0  0  0  0  0  0  0  0  0  0  0  0
    1.9639    6.2821    1.1007 S   0  0  0  0  0  0  0  0  0  0  0  0
    1.3963    4.7514    0.5316 C   0  0  0  0  0  0  0  0  0  0  0  0
    0.9487    4.1530   -0.6502 C   0  0  0  0  0  0  0  0  0  0  0  0
    0.8299    4.6877   -1.9523 C   0  0  0  0  0  0  0  0  0  0  0  0
    0.4216    3.8249   -3.0174 C   0  0  0  0  0  0  0  0  0  0  0  0
    0.3843    4.4447   -4.1864 N   0  0  0  0  0  0  0  0  0  0  0  0
    0.8247    5.9861   -3.9625 S   0  0  0  0  0  0  0  0  0  0  0  0
    1.0804    5.9200   -2.3657 N   0  0  0  0  0  0  0  0  0  0  0  0
    0.0905    2.4845   -2.7189 C   0  0  0  0  0  0  0  0  0  0  0  0
   -0.3925    1.4694   -3.5502 C   0  0  0  0  0  0  0  0  0  0  0  0
   -0.6298    0.3566   -2.7345 C   0  0  0  0  0  0  0  0  0  0  0  0
   -0.3093    0.6524   -1.4381 N   0  0  0  0  0  0  0  0  0  0  0  0
   -0.5936   -0.3383   -0.4278 C   0  0  0  0  0  0  0  0  0  0  0  0
    0.5001   -1.4036   -0.3556 C   0  0  0  0  0  0  0  0  0  0  0  0
    0.1604    1.9512   -1.3919 C   0  0  0  0  0  0  0  0  0  0  0  0
    0.6584    2.7832   -0.3508 C   0  0  0  0  0  0  0  0  0  0  0  0
    0.9624    2.5730    0.9807 N   0  0  0  0  0  0  0  0  0  0  0  0
    1.3951    3.7552    1.5153 C   0  0  0  0  0  0  0  0  0  0  0  0
    1.8637    4.1979    2.7532 C   0  0  0  0  0  0  0  0  0  0  0  0
    2.1668    3.4977    4.4547 Se  0  0  0  0  0  2  0  0  0  0  0  0
    0.9982    1.3986    1.8189 C   0  0  0  0  0  0  0  0  0  0  0  0
   -0.2236    1.3181    2.7336 C   0  0  0  0  0  0  0  0  0  0  0  0
   -1.1510   -0.7373   -3.4270 C   0  0  0  0  0  0  0  0  0  0  0  0
   -1.2993   -0.4245   -4.7979 C   0  0  0  0  0  0  0  0  0  0  0  0
   -0.7934    1.2051   -5.2112 S   0  0  0  0  0  0  0  0  0  0  0  0
   -1.8098   -1.4356   -5.5853 C   0  0  0  0  0  0  0  0  0  0  0  0
   -2.1119   -2.6240   -4.9087 C   0  0  0  0  0  0  0  0  0  0  0  0
   -1.7091   -2.4773   -3.0569 Se  0  0  0  0  0  2  0  0  0  0  0  0
   -2.6291   -3.7284   -5.5910 C   0  0  0  0  0  0  0  0  0  0  0  0
   -3.0185   -4.9660   -5.1280 C   0  0  0  0  0  0  0  0  0  0  0  0
   -3.0047   -5.3845   -3.7387 C   0  0  0  0  0  0  0  0  0  0  0  0
   -2.5567   -4.7647   -2.7825 O   0  0  0  0  0  0  0  0  0  0  0  0
   -3.6702   -6.6995   -3.6907 C   0  0  0  0  0  0  0  0  0  0  0  0
   -3.9949   -7.4673   -2.5865 C   0  0  0  0  0  0  0  0  0  0  0  0
   -3.4866   -7.0304   -1.0184 Cl  0  0  0  0  0  0  0  0  0  0  0  0
   -4.7699   -8.6187   -2.7868 C   0  0  0  0  0  0  0  0  0  0  0  0
   -5.1698   -9.6183   -1.4588 Cl  0  0  0  0  0  0  0  0  0  0  0  0
   -5.2527   -8.9229   -4.0584 C   0  0  0  0  0  0  0  0  0  0  0  0
   -6.2809  -10.2738   -4.2601 Cl  0  0  0  0  0  0  0  0  0  0  0  0
   -4.9241   -8.1338   -5.1748 C   0  0  0  0  0  0  0  0  0  0  0  0
   -5.7039   -8.4720   -6.6638 Cl  0  0  0  0  0  0  0  0  0  0  0  0
   -4.0644   -7.0579   -4.9978 C   0  0  0  0  0  0  0  0  0  0  0  0
   -3.5054   -6.0762   -5.9277 C   0  0  0  0  0  0  0  0  0  0  0  0
   -3.2762   -6.2604   -7.2660 C   0  0  0  0  0  0  0  0  0  0  0  0
   -3.3792   -7.4851   -7.9620 C   0  0  0  0  0  0  0  0  0  0  0  0
   -3.3223   -8.4437   -8.5902 N   0  0  0  0  0  0  0  0  0  0  0  0
   -2.7295   -5.2826   -8.1270 C   0  0  0  0  0  0  0  0  0  0  0  0
   -2.3081   -4.5429   -8.8975 N   0  0  0  0  0  0  0  0  0  0  0  0
    3.5832    6.6942    6.1740 H   0  0  0  0  0  0  0  0  0  0  0  0
    3.0173    7.1393    3.9373 H   0  0  0  0  0  0  0  0  0  0  0  0
   -1.5331   -0.8301   -0.7158 H   0  0  0  0  0  0  0  0  0  0  0  0
   -0.7592    0.1454    0.5304 H   0  0  0  0  0  0  0  0  0  0  0  0
    0.3175   -2.0648    0.4866 H   0  0  0  0  0  0  0  0  0  0  0  0
    1.4878   -0.9582   -0.2525 H   0  0  0  0  0  0  0  0  0  0  0  0
    0.4961   -2.0025   -1.2658 H   0  0  0  0  0  0  0  0  0  0  0  0
    1.1121    0.5087    1.2071 H   0  0  0  0  0  0  0  0  0  0  0  0
    1.8941    1.4819    2.4499 H   0  0  0  0  0  0  0  0  0  0  0  0
   -0.2231    0.3729    3.2686 H   0  0  0  0  0  0  0  0  0  0  0  0
   -1.1516    1.4103    2.1725 H   0  0  0  0  0  0  0  0  0  0  0  0
   -0.1927    2.1242    3.4659 H   0  0  0  0  0  0  0  0  0  0  0  0
   -1.9659   -1.3356   -6.6461 H   0  0  0  0  0  0  0  0  0  0  0  0
   -2.7593   -3.5498   -6.6525 H   0  0  0  0  0  0  0  0  0  0  0  0
  1  2  2  0  0  0  0
  2  3  1  0  0  0  0
  3  4  2  0  0  0  0
  3  5  1  0  0  0  0
  5  6  2  0  0  0  0
  6  7  1  0  0  0  0
  6  8  1  0  0  0  0
  8  9  1  0  0  0  0
  8 10  2  0  0  0  0
 10 11  1  0  0  0  0
 10 12  1  0  0  0  0
 12 13  1  0  0  0  0
 12 14  2  0  0  0  0
 14 15  1  0  0  0  0
 15 16  2  0  0  0  0
 16 17  1  0  0  0  0
 17 18  3  0  0  0  0
 16 19  1  0  0  0  0
 19 20  3  0  0  0  0
  1 21  1  0  0  0  0
 21 22  2  0  0  0  0
 22 23  1  0  0  0  0
 23 24  1  0  0  0  0
 24 25  1  0  0  0  0
 25 26  1  0  0  0  0
 26 27  1  0  0  0  0
 27 28  1  0  0  0  0
 28 29  2  0  0  0  0
 29 30  1  0  0  0  0
 30 31  1  0  0  0  0
 28 32  1  0  0  0  0
 32 33  1  0  0  0  0
 33 34  2  0  0  0  0
 34 35  1  0  0  0  0
 35 36  1  0  0  0  0
 36 37  1  0  0  0  0
 35 38  1  0  0  0  0
 38 39  1  0  0  0  0
 39 40  1  0  0  0  0
 40 41  1  0  0  0  0
 41 42  1  0  0  0  0
 42 43  1  0  0  0  0
 40 44  1  0  0  0  0
 44 45  1  0  0  0  0
 34 46  1  0  0  0  0
 46 47  2  0  0  0  0
 47 48  1  0  0  0  0
 47 49  1  0  0  0  0
 49 50  2  0  0  0  0
 50 51  1  0  0  0  0
 50 52  1  0  0  0  0
 52 53  2  0  0  0  0
 53 54  1  0  0  0  0
 54 55  2  0  0  0  0
 54 56  1  0  0  0  0
 56 57  2  0  0  0  0
 57 58  1  0  0  0  0
 57 59  1  0  0  0  0
 59 60  1  0  0  0  0
 59 61  2  0  0  0  0
 61 62  1  0  0  0  0
 61 63  1  0  0  0  0
 63 64  1  0  0  0  0
 63 65  2  0  0  0  0
 65 66  1  0  0  0  0
 66 67  2  0  0  0  0
 67 68  1  0  0  0  0
 68 69  3  0  0  0  0
 67 70  1  0  0  0  0
 70 71  3  0  0  0  0
 15  2  1  0  0  0  0
 43 21  1  0  0  0  0
 51 46  1  0  0  0  0
 66 53  1  0  0  0  0
 14  5  1  0  0  0  0
 42 23  2  0  0  0  0
 65 56  1  0  0  0  0
 41 25  2  0  0  0  0
 39 26  2  0  0  0  0
 31 27  2  0  0  0  0
 38 32  2  0  0  0  0
 48 33  1  0  0  0  0
  1 72  1  0  0  0  0
 22 73  1  0  0  0  0
 36 74  1  0  0  0  0
 36 75  1  0  0  0  0
 37 76  1  0  0  0  0
 37 77  1  0  0  0  0
 37 78  1  0  0  0  0
 44 79  1  0  0  0  0
 44 80  1  0  0  0  0
 45 81  1  0  0  0  0
 45 82  1  0  0  0  0
 45 83  1  0  0  0  0
 49 84  1  0  0  0  0
 52 85  1  0  0  0  0
M  END
