111

C         -7.50550       -6.55820        0.59060
C         -7.42920       -7.86230        0.97860
C         -8.59970       -8.52870        1.59580
O         -9.74710       -8.15500        1.57160
C         -8.03160       -9.69990        2.31240
C         -8.65170      -10.56230        3.20010
Cl       -10.32840      -10.47220        3.50150
C         -7.86220      -11.51550        3.86080
Cl        -8.59020      -12.61500        4.94910
C         -6.48220      -11.54660        3.66250
Cl        -5.53110      -12.65910        4.54660
C         -5.85870      -10.67190        2.75880
Cl        -4.14670      -10.65290        2.66430
C         -6.64950       -9.78560        2.04380
C         -6.32630       -8.80120        1.01280
C         -5.39830       -8.93500        0.01590
C         -4.51700      -10.02160       -0.16200
N         -3.80770      -10.88470       -0.42320
C         -5.35800       -8.05650       -1.09140
N         -5.31870       -7.38940       -2.02400
C         -6.46220       -5.63350        0.39370
C         -6.61090       -4.34460       -0.09620
C         -5.41860       -3.63700       -0.08840
S         -4.97780       -2.03120       -0.58620
C         -3.35320       -2.35010       -0.09260
C         -2.13740       -1.60410       -0.11550
C         -1.12570       -2.44790        0.40030
C         -1.68680       -3.81210        0.77030
C         -1.16380       -4.93720       -0.14970
C          0.32330       -5.24150       -0.03510
C         -1.42650       -4.05900        2.26900
C         -1.92290       -5.39300        2.80890
C         -3.14580       -3.61280        0.44330
C         -4.32420       -4.35480        0.43790
S         -4.80580       -5.94080        0.90780
C          0.14720       -1.95610        0.57720
C          0.38510       -0.63490        0.20560
C          1.56150        0.16330        0.33240
C          1.32420        1.46190       -0.08790
C         -0.08630        1.59670       -0.60620
C         -0.61890        0.19750       -0.34360
C         -1.89810       -0.28510       -0.49370
C         -0.93310        2.60530        0.19560
C         -0.59570        4.07300       -0.02750
C          0.00750        1.91960       -2.11300
C         -1.32140        1.97530       -2.85390
C          2.47100        2.25060        0.02290
C          3.56400        1.52650        0.54520
S          3.17240       -0.13480        0.88940
C          4.71390        2.27980        0.68310
C          4.53210        3.60440        0.28520
S          2.89670        3.89330       -0.28950
C          5.56310        4.55410        0.38300
C          5.55210        5.90230        0.14790
C          4.38560        6.69770       -0.25920
O          3.28160        6.28670       -0.57210
C          4.80750        8.10610       -0.20970
C          4.01710        9.22630       -0.45560
C          4.68010       10.42080       -0.30900
C          6.03070       10.49570        0.05760
C          6.82160        9.39800        0.30190
C          6.16790        8.17130        0.15500
C          6.66840        6.81050        0.34020
C          7.96780        6.47460        0.61830
C          8.46630        5.16360        0.77080
N          8.95840        4.13430        0.90690
C          9.01810        7.40400        0.77390
N          9.92320        8.09680        0.91290
C          6.04020       12.00290        0.01820
C          6.69220       12.68800       -1.20820
C          6.57960       11.71340       -2.35420
C          5.30170       11.64320       -2.70210
C          4.52670       12.56890       -1.79720
C          5.57290       13.67380       -1.57980
C          4.53580       11.91970       -0.39100
H         -8.50900       -6.14950        0.52830
H         -7.54830       -3.96170       -0.45600
H         -1.73870       -5.83960        0.06790
H         -1.38650       -4.65120       -1.18110
H          0.59850       -5.51040        0.98090
H          0.56580       -6.08060       -0.68320
H          0.92020       -4.39020       -0.35000
H         -1.90490       -3.24740        2.82400
H         -0.35260       -3.98080        2.44310
H         -1.69550       -5.45770        3.87070
H         -2.99770       -5.49060        2.68860
H         -1.44170       -6.22870        2.30930
H          0.94240       -2.54100        1.01210
H         -2.71080        0.32170       -0.86090
H         -1.98270        2.44070       -0.05310
H         -0.81040        2.36480        1.25520
H          0.44510        4.28100        0.19950
H         -0.79020        4.37410       -1.05250
H         -1.21350        4.68470        0.62640
H          0.52510        2.87500       -2.21330
H          0.63660        1.15520       -2.57720
H         -1.79670        0.99840       -2.87390
H         -1.14560        2.28430       -3.88200
H         -2.00160        2.68950       -2.39870
H          5.65020        1.91010        1.06080
H          6.49330        4.12630        0.73700
H          2.97890        9.12240       -0.72990
H          7.85660        9.47510        0.58950
H          6.28810       12.50220        0.95280
H          7.68100       13.09840       -1.02260
H          7.40700       11.14980       -2.74380
H          4.84740       11.00890       -3.44060
H          3.54370       12.87210       -2.14800
H          5.31650       14.36240       -0.77590
H          5.78920       14.23330       -2.48850
H          3.80060       12.36490        0.27660
