103

C          2.26540        8.06590       -0.24030
C          2.78070        8.12150       -1.51570
C          2.71170        7.06910       -2.52340
O          2.28840        5.93520       -2.39170
C          3.23970        7.66620       -3.77120
C          3.29270        7.11400       -5.03790
Cl         2.86370        5.48710       -5.31990
C          3.70200        7.93210       -6.10060
Cl         3.81890        7.28520       -7.67920
C          3.96830        9.28170       -5.87950
Cl         4.36410       10.28440       -7.20800
C          3.90310        9.83850       -4.59080
Cl         4.06360       11.53870       -4.43320
C          3.61100        9.00320       -3.52030
C          3.50050        9.24540       -2.08230
C          4.14190       10.22870       -1.37170
C          5.16600       11.06660       -1.86350
N          6.07790       11.71120       -2.12840
C          3.99830       10.43770        0.01690
N          3.91830       10.68720        1.13570
C          1.61320        7.03830        0.44000
C          1.11920        7.17620        1.75110
C          1.17740        8.41880        2.57780
C          0.02120        9.35980        2.23070
C          0.51310        6.01210        2.19670
Se        -0.35190        5.56290        3.82680
C         -0.59560        3.90150        3.02940
C         -1.18910        2.67340        3.32890
C         -1.94660        2.29330        4.45710
C         -2.54530        0.99700        4.47370
N         -3.26650        0.78150        5.56220
S         -3.19310        2.10880        6.49090
N         -2.23770        3.00500        5.53420
C         -2.27260        0.11340        3.40780
C         -2.63380       -1.22690        3.25040
Se        -3.63530       -2.51530        4.14170
C         -3.05160       -3.66620        2.74830
C         -3.27140       -5.01320        2.49600
C         -4.16670       -5.84910        3.35080
C         -5.58080       -5.90220        2.76790
C         -2.60030       -5.44240        1.33790
S         -1.69620       -4.13150        0.58130
C         -2.22360       -3.03510        1.80280
C         -2.00320       -1.68050        2.08410
N         -1.29900       -0.65580        1.50960
C         -1.44840        0.46970        2.30020
C         -0.97750        1.81010        2.21340
N         -0.29530        2.52940        1.24900
C         -0.06880        3.79090        1.73480
C          0.54010        4.95850        1.26190
S          1.31840        5.42290       -0.20370
C         -0.12140        2.26410       -0.16180
C         -1.46660        2.15560       -0.87680
C         -0.34220       -0.94270        0.46430
C          1.09070       -0.87620        0.98700
C         -2.65340       -6.75720        0.86750
C         -2.04050       -7.35560       -0.20780
C         -1.11420       -6.71420       -1.14150
O         -0.77160       -5.54410       -1.17150
C         -0.65550       -7.77780       -2.05590
C          0.24470       -7.68910       -3.09340
C          0.52780       -8.84890       -3.81560
O          1.47950       -8.71650       -4.80580
C          1.47900       -9.45850       -5.93600
O          0.64620      -10.27120       -6.21900
C          2.65940       -9.07810       -6.78530
C         -0.08310      -10.05510       -3.48780
C         -0.99340      -10.13080       -2.44230
C         -1.28550       -8.98800       -1.71530
C         -2.16900       -8.75280       -0.57420
C         -2.96740       -9.70080        0.01320
C         -3.84060       -9.48770        1.09970
N         -4.57670       -9.39520        1.97750
C         -3.03090      -11.04850       -0.40010
N         -3.13070      -12.15810       -0.67680
H          2.35190        8.97450        0.33950
H          1.09220        8.12630        3.62920
H          2.12830        8.93700        2.44380
H          0.06710        9.66080        1.18650
H         -0.93140        8.86450        2.40700
H          0.07100       10.25050        2.85060
H         -4.20780       -5.38930        4.34360
H         -3.77950       -6.86310        3.45950
H         -5.57410       -6.35920        1.78130
H         -6.22360       -6.49260        3.41440
H         -5.99160       -4.89800        2.68560
H          0.43610        3.10740       -0.57510
H          0.48910        1.37410       -0.31140
H         -2.00220        3.09860       -0.80270
H         -2.08830        1.37790       -0.43850
H         -1.30870        1.93150       -1.92800
H         -0.49470       -0.27840       -0.38550
H         -0.54840       -1.95760        0.11810
H          1.78780       -1.08000        0.17880
H          1.31530        0.10060        1.41030
H          1.23590       -1.62370        1.76360
H         -3.27740       -7.40050        1.47260
H          0.72330       -6.75530       -3.34200
H          2.48390       -8.09370       -7.21460
H          3.55650       -9.02730       -6.17420
H          2.78100       -9.80260       -7.58440
H          0.14600      -10.94420       -4.05200
H         -1.44910      -11.07960       -2.21240
