
  xtb     02022203393D
 energy: -208.379206971062 gnorm: 0.000158062766 xtb: 6.4.1 (unknown)
110124  0     0  0            999 V2000
   -2.9872    3.6764   -6.7011 C   0  0  0  0  0  0  0  0  0  0  0  0
   -2.7641    4.2246   -7.9359 C   0  0  0  0  0  0  0  0  0  0  0  0
   -1.6852    3.7863   -8.8403 C   0  0  0  0  0  0  0  0  0  0  0  0
   -0.9562    2.8286   -8.7166 O   0  0  0  0  0  0  0  0  0  0  0  0
   -1.5604    4.8711   -9.8447 C   0  0  0  0  0  0  0  0  0  0  0  0
   -0.6351    4.9888  -10.8664 C   0  0  0  0  0  0  0  0  0  0  0  0
    0.4581    3.7294  -11.2275 Cl  0  0  0  0  0  0  0  0  0  0  0  0
   -0.6119    6.1789  -11.6077 C   0  0  0  0  0  0  0  0  0  0  0  0
    0.4898    6.3556  -12.9034 Cl  0  0  0  0  0  0  0  0  0  0  0  0
   -1.4558    7.2327  -11.2628 C   0  0  0  0  0  0  0  0  0  0  0  0
   -1.3410    8.7104  -12.1165 Cl  0  0  0  0  0  0  0  0  0  0  0  0
   -2.3874    7.1106  -10.2184 C   0  0  0  0  0  0  0  0  0  0  0  0
   -3.2703    8.5035   -9.7471 Cl  0  0  0  0  0  0  0  0  0  0  0  0
   -2.4839    5.8964   -9.5512 C   0  0  0  0  0  0  0  0  0  0  0  0
   -3.3476    5.4367   -8.4671 C   0  0  0  0  0  0  0  0  0  0  0  0
   -4.6033    5.8758   -8.1349 C   0  0  0  0  0  0  0  0  0  0  0  0
   -5.3654    5.2733   -7.1079 C   0  0  0  0  0  0  0  0  0  0  0  0
   -6.0368    4.8227   -6.2931 N   0  0  0  0  0  0  0  0  0  0  0  0
   -5.3909    6.8182   -8.8281 C   0  0  0  0  0  0  0  0  0  0  0  0
   -6.1510    7.4944   -9.3594 N   0  0  0  0  0  0  0  0  0  0  0  0
   -2.6122    2.3837   -6.2786 C   0  0  0  0  0  0  0  0  0  0  0  0
   -2.6832    1.1547   -6.9287 C   0  0  0  0  0  0  0  0  0  0  0  0
   -3.2714    0.9206   -8.2834 C   0  0  0  0  0  0  0  0  0  0  0  0
   -2.2999    0.2170   -9.2298 C   0  0  0  0  0  0  0  0  0  0  0  0
   -2.3054    0.1073   -6.0792 C   0  0  0  0  0  0  0  0  0  0  0  0
   -2.2096   -1.7734   -6.2970 Se  0  0  0  0  0  2  0  0  0  0  0  0
   -1.6339   -1.7987   -4.5298 C   0  0  0  0  0  0  0  0  0  0  0  0
   -1.2019   -2.7207   -3.5638 C   0  0  0  0  0  0  0  0  0  0  0  0
   -0.9358   -4.1075   -3.6216 C   0  0  0  0  0  0  0  0  0  0  0  0
   -0.3246   -4.7511   -2.4908 C   0  0  0  0  0  0  0  0  0  0  0  0
   -0.0618   -6.0276   -2.7187 N   0  0  0  0  0  0  0  0  0  0  0  0
   -0.5473   -6.3937   -4.2203 S   0  0  0  0  0  0  0  0  0  0  0  0
   -1.1091   -4.9330   -4.6409 N   0  0  0  0  0  0  0  0  0  0  0  0
   -0.1345   -4.0156   -1.2989 C   0  0  0  0  0  0  0  0  0  0  0  0
    0.3310   -4.3729   -0.0237 C   0  0  0  0  0  0  0  0  0  0  0  0
    1.0720   -5.8420    0.8514 Se  0  0  0  0  0  2  0  0  0  0  0  0
    1.1227   -4.6984    2.3684 C   0  0  0  0  0  0  0  0  0  0  0  0
    1.5917   -4.8639    3.6659 C   0  0  0  0  0  0  0  0  0  0  0  0
    2.2186   -6.1369    4.1334 C   0  0  0  0  0  0  0  0  0  0  0  0
    3.7394   -6.0862    3.9692 C   0  0  0  0  0  0  0  0  0  0  0  0
    1.4629   -3.6844    4.4185 C   0  0  0  0  0  0  0  0  0  0  0  0
    0.7190   -2.3849    3.4885 S   0  0  0  0  0  0  0  0  0  0  0  0
    0.6054   -3.4177    2.1153 C   0  0  0  0  0  0  0  0  0  0  0  0
    0.1665   -3.2483    0.7990 C   0  0  0  0  0  0  0  0  0  0  0  0
   -0.3780   -2.2125    0.0806 N   0  0  0  0  0  0  0  0  0  0  0  0
   -0.5280   -2.6537   -1.2177 C   0  0  0  0  0  0  0  0  0  0  0  0
   -0.9111   -1.9741   -2.3934 C   0  0  0  0  0  0  0  0  0  0  0  0
   -1.1013   -0.6306   -2.6496 N   0  0  0  0  0  0  0  0  0  0  0  0
   -1.5523   -0.5268   -3.9436 C   0  0  0  0  0  0  0  0  0  0  0  0
   -1.9350    0.5172   -4.7888 C   0  0  0  0  0  0  0  0  0  0  0  0
   -2.1170    2.2178   -4.5942 S   0  0  0  0  0  0  0  0  0  0  0  0
   -0.3846    0.4719   -2.0388 C   0  0  0  0  0  0  0  0  0  0  0  0
    0.8445    0.8559   -2.8621 C   0  0  0  0  0  0  0  0  0  0  0  0
   -1.1811   -1.2057    0.7476 C   0  0  0  0  0  0  0  0  0  0  0  0
   -2.3354   -1.8456    1.5183 C   0  0  0  0  0  0  0  0  0  0  0  0
    1.9078   -3.5696    5.7410 C   0  0  0  0  0  0  0  0  0  0  0  0
    1.9444   -2.4872    6.5841 C   0  0  0  0  0  0  0  0  0  0  0  0
    1.5040   -1.1260    6.2688 C   0  0  0  0  0  0  0  0  0  0  0  0
    0.9529   -0.7377    5.2512 O   0  0  0  0  0  0  0  0  0  0  0  0
    1.8533   -0.2953    7.4317 C   0  0  0  0  0  0  0  0  0  0  0  0
    1.6682    1.0791    7.5643 C   0  0  0  0  0  0  0  0  0  0  0  0
    2.1108    1.5886    8.7610 C   0  0  0  0  0  0  0  0  0  0  0  0
    2.6941    0.7894    9.7531 C   0  0  0  0  0  0  0  0  0  0  0  0
    2.8826   -0.5675    9.6339 C   0  0  0  0  0  0  0  0  0  0  0  0
    2.4386   -1.1081    8.4231 C   0  0  0  0  0  0  0  0  0  0  0  0
    2.4812   -2.4851    7.9311 C   0  0  0  0  0  0  0  0  0  0  0  0
    2.9381   -3.5653    8.6433 C   0  0  0  0  0  0  0  0  0  0  0  0
    2.9757   -4.8985    8.1857 C   0  0  0  0  0  0  0  0  0  0  0  0
    3.0412   -6.0078    7.8914 N   0  0  0  0  0  0  0  0  0  0  0  0
    3.4326   -3.5012    9.9629 C   0  0  0  0  0  0  0  0  0  0  0  0
    3.8458   -3.5306   11.0339 N   0  0  0  0  0  0  0  0  0  0  0  0
    2.9029    1.9581   10.6839 C   0  0  0  0  0  0  0  0  0  0  0  0
    1.9096    2.0932   11.8573 C   0  0  0  0  0  0  0  0  0  0  0  0
    2.0522    3.5357   12.2866 C   0  0  0  0  0  0  0  0  0  0  0  0
    1.5010    4.2930   11.3468 C   0  0  0  0  0  0  0  0  0  0  0  0
    0.9765    3.3750   10.2662 C   0  0  0  0  0  0  0  0  0  0  0  0
    0.5659    2.1689   11.1207 C   0  0  0  0  0  0  0  0  0  0  0  0
    2.2533    2.8492    9.5768 C   0  0  0  0  0  0  0  0  0  0  0  0
   -3.4324    4.3039   -5.9370 H   0  0  0  0  0  0  0  0  0  0  0  0
   -4.1557    0.2875   -8.1505 H   0  0  0  0  0  0  0  0  0  0  0  0
   -3.5935    1.8678   -8.7168 H   0  0  0  0  0  0  0  0  0  0  0  0
   -2.7612    0.0951  -10.2063 H   0  0  0  0  0  0  0  0  0  0  0  0
   -1.3924    0.8033   -9.3380 H   0  0  0  0  0  0  0  0  0  0  0  0
   -2.0363   -0.7687   -8.8456 H   0  0  0  0  0  0  0  0  0  0  0  0
    1.8224   -6.9514    3.5188 H   0  0  0  0  0  0  0  0  0  0  0  0
    1.9699   -6.3426    5.1755 H   0  0  0  0  0  0  0  0  0  0  0  0
    4.1649   -5.2834    4.5669 H   0  0  0  0  0  0  0  0  0  0  0  0
    3.9991   -5.9184    2.9258 H   0  0  0  0  0  0  0  0  0  0  0  0
    4.1776   -7.0262    4.2923 H   0  0  0  0  0  0  0  0  0  0  0  0
   -0.0504    0.1776   -1.0464 H   0  0  0  0  0  0  0  0  0  0  0  0
   -1.0637    1.3267   -1.9595 H   0  0  0  0  0  0  0  0  0  0  0  0
    1.5076   -0.0003   -2.9675 H   0  0  0  0  0  0  0  0  0  0  0  0
    1.3822    1.6537   -2.3578 H   0  0  0  0  0  0  0  0  0  0  0  0
    0.5633    1.2025   -3.8524 H   0  0  0  0  0  0  0  0  0  0  0  0
   -0.5417   -0.6462    1.4373 H   0  0  0  0  0  0  0  0  0  0  0  0
   -1.6013   -0.5324    0.0025 H   0  0  0  0  0  0  0  0  0  0  0  0
   -2.9524   -2.4405    0.8478 H   0  0  0  0  0  0  0  0  0  0  0  0
   -2.9497   -1.0664    1.9603 H   0  0  0  0  0  0  0  0  0  0  0  0
   -1.9660   -2.4847    2.3149 H   0  0  0  0  0  0  0  0  0  0  0  0
    2.3122   -4.4915    6.1355 H   0  0  0  0  0  0  0  0  0  0  0  0
    1.2194    1.6567    6.7714 H   0  0  0  0  0  0  0  0  0  0  0  0
    3.3413   -1.1639   10.4043 H   0  0  0  0  0  0  0  0  0  0  0  0
    3.9332    2.1551   10.9737 H   0  0  0  0  0  0  0  0  0  0  0  0
    2.0152    1.3388   12.6320 H   0  0  0  0  0  0  0  0  0  0  0  0
    2.5714    3.8492   13.1732 H   0  0  0  0  0  0  0  0  0  0  0  0
    1.4679    5.3653   11.2911 H   0  0  0  0  0  0  0  0  0  0  0  0
    0.2317    3.7888    9.5916 H   0  0  0  0  0  0  0  0  0  0  0  0
    0.3250    1.2777   10.5440 H   0  0  0  0  0  0  0  0  0  0  0  0
   -0.2587    2.4020   11.7921 H   0  0  0  0  0  0  0  0  0  0  0  0
    2.8513    3.6400    9.1275 H   0  0  0  0  0  0  0  0  0  0  0  0
  1  2  2  0  0  0  0
  2  3  1  0  0  0  0
  3  4  2  0  0  0  0
  3  5  1  0  0  0  0
  5  6  2  0  0  0  0
  6  7  1  0  0  0  0
  6  8  1  0  0  0  0
  8  9  1  0  0  0  0
  8 10  2  0  0  0  0
 10 11  1  0  0  0  0
 10 12  1  0  0  0  0
 12 13  1  0  0  0  0
 12 14  2  0  0  0  0
 14 15  1  0  0  0  0
 15 16  2  0  0  0  0
 16 17  1  0  0  0  0
 17 18  3  0  0  0  0
 16 19  1  0  0  0  0
 19 20  3  0  0  0  0
  1 21  1  0  0  0  0
 21 22  2  0  0  0  0
 22 23  1  0  0  0  0
 23 24  1  0  0  0  0
 22 25  1  0  0  0  0
 25 26  1  0  0  0  0
 26 27  1  0  0  0  0
 27 28  1  0  0  0  0
 28 29  1  0  0  0  0
 29 30  1  0  0  0  0
 30 31  2  0  0  0  0
 31 32  1  0  0  0  0
 32 33  1  0  0  0  0
 30 34  1  0  0  0  0
 34 35  1  0  0  0  0
 35 36  1  0  0  0  0
 36 37  1  0  0  0  0
 37 38  1  0  0  0  0
 38 39  1  0  0  0  0
 39 40  1  0  0  0  0
 38 41  2  0  0  0  0
 41 42  1  0  0  0  0
 42 43  1  0  0  0  0
 43 44  1  0  0  0  0
 44 45  1  0  0  0  0
 45 46  1  0  0  0  0
 46 47  1  0  0  0  0
 47 48  1  0  0  0  0
 48 49  1  0  0  0  0
 49 50  1  0  0  0  0
 50 51  1  0  0  0  0
 48 52  1  0  0  0  0
 52 53  1  0  0  0  0
 45 54  1  0  0  0  0
 54 55  1  0  0  0  0
 41 56  1  0  0  0  0
 56 57  2  0  0  0  0
 57 58  1  0  0  0  0
 58 59  2  0  0  0  0
 58 60  1  0  0  0  0
 60 61  2  0  0  0  0
 61 62  1  0  0  0  0
 62 63  2  0  0  0  0
 63 64  1  0  0  0  0
 64 65  2  0  0  0  0
 65 66  1  0  0  0  0
 66 67  2  0  0  0  0
 67 68  1  0  0  0  0
 68 69  3  0  0  0  0
 67 70  1  0  0  0  0
 70 71  3  0  0  0  0
 63 72  1  0  0  0  0
 72 73  1  0  0  0  0
 73 74  1  0  0  0  0
 74 75  2  0  0  0  0
 75 76  1  0  0  0  0
 76 77  1  0  0  0  0
 76 78  1  0  0  0  0
 15  2  1  0  0  0  0
 51 21  1  0  0  0  0
 66 57  1  0  0  0  0
 78 72  1  0  0  0  0
 14  5  1  0  0  0  0
 50 25  2  0  0  0  0
 65 60  1  0  0  0  0
 77 73  1  0  0  0  0
 49 27  2  0  0  0  0
 78 62  1  0  0  0  0
 47 28  2  0  0  0  0
 33 29  2  0  0  0  0
 46 34  2  0  0  0  0
 44 35  2  0  0  0  0
 43 37  2  0  0  0  0
  1 79  1  0  0  0  0
 23 80  1  0  0  0  0
 23 81  1  0  0  0  0
 24 82  1  0  0  0  0
 24 83  1  0  0  0  0
 24 84  1  0  0  0  0
 39 85  1  0  0  0  0
 39 86  1  0  0  0  0
 40 87  1  0  0  0  0
 40 88  1  0  0  0  0
 40 89  1  0  0  0  0
 52 90  1  0  0  0  0
 52 91  1  0  0  0  0
 53 92  1  0  0  0  0
 53 93  1  0  0  0  0
 53 94  1  0  0  0  0
 54 95  1  0  0  0  0
 54 96  1  0  0  0  0
 55 97  1  0  0  0  0
 55 98  1  0  0  0  0
 55 99  1  0  0  0  0
 56100  1  0  0  0  0
 61101  1  0  0  0  0
 64102  1  0  0  0  0
 72103  1  0  0  0  0
 73104  1  0  0  0  0
 74105  1  0  0  0  0
 75106  1  0  0  0  0
 76107  1  0  0  0  0
 77108  1  0  0  0  0
 77109  1  0  0  0  0
 78110  1  0  0  0  0
M  END
