73

C         -6.23430       -1.71330       -1.43180
C         -6.38980       -3.07270       -1.59860
C         -5.33770       -4.06080       -1.45690
O         -4.14350       -3.85300       -1.28380
C         -5.99240       -5.38140       -1.52950
C         -5.43990       -6.63610       -1.34480
Cl        -3.75940       -6.84770       -1.14430
C         -6.30280       -7.74120       -1.31440
Cl        -5.66500       -9.31560       -1.12220
C         -7.68120       -7.55300       -1.39420
Cl        -8.71900       -8.90480       -1.25100
C         -8.23640       -6.27390       -1.57360
Cl        -9.94040       -6.10970       -1.47900
C         -7.37850       -5.19180       -1.71720
C         -7.61700       -3.76600       -1.94370
C         -8.70150       -3.21110       -2.57200
C         -9.70550       -3.91850       -3.26890
N        -10.50080       -4.38390       -3.95280
C         -8.88870       -1.82520       -2.77140
N         -9.12890       -0.71790       -2.95840
C         -5.09580       -0.95740       -1.14570
C         -5.17760        0.43050       -0.97660
C         -3.98210        1.06210       -0.70810
S         -3.62890        2.75830       -0.43080
C         -1.96400        2.34420       -0.22890
C         -0.73840        2.97280        0.01380
C         -0.42260        4.34340        0.13850
C          0.94890        4.72260        0.29140
N          1.10820        6.03560        0.35340
S         -0.34700        6.73330        0.23310
N         -1.23560        5.38740        0.09660
C          1.92540        3.70910        0.40220
C          3.29990        3.80070        0.65910
C          3.78090        2.49460        0.78180
N          2.76400        1.60210        0.57650
C          2.95570        0.21860        0.94230
C          2.25640       -0.11630        2.25730
C          1.60040        2.32250        0.33950
C          0.25920        1.95000        0.05310
N         -0.36390        0.73740       -0.18770
C         -1.70290        0.97500       -0.36520
C         -2.84480        0.22300       -0.64720
Se        -3.30260       -1.56210       -0.94770
C          0.17820       -0.53790       -0.59660
C          0.93290       -0.42540       -1.91920
C          5.14860        2.46100        1.08970
C          5.68050        3.75280        1.18330
S          4.50590        5.01410        0.90010
C          7.04390        3.83710        1.49330
C          7.66280        2.62430        1.66320
Se         6.46400        1.17460        1.41860
C          9.02710        2.38940        1.98820
C          9.65460        1.17460        2.16290
C         11.00850        1.28790        2.48190
C         11.42960        2.59560        2.55410
C         12.71230        3.05530        2.85000
N         13.77110        3.42660        3.09480
S         10.13420        3.70880        2.22230
H         -7.13580       -1.11510       -1.50300
H         -6.11510        0.95420       -1.05910
H          2.64040       -0.44040        0.13420
H          4.03580        0.07510        1.06470
H          1.19270        0.10400        2.20300
H          2.38800       -1.16890        2.49240
H          2.68340        0.47440        3.06440
H          0.79770       -0.96510        0.19140
H         -0.67640       -1.21250       -0.72890
H          1.35000       -1.39070       -2.19230
H          1.73810        0.30360       -1.85340
H          0.25280       -0.10850       -2.70660
H          7.56640        4.77310        1.59360
H          9.13400        0.23550        2.05960
H         11.66500        0.45410        2.65580
