
  xtb     02022201493D
 energy: -236.469331409752 gnorm: 0.000533321345 xtb: 6.4.1 (unknown)
117130  0     0  0            999 V2000
   -2.3841    1.5543    7.2590 C   0  0  0  0  0  0  0  0  0  0  0  0
   -3.6630    2.0576    7.2599 C   0  0  0  0  0  0  0  0  0  0  0  0
   -4.4691    2.3557    6.0801 C   0  0  0  0  0  0  0  0  0  0  0  0
   -4.2097    2.1054    4.9173 O   0  0  0  0  0  0  0  0  0  0  0  0
   -5.6692    3.0652    6.5773 C   0  0  0  0  0  0  0  0  0  0  0  0
   -6.6894    3.6516    5.8502 C   0  0  0  0  0  0  0  0  0  0  0  0
   -6.7871    3.4828    4.1556 Cl  0  0  0  0  0  0  0  0  0  0  0  0
   -7.6477    4.4053    6.5426 C   0  0  0  0  0  0  0  0  0  0  0  0
   -8.9476    5.1206    5.6926 Cl  0  0  0  0  0  0  0  0  0  0  0  0
   -7.5156    4.6111    7.9145 C   0  0  0  0  0  0  0  0  0  0  0  0
   -8.6369    5.6204    8.7201 Cl  0  0  0  0  0  0  0  0  0  0  0  0
   -6.4716    4.0193    8.6456 C   0  0  0  0  0  0  0  0  0  0  0  0
   -6.2743    4.4702   10.2884 Cl  0  0  0  0  0  0  0  0  0  0  0  0
   -5.5883    3.1786    7.9807 C   0  0  0  0  0  0  0  0  0  0  0  0
   -4.4419    2.3935    8.4369 C   0  0  0  0  0  0  0  0  0  0  0  0
   -4.2530    1.8805    9.6938 C   0  0  0  0  0  0  0  0  0  0  0  0
   -3.1364    1.1118   10.0922 C   0  0  0  0  0  0  0  0  0  0  0  0
   -2.2669    0.4901   10.5123 N   0  0  0  0  0  0  0  0  0  0  0  0
   -5.2071    1.8767   10.7349 C   0  0  0  0  0  0  0  0  0  0  0  0
   -5.9459    1.7217   11.5993 N   0  0  0  0  0  0  0  0  0  0  0  0
   -1.5630    1.1661    6.1981 C   0  0  0  0  0  0  0  0  0  0  0  0
   -0.2444    0.7226    6.4095 C   0  0  0  0  0  0  0  0  0  0  0  0
    0.3519    0.5811    7.7497 C   0  0  0  0  0  0  0  0  0  0  0  0
    0.0630   -0.5673    8.4808 C   0  0  0  0  0  0  0  0  0  0  0  0
    0.5937   -0.7455    9.7428 C   0  0  0  0  0  0  0  0  0  0  0  0
    1.4116    0.2305   10.2854 C   0  0  0  0  0  0  0  0  0  0  0  0
    1.6946    1.3735    9.5625 C   0  0  0  0  0  0  0  0  0  0  0  0
    1.1750    1.5687    8.2889 C   0  0  0  0  0  0  0  0  0  0  0  0
    1.5175    2.8183    7.5261 C   0  0  0  0  0  0  0  0  0  0  0  0
    2.9456    2.7540    6.9820 C   0  0  0  0  0  0  0  0  0  0  0  0
    0.3860    0.3965    5.2186 C   0  0  0  0  0  0  0  0  0  0  0  0
    1.9932   -0.1969    4.8500 S   0  0  0  0  0  0  0  0  0  0  0  0
    1.5722   -0.1886    3.1730 C   0  0  0  0  0  0  0  0  0  0  0  0
    2.1649   -0.4515    1.9333 C   0  0  0  0  0  0  0  0  0  0  0  0
    3.5001   -0.7746    1.6032 C   0  0  0  0  0  0  0  0  0  0  0  0
    3.8704   -0.8493    0.2220 C   0  0  0  0  0  0  0  0  0  0  0  0
    5.1592   -1.1004    0.0559 N   0  0  0  0  0  0  0  0  0  0  0  0
    5.8470   -1.2357    1.5152 S   0  0  0  0  0  0  0  0  0  0  0  0
    4.5260   -0.9769    2.4145 N   0  0  0  0  0  0  0  0  0  0  0  0
    2.8651   -0.7088   -0.7608 C   0  0  0  0  0  0  0  0  0  0  0  0
    2.9251   -0.8459   -2.1521 C   0  0  0  0  0  0  0  0  0  0  0  0
    4.1028   -1.1142   -3.3909 S   0  0  0  0  0  0  0  0  0  0  0  0
    2.8069   -1.1056   -4.5730 C   0  0  0  0  0  0  0  0  0  0  0  0
    2.7942   -1.2393   -5.9548 C   0  0  0  0  0  0  0  0  0  0  0  0
    3.9958   -1.3837   -6.7891 C   0  0  0  0  0  0  0  0  0  0  0  0
    4.7749   -2.5433   -6.7596 C   0  0  0  0  0  0  0  0  0  0  0  0
    4.3639   -3.7459   -5.9576 C   0  0  0  0  0  0  0  0  0  0  0  0
    3.2553   -4.5221   -6.6720 C   0  0  0  0  0  0  0  0  0  0  0  0
    5.9094   -2.5952   -7.5579 C   0  0  0  0  0  0  0  0  0  0  0  0
    6.2747   -1.5305   -8.3618 C   0  0  0  0  0  0  0  0  0  0  0  0
    5.4980   -0.3859   -8.3869 C   0  0  0  0  0  0  0  0  0  0  0  0
    4.3617   -0.3166   -7.6052 C   0  0  0  0  0  0  0  0  0  0  0  0
    1.4878   -1.1536   -6.4742 C   0  0  0  0  0  0  0  0  0  0  0  0
    0.2878   -0.8959   -5.2078 S   0  0  0  0  0  0  0  0  0  0  0  0
    1.5316   -0.8965   -4.0148 C   0  0  0  0  0  0  0  0  0  0  0  0
    1.6117   -0.7407   -2.6285 C   0  0  0  0  0  0  0  0  0  0  0  0
    0.7530   -0.5102   -1.5881 N   0  0  0  0  0  0  0  0  0  0  0  0
    1.4979   -0.4721   -0.4229 C   0  0  0  0  0  0  0  0  0  0  0  0
    1.1663   -0.2295    0.9372 C   0  0  0  0  0  0  0  0  0  0  0  0
    0.0117    0.1932    1.5712 N   0  0  0  0  0  0  0  0  0  0  0  0
    0.2586    0.2273    2.9170 C   0  0  0  0  0  0  0  0  0  0  0  0
   -0.4294    0.5726    4.0829 C   0  0  0  0  0  0  0  0  0  0  0  0
   -1.9974    1.1644    4.4901 S   0  0  0  0  0  0  0  0  0  0  0  0
   -1.1551    0.8680    1.0462 C   0  0  0  0  0  0  0  0  0  0  0  0
   -0.7770    2.1606    0.3277 C   0  0  0  0  0  0  0  0  0  0  0  0
   -0.6687   -0.6879   -1.7888 C   0  0  0  0  0  0  0  0  0  0  0  0
   -1.1746   -1.9576   -1.1092 C   0  0  0  0  0  0  0  0  0  0  0  0
    1.2195   -1.2921   -7.8383 C   0  0  0  0  0  0  0  0  0  0  0  0
    0.0211   -1.3203   -8.5125 C   0  0  0  0  0  0  0  0  0  0  0  0
   -1.3077   -1.2522   -7.9117 C   0  0  0  0  0  0  0  0  0  0  0  0
   -1.5912   -1.0195   -6.7509 O   0  0  0  0  0  0  0  0  0  0  0  0
   -2.2628   -1.5579   -9.0001 C   0  0  0  0  0  0  0  0  0  0  0  0
   -3.6336   -1.7270   -8.9253 C   0  0  0  0  0  0  0  0  0  0  0  0
   -4.4913   -1.4277   -7.4813 Cl  0  0  0  0  0  0  0  0  0  0  0  0
   -4.3102   -2.1655  -10.0723 C   0  0  0  0  0  0  0  0  0  0  0  0
   -6.0091   -2.3566  -10.0399 Cl  0  0  0  0  0  0  0  0  0  0  0  0
   -3.5949   -2.4901  -11.2236 C   0  0  0  0  0  0  0  0  0  0  0  0
   -4.4295   -3.1219  -12.5762 Cl  0  0  0  0  0  0  0  0  0  0  0  0
   -2.2014   -2.3233  -11.2898 C   0  0  0  0  0  0  0  0  0  0  0  0
   -1.3769   -2.9165  -12.6717 Cl  0  0  0  0  0  0  0  0  0  0  0  0
   -1.5447   -1.7815  -10.1926 C   0  0  0  0  0  0  0  0  0  0  0  0
   -0.1422   -1.4470   -9.9489 C   0  0  0  0  0  0  0  0  0  0  0  0
    0.7827   -1.0913  -10.8952 C   0  0  0  0  0  0  0  0  0  0  0  0
    2.1229   -0.7402  -10.6206 C   0  0  0  0  0  0  0  0  0  0  0  0
    3.2262   -0.4471  -10.4968 N   0  0  0  0  0  0  0  0  0  0  0  0
    0.5103   -0.8342  -12.2569 C   0  0  0  0  0  0  0  0  0  0  0  0
    0.3762   -0.4925  -13.3442 N   0  0  0  0  0  0  0  0  0  0  0  0
   -1.8965    1.4580    8.2225 H   0  0  0  0  0  0  0  0  0  0  0  0
   -0.5845   -1.3170    8.0498 H   0  0  0  0  0  0  0  0  0  0  0  0
    0.3589   -1.6360   10.3038 H   0  0  0  0  0  0  0  0  0  0  0  0
    1.8223    0.1037   11.2756 H   0  0  0  0  0  0  0  0  0  0  0  0
    2.3237    2.1397    9.9927 H   0  0  0  0  0  0  0  0  0  0  0  0
    0.8192    2.9583    6.6983 H   0  0  0  0  0  0  0  0  0  0  0  0
    1.4288    3.6806    8.1917 H   0  0  0  0  0  0  0  0  0  0  0  0
    3.6575    2.6436    7.7961 H   0  0  0  0  0  0  0  0  0  0  0  0
    3.1831    3.6632    6.4346 H   0  0  0  0  0  0  0  0  0  0  0  0
    3.0607    1.9048    6.3131 H   0  0  0  0  0  0  0  0  0  0  0  0
    5.2274   -4.3994   -5.8230 H   0  0  0  0  0  0  0  0  0  0  0  0
    4.0137   -3.4464   -4.9691 H   0  0  0  0  0  0  0  0  0  0  0  0
    3.5822   -4.8184   -7.6664 H   0  0  0  0  0  0  0  0  0  0  0  0
    2.3607   -3.9113   -6.7740 H   0  0  0  0  0  0  0  0  0  0  0  0
    2.9988   -5.4173   -6.1103 H   0  0  0  0  0  0  0  0  0  0  0  0
    6.5146   -3.4905   -7.5477 H   0  0  0  0  0  0  0  0  0  0  0  0
    7.1625   -1.5971   -8.9724 H   0  0  0  0  0  0  0  0  0  0  0  0
    5.7658    0.4457   -9.0185 H   0  0  0  0  0  0  0  0  0  0  0  0
    3.7497    0.5736   -7.6147 H   0  0  0  0  0  0  0  0  0  0  0  0
   -1.7272    0.2006    0.4019 H   0  0  0  0  0  0  0  0  0  0  0  0
   -1.7883    1.1063    1.9040 H   0  0  0  0  0  0  0  0  0  0  0  0
   -1.6703    2.6393   -0.0637 H   0  0  0  0  0  0  0  0  0  0  0  0
   -0.0887    1.9724   -0.4932 H   0  0  0  0  0  0  0  0  0  0  0  0
   -0.2962    2.8443    1.0233 H   0  0  0  0  0  0  0  0  0  0  0  0
   -1.2173    0.1934   -1.4570 H   0  0  0  0  0  0  0  0  0  0  0  0
   -0.8217   -0.7730   -2.8672 H   0  0  0  0  0  0  0  0  0  0  0  0
   -0.9767   -1.9423   -0.0398 H   0  0  0  0  0  0  0  0  0  0  0  0
   -0.6792   -2.8278   -1.5332 H   0  0  0  0  0  0  0  0  0  0  0  0
   -2.2445   -2.0589   -1.2683 H   0  0  0  0  0  0  0  0  0  0  0  0
    2.1148   -1.4362   -8.4327 H   0  0  0  0  0  0  0  0  0  0  0  0
  1  2  2  0  0  0  0
  2  3  1  0  0  0  0
  3  4  2  0  0  0  0
  3  5  1  0  0  0  0
  5  6  2  0  0  0  0
  6  7  1  0  0  0  0
  6  8  1  0  0  0  0
  8  9  1  0  0  0  0
  8 10  2  0  0  0  0
 10 11  1  0  0  0  0
 10 12  1  0  0  0  0
 12 13  1  0  0  0  0
 12 14  2  0  0  0  0
 14 15  1  0  0  0  0
 15 16  2  0  0  0  0
 16 17  1  0  0  0  0
 17 18  3  0  0  0  0
 16 19  1  0  0  0  0
 19 20  3  0  0  0  0
  1 21  1  0  0  0  0
 21 22  2  0  0  0  0
 22 23  1  0  0  0  0
 23 24  2  0  0  0  0
 24 25  1  0  0  0  0
 25 26  2  0  0  0  0
 26 27  1  0  0  0  0
 27 28  2  0  0  0  0
 28 29  1  0  0  0  0
 29 30  1  0  0  0  0
 22 31  1  0  0  0  0
 31 32  1  0  0  0  0
 32 33  1  0  0  0  0
 33 34  1  0  0  0  0
 34 35  1  0  0  0  0
 35 36  1  0  0  0  0
 36 37  2  0  0  0  0
 37 38  1  0  0  0  0
 38 39  1  0  0  0  0
 36 40  1  0  0  0  0
 40 41  1  0  0  0  0
 41 42  1  0  0  0  0
 42 43  1  0  0  0  0
 43 44  1  0  0  0  0
 44 45  1  0  0  0  0
 45 46  2  0  0  0  0
 46 47  1  0  0  0  0
 47 48  1  0  0  0  0
 46 49  1  0  0  0  0
 49 50  2  0  0  0  0
 50 51  1  0  0  0  0
 51 52  2  0  0  0  0
 44 53  2  0  0  0  0
 53 54  1  0  0  0  0
 54 55  1  0  0  0  0
 55 56  1  0  0  0  0
 56 57  1  0  0  0  0
 57 58  1  0  0  0  0
 58 59  1  0  0  0  0
 59 60  1  0  0  0  0
 60 61  1  0  0  0  0
 61 62  1  0  0  0  0
 62 63  1  0  0  0  0
 60 64  1  0  0  0  0
 64 65  1  0  0  0  0
 57 66  1  0  0  0  0
 66 67  1  0  0  0  0
 53 68  1  0  0  0  0
 68 69  2  0  0  0  0
 69 70  1  0  0  0  0
 70 71  2  0  0  0  0
 70 72  1  0  0  0  0
 72 73  2  0  0  0  0
 73 74  1  0  0  0  0
 73 75  1  0  0  0  0
 75 76  1  0  0  0  0
 75 77  2  0  0  0  0
 77 78  1  0  0  0  0
 77 79  1  0  0  0  0
 79 80  1  0  0  0  0
 79 81  2  0  0  0  0
 81 82  1  0  0  0  0
 82 83  2  0  0  0  0
 83 84  1  0  0  0  0
 84 85  3  0  0  0  0
 83 86  1  0  0  0  0
 86 87  3  0  0  0  0
 15  2  1  0  0  0  0
 63 21  1  0  0  0  0
 82 69  1  0  0  0  0
 14  5  1  0  0  0  0
 28 23  1  0  0  0  0
 62 31  2  0  0  0  0
 81 72  1  0  0  0  0
 61 33  2  0  0  0  0
 59 34  2  0  0  0  0
 39 35  2  0  0  0  0
 58 40  2  0  0  0  0
 56 41  2  0  0  0  0
 55 43  2  0  0  0  0
 52 45  1  0  0  0  0
  1 88  1  0  0  0  0
 24 89  1  0  0  0  0
 25 90  1  0  0  0  0
 26 91  1  0  0  0  0
 27 92  1  0  0  0  0
 29 93  1  0  0  0  0
 29 94  1  0  0  0  0
 30 95  1  0  0  0  0
 30 96  1  0  0  0  0
 30 97  1  0  0  0  0
 47 98  1  0  0  0  0
 47 99  1  0  0  0  0
 48100  1  0  0  0  0
 48101  1  0  0  0  0
 48102  1  0  0  0  0
 49103  1  0  0  0  0
 50104  1  0  0  0  0
 51105  1  0  0  0  0
 52106  1  0  0  0  0
 64107  1  0  0  0  0
 64108  1  0  0  0  0
 65109  1  0  0  0  0
 65110  1  0  0  0  0
 65111  1  0  0  0  0
 66112  1  0  0  0  0
 66113  1  0  0  0  0
 67114  1  0  0  0  0
 67115  1  0  0  0  0
 67116  1  0  0  0  0
 68117  1  0  0  0  0
M  END
