117

C         -3.70270       -2.18660       -6.81230
C         -2.96560       -1.66890       -7.83800
C         -3.62870       -1.27130       -9.09960
O         -4.73620       -1.57810       -9.46990
C         -2.66500       -0.35180       -9.76070
C         -2.84470        0.44030      -10.88130
Cl        -4.26870        0.34670      -11.81630
C         -1.82390        1.33720      -11.23120
Cl        -1.99430        2.31890      -12.62070
C         -0.68850        1.45810      -10.43110
Cl         0.50060        2.62170      -10.82920
C         -0.50980        0.64930       -9.29800
Cl         0.83110        0.94220       -8.27020
C         -1.47950       -0.29500       -8.99930
C         -1.56850       -1.30800       -7.94850
C         -0.53660       -2.05990       -7.45250
C         -0.76550       -3.21040       -6.66490
N         -0.91430       -4.17330       -6.05830
C          0.82620       -1.93760       -7.79150
N          1.94610       -1.95320       -8.04160
C         -3.40260       -2.23330       -5.44110
C         -4.17040       -2.87240       -4.46590
C         -5.42860       -3.57670       -4.74990
C         -6.51820       -2.81890       -5.17360
C         -7.73740       -3.41770       -5.42240
C         -7.87390       -4.78520       -5.25430
C         -6.79140       -5.53950       -4.84170
C         -5.55750       -4.95680       -4.58010
C         -4.38660       -5.82330       -4.21810
C         -3.58170       -6.18180       -5.46920
C         -3.63030       -2.69810       -3.18950
S         -4.14500       -3.23000       -1.60350
C         -2.80060       -2.38700       -0.91730
C         -2.25340       -2.11200        0.34190
C         -2.72440       -2.42960        1.63510
C         -2.02900       -1.90320        2.77030
N         -2.60730       -2.23160        3.91500
S         -3.91180       -3.13180        3.59030
N         -3.79180       -3.13440        1.97620
C         -0.84190       -1.16710        2.56110
C          0.06450       -0.62170        3.47790
S          0.25070       -0.44930        5.18940
C          1.77960        0.36070        4.90320
C          2.73090        0.90410        5.75620
C          2.68030        0.88400        7.22540
C          1.78580        1.68240        7.94010
C          0.88340        2.66310        7.24780
C          1.64660        3.95080        6.92750
C          1.81050        1.62290        9.32690
C          2.69080        0.79440        9.99670
C          3.57610        0.00630        9.28200
C          3.57270        0.05630        7.90200
C          3.80940        1.45920        5.04360
S          3.63210        1.26440        3.30370
C          2.11490        0.47720        3.54130
C          1.12390       -0.08830        2.73340
N          0.89340       -0.26440        1.39570
C         -0.31970       -0.91700        1.25570
C         -1.09000       -1.31340        0.12910
N         -0.96260       -1.09420       -1.23240
C         -1.99690       -1.73290       -1.86020
C         -2.47270       -1.90360       -3.16130
S         -2.03160       -1.37310       -4.74000
C         -0.18650       -0.11590       -1.96060
C         -0.54980        1.30740       -1.54450
C          1.99340       -0.11230        0.46790
C          2.48570       -1.46520       -0.03970
C          4.82780        2.16030        5.69440
C          5.93330        2.80030        5.19060
C          6.38170        2.77220        3.79700
O          5.81950        2.25970        2.84370
C          7.67300        3.48460        3.77180
C          8.51790        3.70620        2.70120
C          9.69480        4.40410        2.92180
C          9.98190        4.85380        4.20190
F         11.12700        5.52610        4.39890
C          9.14750        4.64510        5.29240
C          7.97360        3.94690        5.06600
C          6.88480        3.56460        5.96780
C          6.77840        3.92890        7.28510
C          5.68710        3.64260        8.13350
N          4.83250        3.47430        8.88260
C          7.74910        4.68730        7.97330
N          8.50320        5.29680        8.58740
H         -4.70080       -2.51920       -7.07940
H         -6.40460       -1.75030       -5.29030
H         -8.57550       -2.81920       -5.74550
H         -8.82270       -5.26290       -5.44720
H         -6.89980       -6.60740       -4.71840
H         -3.73290       -5.31690       -3.50820
H         -4.75000       -6.73930       -3.74890
H         -2.77390       -6.86210       -5.21320
H         -4.22060       -6.66040       -6.20830
H         -3.14380       -5.29130       -5.91380
H          0.48550        2.23780        6.32530
H          0.04180        2.89990        7.90090
H          2.43040        3.76200        6.19690
H          2.11140        4.34550        7.82790
H          0.97150        4.70100        6.52250
H          1.13110        2.24730        9.88840
H          2.69340        0.76960       11.07570
H          4.27180       -0.63970        9.79570
H          4.26030       -0.55290        7.33190
H          0.87940       -0.31160       -1.84860
H         -0.42630       -0.25350       -3.01780
H         -1.59380        1.50660       -1.77520
H          0.06550        2.02030       -2.08630
H         -0.40500        1.45530       -0.47680
H          1.71910        0.55230       -0.35070
H          2.79880        0.37760        1.02010
H          3.30180       -1.32140       -0.74230
H          1.68970       -2.01950       -0.53200
H          2.84920       -2.06300        0.79280
H          4.69100        2.19590        6.76880
H          8.25790        3.33930        1.72060
H         10.39080        4.60410        2.12270
H          9.43410        5.02180        6.26010
