118

C         -2.57340        4.27680       -8.07880
C         -3.51810        5.20200       -8.45510
C         -4.30850        6.11770       -7.61840
O         -4.13510        6.44460       -6.46280
C         -5.42570        6.57740       -8.48300
C         -6.53100        7.33240       -8.13360
Cl        -6.69140        8.01850       -6.57950
C         -7.53900        7.51530       -9.09090
Cl        -8.91120        8.46430       -8.71400
C         -7.44710        6.88840      -10.33180
Cl        -8.73740        7.04110      -11.44480
C         -6.32340        6.12100      -10.67960
Cl        -6.36100        5.23860      -12.15020
C         -5.27770        6.02790       -9.77120
C         -3.98290        5.35410       -9.82430
C         -3.23460        5.12020      -10.94760
C         -3.52710        5.59510      -12.24450
N         -3.62220        6.01670      -13.30770
C         -1.95160        4.52750      -10.94390
N         -0.90870        4.05600      -11.03410
C         -2.02280        3.97350       -6.82740
S         -1.03520        2.50040       -6.75190
C         -0.81040        2.71690       -5.06820
C         -0.23190        2.07270       -3.96010
C         -0.54030        2.90550       -2.83960
N         -1.25390        4.00270       -3.25550
C         -1.44380        3.89400       -4.60570
C         -2.11720        4.60080       -5.58900
C         -1.74520        5.05450       -2.41010
C         -0.15770        2.55240       -1.55570
C          0.48970        1.33590       -1.40850
C          0.94330        0.65760       -0.23450
C          1.50860       -0.53800       -0.56150
C          1.52600       -0.75750       -2.05320
C          0.75370       -2.05730       -2.35830
C          0.62770       -2.44940       -3.82490
C          2.94950       -0.71060       -2.64560
C          3.89010       -1.81530       -2.18530
C          0.79870        0.49610       -2.52150
C          0.47720        0.87450       -3.79530
C          1.81840       -1.27140        0.63580
C          1.45000       -0.44340        1.73920
C          0.82830        0.85120        1.25090
C         -0.68080        0.92420        1.58420
C         -1.04370        1.01760        3.06010
C          1.58900        2.08800        1.75070
C          3.02220        2.12890        1.23330
C          1.64230       -0.85160        3.03170
C          2.13790       -2.14240        3.23860
C          2.36450       -2.93670        4.38230
S          2.19590       -2.86840        6.09360
C          2.71680       -4.54230        6.23160
C          3.00780       -5.10130        5.00900
C          2.81880       -4.19140        3.95980
N          2.90670       -4.20280        2.59390
C          3.31130       -5.30620        1.77000
C          2.47650       -2.97910        2.13450
C          2.33440       -2.54380        0.82560
C          2.65030       -5.24310        7.49710
C          2.16860       -6.54490        7.49000
C          1.96100       -7.25380        8.66520
C          2.21580       -6.66780        9.88980
C          1.93030       -7.41400       11.12260
O          1.46910       -8.53850       11.11820
N          2.21790       -6.76970       12.31480
C          1.90800       -7.48820       13.54670
C          0.47270       -7.22700       13.98530
C          2.74380       -5.49570       12.44100
O          2.94990       -5.01280       13.53660
C          3.03710       -4.77570       11.18980
C          3.60130       -3.51870       11.25210
C          3.91170       -2.83490       10.07710
C          3.62050       -3.38240        8.85290
C          2.99850       -4.64170        8.74420
C          2.74630       -5.36360        9.94130
H         -2.23420        3.61210       -8.86520
H         -2.66660        5.51260       -5.45240
H         -0.91620        5.61520       -1.97010
H         -2.35370        5.73180       -3.00470
H         -2.35790        4.64230       -1.60490
H         -0.36490        3.18870       -0.71030
H          1.24210       -2.86960       -1.81860
H         -0.24860       -1.94720       -1.93540
H          0.01630       -1.73760       -4.37080
H          0.14640       -3.42310       -3.89390
H          1.60060       -2.52110       -4.30350
H          2.86720       -0.73340       -3.73330
H          3.38390        0.25520       -2.37390
H          4.85100       -1.70230       -2.68340
H          3.49720       -2.79800       -2.43360
H          4.05580       -1.75630       -1.11310
H          0.73260        0.29040       -4.66460
H         -1.09020        1.79350        1.06560
H         -1.15760        0.03650        1.16030
H         -2.12090        1.13770        3.15630
H         -0.56640        1.87160        3.53330
H         -0.75980        0.11340        3.59010
H          1.60510        2.07870        2.84120
H          1.06020        2.98680        1.42680
H          3.54550        2.99060        1.64150
H          3.55780        1.22870        1.52700
H          3.03770        2.19860        0.14790
H          1.41600       -0.22540        3.87990
H          3.35970       -6.11110        4.89830
H          3.69360       -6.10360        2.40330
H          4.09960       -4.99600        1.08020
H          2.46750       -5.68980        1.18880
H          2.59660       -3.18290       -0.00150
H          1.90560       -7.00240        6.54820
H          1.56780       -8.25890        8.64240
H          2.05680       -8.55160       13.35040
H          2.60760       -7.14300       14.30970
H          0.26560       -7.76970       14.90340
H          0.32250       -6.16480       14.16450
H         -0.22050       -7.56140       13.21680
H          3.81260       -3.09130       12.22060
H          4.38960       -1.86870       10.13380
H          3.89110       -2.84500        7.95810
