
  xtb     02102219203D
 energy: -199.417770607702 gnorm: 0.000914047255 xtb: 6.4.1 (unknown)
104115  0     0  0            999 V2000
   -5.0498   -0.6062   -4.2035 C   0  0  0  0  0  0  0  0  0  0  0  0
   -5.4268   -0.4453   -5.5139 C   0  0  0  0  0  0  0  0  0  0  0  0
   -4.5125   -0.1924   -6.6360 C   0  0  0  0  0  0  0  0  0  0  0  0
   -3.3054   -0.1001   -6.5981 O   0  0  0  0  0  0  0  0  0  0  0  0
   -5.3525   -0.2569   -7.8546 C   0  0  0  0  0  0  0  0  0  0  0  0
   -4.9699   -0.0981   -9.1736 C   0  0  0  0  0  0  0  0  0  0  0  0
   -3.3996    0.4253   -9.5826 Cl  0  0  0  0  0  0  0  0  0  0  0  0
   -5.9131   -0.3649  -10.1757 C   0  0  0  0  0  0  0  0  0  0  0  0
   -5.4988   -0.1422  -11.8195 Cl  0  0  0  0  0  0  0  0  0  0  0  0
   -7.1733   -0.8530   -9.8345 C   0  0  0  0  0  0  0  0  0  0  0  0
   -8.2700   -1.2792  -11.0762 Cl  0  0  0  0  0  0  0  0  0  0  0  0
   -7.5567   -1.0097   -8.4922 C   0  0  0  0  0  0  0  0  0  0  0  0
   -9.0577   -1.7679   -8.1553 Cl  0  0  0  0  0  0  0  0  0  0  0  0
   -6.6628   -0.6349   -7.4978 C   0  0  0  0  0  0  0  0  0  0  0  0
   -6.7656   -0.5924   -6.0406 C   0  0  0  0  0  0  0  0  0  0  0  0
   -7.9041   -0.4174   -5.2955 C   0  0  0  0  0  0  0  0  0  0  0  0
   -9.2070   -0.1801   -5.7817 C   0  0  0  0  0  0  0  0  0  0  0  0
  -10.2793    0.1183   -6.0616 N   0  0  0  0  0  0  0  0  0  0  0  0
   -7.8897   -0.2567   -3.8919 C   0  0  0  0  0  0  0  0  0  0  0  0
   -7.9508   -0.1026   -2.7557 N   0  0  0  0  0  0  0  0  0  0  0  0
   -3.8892   -0.1426   -3.5615 C   0  0  0  0  0  0  0  0  0  0  0  0
   -3.0486    0.9438   -3.8310 C   0  0  0  0  0  0  0  0  0  0  0  0
   -3.2664    1.8937   -4.9232 C   0  0  0  0  0  0  0  0  0  0  0  0
   -4.5424    2.4468   -5.0415 C   0  0  0  0  0  0  0  0  0  0  0  0
   -4.8386    3.3350   -6.0532 C   0  0  0  0  0  0  0  0  0  0  0  0
   -3.8491    3.6929   -6.9560 C   0  0  0  0  0  0  0  0  0  0  0  0
   -2.5808    3.1626   -6.8318 C   0  0  0  0  0  0  0  0  0  0  0  0
   -2.2619    2.2471   -5.8334 C   0  0  0  0  0  0  0  0  0  0  0  0
   -0.8810    1.6547   -5.7784 C   0  0  0  0  0  0  0  0  0  0  0  0
   -0.3970    1.1310   -7.1296 C   0  0  0  0  0  0  0  0  0  0  0  0
   -2.0869    1.1004   -2.8244 C   0  0  0  0  0  0  0  0  0  0  0  0
   -0.8470    2.3064   -2.5551 S   0  0  0  0  0  0  0  0  0  0  0  0
   -0.4346    1.5159   -1.0746 C   0  0  0  0  0  0  0  0  0  0  0  0
    0.4419    1.6795    0.0073 C   0  0  0  0  0  0  0  0  0  0  0  0
    1.3521    2.7167    0.3090 C   0  0  0  0  0  0  0  0  0  0  0  0
    2.0335    2.6939    1.5692 C   0  0  0  0  0  0  0  0  0  0  0  0
    2.8073    3.7535    1.7454 N   0  0  0  0  0  0  0  0  0  0  0  0
    2.6915    4.6962    0.4354 S   0  0  0  0  0  0  0  0  0  0  0  0
    1.6497    3.7899   -0.4069 N   0  0  0  0  0  0  0  0  0  0  0  0
    1.8683    1.5723    2.4116 C   0  0  0  0  0  0  0  0  0  0  0  0
    2.5165    1.2171    3.6016 C   0  0  0  0  0  0  0  0  0  0  0  0
    3.6849    1.8688    4.6982 S   0  0  0  0  0  0  0  0  0  0  0  0
    3.6244    0.3709    5.5992 C   0  0  0  0  0  0  0  0  0  0  0  0
    4.3035   -0.0686    6.7366 C   0  0  0  0  0  0  0  0  0  0  0  0
    5.2799    0.7588    7.4641 C   0  0  0  0  0  0  0  0  0  0  0  0
    6.6516    0.6067    7.2581 C   0  0  0  0  0  0  0  0  0  0  0  0
    7.1947   -0.3755    6.2590 C   0  0  0  0  0  0  0  0  0  0  0  0
    7.3671    0.2921    4.8927 C   0  0  0  0  0  0  0  0  0  0  0  0
    7.5186    1.4272    7.9660 C   0  0  0  0  0  0  0  0  0  0  0  0
    7.0450    2.3740    8.8546 C   0  0  0  0  0  0  0  0  0  0  0  0
    5.6822    2.5273    9.0415 C   0  0  0  0  0  0  0  0  0  0  0  0
    4.8021    1.7244    8.3433 C   0  0  0  0  0  0  0  0  0  0  0  0
    3.9250   -1.3645    7.0847 C   0  0  0  0  0  0  0  0  0  0  0  0
    2.7302   -2.0340    5.9728 S   0  0  0  0  0  0  0  0  0  0  0  0
    2.7330   -0.5719    5.0617 C   0  0  0  0  0  0  0  0  0  0  0  0
    2.0918   -0.0790    3.9238 C   0  0  0  0  0  0  0  0  0  0  0  0
    1.1932   -0.5218    2.9917 N   0  0  0  0  0  0  0  0  0  0  0  0
    1.0161    0.4828    2.0608 C   0  0  0  0  0  0  0  0  0  0  0  0
    0.1997    0.5992    0.9053 C   0  0  0  0  0  0  0  0  0  0  0  0
   -0.8286   -0.1774    0.3917 N   0  0  0  0  0  0  0  0  0  0  0  0
   -1.2120    0.3852   -0.7989 C   0  0  0  0  0  0  0  0  0  0  0  0
   -2.1704    0.1551   -1.7888 C   0  0  0  0  0  0  0  0  0  0  0  0
   -3.4683   -0.9444   -2.0458 S   0  0  0  0  0  0  0  0  0  0  0  0
   -1.7920   -1.0073    1.0856 C   0  0  0  0  0  0  0  0  0  0  0  0
   -2.7445   -0.1538    1.9197 C   0  0  0  0  0  0  0  0  0  0  0  0
    0.8377   -1.9229    2.9534 C   0  0  0  0  0  0  0  0  0  0  0  0
   -0.2400   -2.2709    3.9793 C   0  0  0  0  0  0  0  0  0  0  0  0
    4.3918   -2.1086    8.1982 C   0  0  0  0  0  0  0  0  0  0  0  0
    4.0530   -3.4104    8.5140 C   0  0  0  0  0  0  0  0  0  0  0  0
    3.1879   -4.2256    7.7636 C   0  0  0  0  0  0  0  0  0  0  0  0
    2.4878   -4.9314    7.1879 N   0  0  0  0  0  0  0  0  0  0  0  0
    4.5838   -4.0393    9.6608 C   0  0  0  0  0  0  0  0  0  0  0  0
    5.0009   -4.5790   10.5824 N   0  0  0  0  0  0  0  0  0  0  0  0
    5.2823   -1.4864    9.1160 C   0  0  0  0  0  0  0  0  0  0  0  0
    5.9872   -1.0702    9.9173 N   0  0  0  0  0  0  0  0  0  0  0  0
   -5.7165   -1.1723   -3.5621 H   0  0  0  0  0  0  0  0  0  0  0  0
   -5.3003    2.1815   -4.3172 H   0  0  0  0  0  0  0  0  0  0  0  0
   -5.8308    3.7538   -6.1317 H   0  0  0  0  0  0  0  0  0  0  0  0
   -4.0685    4.3889   -7.7519 H   0  0  0  0  0  0  0  0  0  0  0  0
   -1.8163    3.4615   -7.5321 H   0  0  0  0  0  0  0  0  0  0  0  0
   -0.8687    0.8238   -5.0740 H   0  0  0  0  0  0  0  0  0  0  0  0
   -0.1863    2.4193   -5.4157 H   0  0  0  0  0  0  0  0  0  0  0  0
   -1.1159    0.4167   -7.5188 H   0  0  0  0  0  0  0  0  0  0  0  0
    0.5615    0.6318   -7.0067 H   0  0  0  0  0  0  0  0  0  0  0  0
   -0.2701    1.9318   -7.8527 H   0  0  0  0  0  0  0  0  0  0  0  0
    6.5263   -1.2332    6.1577 H   0  0  0  0  0  0  0  0  0  0  0  0
    8.1625   -0.7435    6.6046 H   0  0  0  0  0  0  0  0  0  0  0  0
    6.4124    0.6588    4.5222 H   0  0  0  0  0  0  0  0  0  0  0  0
    7.7707   -0.4162    4.1730 H   0  0  0  0  0  0  0  0  0  0  0  0
    8.0477    1.1364    4.9696 H   0  0  0  0  0  0  0  0  0  0  0  0
    8.5826    1.3127    7.8192 H   0  0  0  0  0  0  0  0  0  0  0  0
    7.7392    2.9932    9.4020 H   0  0  0  0  0  0  0  0  0  0  0  0
    5.3043    3.2665    9.7310 H   0  0  0  0  0  0  0  0  0  0  0  0
    3.7358    1.8304    8.4841 H   0  0  0  0  0  0  0  0  0  0  0  0
   -1.3001   -1.7407    1.7145 H   0  0  0  0  0  0  0  0  0  0  0  0
   -2.3546   -1.5445    0.3180 H   0  0  0  0  0  0  0  0  0  0  0  0
   -3.4708   -0.7899    2.4176 H   0  0  0  0  0  0  0  0  0  0  0  0
   -2.1947    0.4104    2.6702 H   0  0  0  0  0  0  0  0  0  0  0  0
   -3.2785    0.5488    1.2850 H   0  0  0  0  0  0  0  0  0  0  0  0
    1.7403   -2.4974    3.1900 H   0  0  0  0  0  0  0  0  0  0  0  0
    0.5457   -2.1854    1.9360 H   0  0  0  0  0  0  0  0  0  0  0  0
    0.1525   -2.1544    4.9860 H   0  0  0  0  0  0  0  0  0  0  0  0
   -1.1105   -1.6276    3.8803 H   0  0  0  0  0  0  0  0  0  0  0  0
   -0.5460   -3.3058    3.8554 H   0  0  0  0  0  0  0  0  0  0  0  0
  1  2  2  0  0  0  0
  2  3  1  0  0  0  0
  3  4  2  0  0  0  0
  3  5  1  0  0  0  0
  5  6  2  0  0  0  0
  6  7  1  0  0  0  0
  6  8  1  0  0  0  0
  8  9  1  0  0  0  0
  8 10  2  0  0  0  0
 10 11  1  0  0  0  0
 10 12  1  0  0  0  0
 12 13  1  0  0  0  0
 12 14  2  0  0  0  0
 14 15  1  0  0  0  0
 15 16  2  0  0  0  0
 16 17  1  0  0  0  0
 17 18  3  0  0  0  0
 16 19  1  0  0  0  0
 19 20  3  0  0  0  0
  1 21  1  0  0  0  0
 21 22  2  0  0  0  0
 22 23  1  0  0  0  0
 23 24  2  0  0  0  0
 24 25  1  0  0  0  0
 25 26  2  0  0  0  0
 26 27  1  0  0  0  0
 27 28  2  0  0  0  0
 28 29  1  0  0  0  0
 29 30  1  0  0  0  0
 22 31  1  0  0  0  0
 31 32  1  0  0  0  0
 32 33  1  0  0  0  0
 33 34  1  0  0  0  0
 34 35  1  0  0  0  0
 35 36  1  0  0  0  0
 36 37  2  0  0  0  0
 37 38  1  0  0  0  0
 38 39  1  0  0  0  0
 36 40  1  0  0  0  0
 40 41  1  0  0  0  0
 41 42  1  0  0  0  0
 42 43  1  0  0  0  0
 43 44  1  0  0  0  0
 44 45  1  0  0  0  0
 45 46  2  0  0  0  0
 46 47  1  0  0  0  0
 47 48  1  0  0  0  0
 46 49  1  0  0  0  0
 49 50  2  0  0  0  0
 50 51  1  0  0  0  0
 51 52  2  0  0  0  0
 44 53  2  0  0  0  0
 53 54  1  0  0  0  0
 54 55  1  0  0  0  0
 55 56  1  0  0  0  0
 56 57  1  0  0  0  0
 57 58  1  0  0  0  0
 58 59  1  0  0  0  0
 59 60  1  0  0  0  0
 60 61  1  0  0  0  0
 61 62  1  0  0  0  0
 62 63  1  0  0  0  0
 60 64  1  0  0  0  0
 64 65  1  0  0  0  0
 57 66  1  0  0  0  0
 66 67  1  0  0  0  0
 53 68  1  0  0  0  0
 68 69  2  0  0  0  0
 69 70  1  0  0  0  0
 70 71  3  0  0  0  0
 69 72  1  0  0  0  0
 72 73  3  0  0  0  0
 68 74  1  0  0  0  0
 74 75  3  0  0  0  0
 15  2  1  0  0  0  0
 63 21  1  0  0  0  0
 14  5  1  0  0  0  0
 28 23  1  0  0  0  0
 62 31  2  0  0  0  0
 61 33  2  0  0  0  0
 59 34  2  0  0  0  0
 39 35  2  0  0  0  0
 58 40  2  0  0  0  0
 56 41  2  0  0  0  0
 55 43  2  0  0  0  0
 52 45  1  0  0  0  0
  1 76  1  0  0  0  0
 24 77  1  0  0  0  0
 25 78  1  0  0  0  0
 26 79  1  0  0  0  0
 27 80  1  0  0  0  0
 29 81  1  0  0  0  0
 29 82  1  0  0  0  0
 30 83  1  0  0  0  0
 30 84  1  0  0  0  0
 30 85  1  0  0  0  0
 47 86  1  0  0  0  0
 47 87  1  0  0  0  0
 48 88  1  0  0  0  0
 48 89  1  0  0  0  0
 48 90  1  0  0  0  0
 49 91  1  0  0  0  0
 50 92  1  0  0  0  0
 51 93  1  0  0  0  0
 52 94  1  0  0  0  0
 64 95  1  0  0  0  0
 64 96  1  0  0  0  0
 65 97  1  0  0  0  0
 65 98  1  0  0  0  0
 65 99  1  0  0  0  0
 66100  1  0  0  0  0
 66101  1  0  0  0  0
 67102  1  0  0  0  0
 67103  1  0  0  0  0
 67104  1  0  0  0  0
M  END
