
  xtb     02102219223D
 energy: -207.010718766935 gnorm: 0.000693806956 xtb: 6.4.1 (unknown)
111122  0     0  0            999 V2000
   -2.0710   -3.9701   -5.0627 C   0  0  0  0  0  0  0  0  0  0  0  0
   -1.0309   -4.7031   -5.5889 C   0  0  0  0  0  0  0  0  0  0  0  0
    0.3443   -4.7023   -5.1031 C   0  0  0  0  0  0  0  0  0  0  0  0
    0.7975   -4.1027   -4.1444 O   0  0  0  0  0  0  0  0  0  0  0  0
    1.1059   -5.5704   -6.0276 C   0  0  0  0  0  0  0  0  0  0  0  0
    2.4648   -5.8259   -6.0489 C   0  0  0  0  0  0  0  0  0  0  0  0
    3.4988   -5.2549   -4.8183 Cl  0  0  0  0  0  0  0  0  0  0  0  0
    2.9829   -6.5642   -7.1221 C   0  0  0  0  0  0  0  0  0  0  0  0
    4.6499   -6.9408   -7.1738 Cl  0  0  0  0  0  0  0  0  0  0  0  0
    2.1486   -6.9487   -8.1697 C   0  0  0  0  0  0  0  0  0  0  0  0
    2.8218   -7.7548   -9.5203 Cl  0  0  0  0  0  0  0  0  0  0  0  0
    0.7707   -6.6741   -8.1475 C   0  0  0  0  0  0  0  0  0  0  0  0
   -0.1422   -7.0104   -9.5596 Cl  0  0  0  0  0  0  0  0  0  0  0  0
    0.2351   -6.0511   -7.0269 C   0  0  0  0  0  0  0  0  0  0  0  0
   -1.1293   -5.6572   -6.6757 C   0  0  0  0  0  0  0  0  0  0  0  0
   -2.2820   -6.2295   -7.1524 C   0  0  0  0  0  0  0  0  0  0  0  0
   -2.3544   -7.4469   -7.8638 C   0  0  0  0  0  0  0  0  0  0  0  0
   -2.5287   -8.4818   -8.3288 N   0  0  0  0  0  0  0  0  0  0  0  0
   -3.5930   -5.7860   -6.8742 C   0  0  0  0  0  0  0  0  0  0  0  0
   -4.6942   -5.4843   -6.7449 N   0  0  0  0  0  0  0  0  0  0  0  0
   -2.0947   -3.0531   -4.0113 C   0  0  0  0  0  0  0  0  0  0  0  0
   -3.2769   -2.3836   -3.6354 C   0  0  0  0  0  0  0  0  0  0  0  0
   -4.5907   -2.6773   -4.2257 C   0  0  0  0  0  0  0  0  0  0  0  0
   -5.1721   -3.9126   -3.9523 C   0  0  0  0  0  0  0  0  0  0  0  0
   -6.4106   -4.2364   -4.4694 C   0  0  0  0  0  0  0  0  0  0  0  0
   -7.0745   -3.3262   -5.2730 C   0  0  0  0  0  0  0  0  0  0  0  0
   -6.4960   -2.1017   -5.5516 C   0  0  0  0  0  0  0  0  0  0  0  0
   -5.2553   -1.7535   -5.0352 C   0  0  0  0  0  0  0  0  0  0  0  0
   -4.6176   -0.4498   -5.4243 C   0  0  0  0  0  0  0  0  0  0  0  0
   -3.6254   -0.6573   -6.5709 C   0  0  0  0  0  0  0  0  0  0  0  0
   -3.0497   -1.4790   -2.6091 C   0  0  0  0  0  0  0  0  0  0  0  0
   -4.1079   -0.3886   -1.7336 S   0  0  0  0  0  0  0  0  0  0  0  0
   -2.7464    0.1227   -0.7975 C   0  0  0  0  0  0  0  0  0  0  0  0
   -2.4423    1.0598    0.1974 C   0  0  0  0  0  0  0  0  0  0  0  0
   -3.2168    2.0923    0.7732 C   0  0  0  0  0  0  0  0  0  0  0  0
   -2.5715    3.0511    1.6234 C   0  0  0  0  0  0  0  0  0  0  0  0
   -3.3964    4.0044    2.0267 N   0  0  0  0  0  0  0  0  0  0  0  0
   -4.8598    3.7174    1.3982 S   0  0  0  0  0  0  0  0  0  0  0  0
   -4.4972    2.3670    0.5827 N   0  0  0  0  0  0  0  0  0  0  0  0
   -1.2153    2.8558    1.9675 C   0  0  0  0  0  0  0  0  0  0  0  0
   -0.3652    3.5605    2.8344 C   0  0  0  0  0  0  0  0  0  0  0  0
   -0.3763    4.9936    3.8055 S   0  0  0  0  0  0  0  0  0  0  0  0
    1.2481    4.6141    4.3335 C   0  0  0  0  0  0  0  0  0  0  0  0
    2.1489    5.2636    5.1897 C   0  0  0  0  0  0  0  0  0  0  0  0
    1.8861    6.5463    5.8620 C   0  0  0  0  0  0  0  0  0  0  0  0
    0.9686    6.6424    6.9102 C   0  0  0  0  0  0  0  0  0  0  0  0
    0.2817    5.4266    7.4641 C   0  0  0  0  0  0  0  0  0  0  0  0
    1.2097    4.6697    8.4174 C   0  0  0  0  0  0  0  0  0  0  0  0
    0.7556    7.8863    7.4893 C   0  0  0  0  0  0  0  0  0  0  0  0
    1.4267    9.0113    7.0461 C   0  0  0  0  0  0  0  0  0  0  0  0
    2.3381    8.9071    6.0099 C   0  0  0  0  0  0  0  0  0  0  0  0
    2.5672    7.6772    5.4231 C   0  0  0  0  0  0  0  0  0  0  0  0
    3.3445    4.5664    5.2958 C   0  0  0  0  0  0  0  0  0  0  0  0
    3.3521    3.1005    4.3256 S   0  0  0  0  0  0  0  0  0  0  0  0
    1.7531    3.4348    3.7735 C   0  0  0  0  0  0  0  0  0  0  0  0
    0.8303    2.8391    2.9071 C   0  0  0  0  0  0  0  0  0  0  0  0
    0.7665    1.7330    2.1007 N   0  0  0  0  0  0  0  0  0  0  0  0
   -0.4773    1.7357    1.4904 C   0  0  0  0  0  0  0  0  0  0  0  0
   -1.0533    0.9152    0.4871 C   0  0  0  0  0  0  0  0  0  0  0  0
   -0.5287   -0.0467   -0.3511 N   0  0  0  0  0  0  0  0  0  0  0  0
   -1.5498   -0.5302   -1.1276 C   0  0  0  0  0  0  0  0  0  0  0  0
   -1.7102   -1.4420   -2.1728 C   0  0  0  0  0  0  0  0  0  0  0  0
   -0.7107   -2.5412   -3.0476 S   0  0  0  0  0  0  0  0  0  0  0  0
    0.8463   -0.3177   -0.7116 C   0  0  0  0  0  0  0  0  0  0  0  0
    1.2919   -1.7189   -0.2908 C   0  0  0  0  0  0  0  0  0  0  0  0
    1.6438    0.6183    2.3862 C   0  0  0  0  0  0  0  0  0  0  0  0
    1.3364    0.0095    3.7546 C   0  0  0  0  0  0  0  0  0  0  0  0
    4.4474    4.9603    6.0965 C   0  0  0  0  0  0  0  0  0  0  0  0
    5.6000    4.2788    6.2881 C   0  0  0  0  0  0  0  0  0  0  0  0
    6.6295    4.7966    7.0897 C   0  0  0  0  0  0  0  0  0  0  0  0
    7.4757    5.2010    7.7520 N   0  0  0  0  0  0  0  0  0  0  0  0
    5.8999    2.9307    5.6958 C   0  0  0  0  0  0  0  0  0  0  0  0
    6.6190    2.7407    4.7537 O   0  0  0  0  0  0  0  0  0  0  0  0
    5.2590    1.9831    6.3815 O   0  0  0  0  0  0  0  0  0  0  0  0
    5.4623    0.6302    5.9666 C   0  0  0  0  0  0  0  0  0  0  0  0
    6.7501    0.0622    6.5425 C   0  0  0  0  0  0  0  0  0  0  0  0
   -3.0380   -4.0897   -5.5374 H   0  0  0  0  0  0  0  0  0  0  0  0
   -4.6433   -4.6147   -3.3233 H   0  0  0  0  0  0  0  0  0  0  0  0
   -6.8495   -5.1977   -4.2533 H   0  0  0  0  0  0  0  0  0  0  0  0
   -8.0389   -3.5738   -5.6892 H   0  0  0  0  0  0  0  0  0  0  0  0
   -7.0129   -1.3975   -6.1877 H   0  0  0  0  0  0  0  0  0  0  0  0
   -5.3928    0.2483   -5.7447 H   0  0  0  0  0  0  0  0  0  0  0  0
   -4.0979   -0.0071   -4.5737 H   0  0  0  0  0  0  0  0  0  0  0  0
   -3.2076    0.2957   -6.8870 H   0  0  0  0  0  0  0  0  0  0  0  0
   -2.8088   -1.3060   -6.2606 H   0  0  0  0  0  0  0  0  0  0  0  0
   -4.1231   -1.1182   -7.4212 H   0  0  0  0  0  0  0  0  0  0  0  0
   -0.0267    4.7608    6.6570 H   0  0  0  0  0  0  0  0  0  0  0  0
   -0.6141    5.7343    8.0062 H   0  0  0  0  0  0  0  0  0  0  0  0
    1.5333    5.3209    9.2264 H   0  0  0  0  0  0  0  0  0  0  0  0
    2.0937    4.3121    7.8938 H   0  0  0  0  0  0  0  0  0  0  0  0
    0.6935    3.8143    8.8468 H   0  0  0  0  0  0  0  0  0  0  0  0
    0.0503    7.9704    8.3035 H   0  0  0  0  0  0  0  0  0  0  0  0
    1.2410    9.9680    7.5106 H   0  0  0  0  0  0  0  0  0  0  0  0
    2.8697    9.7788    5.6596 H   0  0  0  0  0  0  0  0  0  0  0  0
    3.2729    7.5850    4.6097 H   0  0  0  0  0  0  0  0  0  0  0  0
    0.9224   -0.2456   -1.8021 H   0  0  0  0  0  0  0  0  0  0  0  0
    1.4811    0.4609   -0.2863 H   0  0  0  0  0  0  0  0  0  0  0  0
    2.3680   -1.8116   -0.4070 H   0  0  0  0  0  0  0  0  0  0  0  0
    1.0270   -1.9326    0.7426 H   0  0  0  0  0  0  0  0  0  0  0  0
    0.8184   -2.4676   -0.9193 H   0  0  0  0  0  0  0  0  0  0  0  0
    1.5264   -0.1487    1.6313 H   0  0  0  0  0  0  0  0  0  0  0  0
    2.6737    0.9882    2.3680 H   0  0  0  0  0  0  0  0  0  0  0  0
    1.4908    0.7355    4.5481 H   0  0  0  0  0  0  0  0  0  0  0  0
    1.9921   -0.8388    3.9301 H   0  0  0  0  0  0  0  0  0  0  0  0
    0.3039   -0.3319    3.7915 H   0  0  0  0  0  0  0  0  0  0  0  0
    4.3313    5.9188    6.5896 H   0  0  0  0  0  0  0  0  0  0  0  0
    4.5886    0.0905    6.3376 H   0  0  0  0  0  0  0  0  0  0  0  0
    5.4854    0.5990    4.8721 H   0  0  0  0  0  0  0  0  0  0  0  0
    7.6055    0.6065    6.1501 H   0  0  0  0  0  0  0  0  0  0  0  0
    6.8423   -0.9844    6.2670 H   0  0  0  0  0  0  0  0  0  0  0  0
    6.7459    0.1467    7.6265 H   0  0  0  0  0  0  0  0  0  0  0  0
  1  2  2  0  0  0  0
  2  3  1  0  0  0  0
  3  4  2  0  0  0  0
  3  5  1  0  0  0  0
  5  6  2  0  0  0  0
  6  7  1  0  0  0  0
  6  8  1  0  0  0  0
  8  9  1  0  0  0  0
  8 10  2  0  0  0  0
 10 11  1  0  0  0  0
 10 12  1  0  0  0  0
 12 13  1  0  0  0  0
 12 14  2  0  0  0  0
 14 15  1  0  0  0  0
 15 16  2  0  0  0  0
 16 17  1  0  0  0  0
 17 18  3  0  0  0  0
 16 19  1  0  0  0  0
 19 20  3  0  0  0  0
  1 21  1  0  0  0  0
 21 22  2  0  0  0  0
 22 23  1  0  0  0  0
 23 24  2  0  0  0  0
 24 25  1  0  0  0  0
 25 26  2  0  0  0  0
 26 27  1  0  0  0  0
 27 28  2  0  0  0  0
 28 29  1  0  0  0  0
 29 30  1  0  0  0  0
 22 31  1  0  0  0  0
 31 32  1  0  0  0  0
 32 33  1  0  0  0  0
 33 34  1  0  0  0  0
 34 35  1  0  0  0  0
 35 36  1  0  0  0  0
 36 37  2  0  0  0  0
 37 38  1  0  0  0  0
 38 39  1  0  0  0  0
 36 40  1  0  0  0  0
 40 41  1  0  0  0  0
 41 42  1  0  0  0  0
 42 43  1  0  0  0  0
 43 44  1  0  0  0  0
 44 45  1  0  0  0  0
 45 46  2  0  0  0  0
 46 47  1  0  0  0  0
 47 48  1  0  0  0  0
 46 49  1  0  0  0  0
 49 50  2  0  0  0  0
 50 51  1  0  0  0  0
 51 52  2  0  0  0  0
 44 53  2  0  0  0  0
 53 54  1  0  0  0  0
 54 55  1  0  0  0  0
 55 56  1  0  0  0  0
 56 57  1  0  0  0  0
 57 58  1  0  0  0  0
 58 59  1  0  0  0  0
 59 60  1  0  0  0  0
 60 61  1  0  0  0  0
 61 62  1  0  0  0  0
 62 63  1  0  0  0  0
 60 64  1  0  0  0  0
 64 65  1  0  0  0  0
 57 66  1  0  0  0  0
 66 67  1  0  0  0  0
 53 68  1  0  0  0  0
 68 69  2  0  0  0  0
 69 70  1  0  0  0  0
 70 71  3  0  0  0  0
 69 72  1  0  0  0  0
 72 73  2  0  0  0  0
 72 74  1  0  0  0  0
 74 75  1  0  0  0  0
 75 76  1  0  0  0  0
 15  2  1  0  0  0  0
 63 21  1  0  0  0  0
 14  5  1  0  0  0  0
 28 23  1  0  0  0  0
 62 31  2  0  0  0  0
 61 33  2  0  0  0  0
 59 34  2  0  0  0  0
 39 35  2  0  0  0  0
 58 40  2  0  0  0  0
 56 41  2  0  0  0  0
 55 43  2  0  0  0  0
 52 45  1  0  0  0  0
  1 77  1  0  0  0  0
 24 78  1  0  0  0  0
 25 79  1  0  0  0  0
 26 80  1  0  0  0  0
 27 81  1  0  0  0  0
 29 82  1  0  0  0  0
 29 83  1  0  0  0  0
 30 84  1  0  0  0  0
 30 85  1  0  0  0  0
 30 86  1  0  0  0  0
 47 87  1  0  0  0  0
 47 88  1  0  0  0  0
 48 89  1  0  0  0  0
 48 90  1  0  0  0  0
 48 91  1  0  0  0  0
 49 92  1  0  0  0  0
 50 93  1  0  0  0  0
 51 94  1  0  0  0  0
 52 95  1  0  0  0  0
 64 96  1  0  0  0  0
 64 97  1  0  0  0  0
 65 98  1  0  0  0  0
 65 99  1  0  0  0  0
 65100  1  0  0  0  0
 66101  1  0  0  0  0
 66102  1  0  0  0  0
 67103  1  0  0  0  0
 67104  1  0  0  0  0
 67105  1  0  0  0  0
 68106  1  0  0  0  0
 75107  1  0  0  0  0
 75108  1  0  0  0  0
 76109  1  0  0  0  0
 76110  1  0  0  0  0
 76111  1  0  0  0  0
M  END
