
  xtb     02012220113D
 energy: -227.514489878097 gnorm: 0.000421950383 xtb: 6.4.1 (unknown)
121134  0     0  0            999 V2000
   -7.5692   -0.4968    4.1344 C   0  0  0  0  0  0  0  0  0  0  0  0
   -8.6656   -0.4750    3.3027 C   0  0  0  0  0  0  0  0  0  0  0  0
   -8.6558   -0.7408    1.8692 C   0  0  0  0  0  0  0  0  0  0  0  0
   -7.6933   -0.9755    1.1606 O   0  0  0  0  0  0  0  0  0  0  0  0
  -10.0713   -0.7002    1.4380 C   0  0  0  0  0  0  0  0  0  0  0  0
  -10.6023   -0.9674    0.1895 C   0  0  0  0  0  0  0  0  0  0  0  0
   -9.6016   -1.2521   -1.1626 Cl  0  0  0  0  0  0  0  0  0  0  0  0
  -11.9976   -1.0073    0.0576 C   0  0  0  0  0  0  0  0  0  0  0  0
  -12.7027   -1.2918   -1.4740 Cl  0  0  0  0  0  0  0  0  0  0  0  0
  -12.8080   -0.8622    1.1817 C   0  0  0  0  0  0  0  0  0  0  0  0
  -14.5032   -1.0209    1.0157 Cl  0  0  0  0  0  0  0  0  0  0  0  0
  -12.2609   -0.6032    2.4497 C   0  0  0  0  0  0  0  0  0  0  0  0
  -13.3122   -0.6281    3.8044 Cl  0  0  0  0  0  0  0  0  0  0  0  0
  -10.8856   -0.4410    2.5600 C   0  0  0  0  0  0  0  0  0  0  0  0
  -10.0173   -0.1325    3.6960 C   0  0  0  0  0  0  0  0  0  0  0  0
  -10.3778    0.5460    4.8335 C   0  0  0  0  0  0  0  0  0  0  0  0
  -11.5845    1.2561    5.0139 C   0  0  0  0  0  0  0  0  0  0  0  0
  -12.4710    1.9588    5.2089 N   0  0  0  0  0  0  0  0  0  0  0  0
   -9.5329    0.7881    5.9389 C   0  0  0  0  0  0  0  0  0  0  0  0
   -8.9352    1.0071    6.8953 N   0  0  0  0  0  0  0  0  0  0  0  0
   -6.2202   -0.7140    3.8569 C   0  0  0  0  0  0  0  0  0  0  0  0
   -5.2405   -0.6538    4.8688 C   0  0  0  0  0  0  0  0  0  0  0  0
   -5.5437   -0.4138    6.2863 C   0  0  0  0  0  0  0  0  0  0  0  0
   -5.1623    0.8065    6.8356 C   0  0  0  0  0  0  0  0  0  0  0  0
   -5.4519    1.1044    8.1525 C   0  0  0  0  0  0  0  0  0  0  0  0
   -6.1183    0.1768    8.9335 C   0  0  0  0  0  0  0  0  0  0  0  0
   -6.4742   -1.0469    8.3977 C   0  0  0  0  0  0  0  0  0  0  0  0
   -6.1980   -1.3641    7.0750 C   0  0  0  0  0  0  0  0  0  0  0  0
   -6.5104   -2.7386    6.5523 C   0  0  0  0  0  0  0  0  0  0  0  0
   -5.2661   -3.6259    6.6352 C   0  0  0  0  0  0  0  0  0  0  0  0
   -3.9603   -0.7666    4.3491 C   0  0  0  0  0  0  0  0  0  0  0  0
   -2.3718   -0.7028    5.0884 S   0  0  0  0  0  0  0  0  0  0  0  0
   -1.6740   -0.8965    3.5166 C   0  0  0  0  0  0  0  0  0  0  0  0
   -0.4115   -0.8967    2.9126 C   0  0  0  0  0  0  0  0  0  0  0  0
    0.8685   -0.6454    3.4555 C   0  0  0  0  0  0  0  0  0  0  0  0
    1.9809   -0.5040    2.5636 C   0  0  0  0  0  0  0  0  0  0  0  0
    3.1024   -0.2004    3.1977 N   0  0  0  0  0  0  0  0  0  0  0  0
    2.7866   -0.1088    4.7826 S   0  0  0  0  0  0  0  0  0  0  0  0
    1.2047   -0.4475    4.7202 N   0  0  0  0  0  0  0  0  0  0  0  0
    1.7825   -0.7338    1.1841 C   0  0  0  0  0  0  0  0  0  0  0  0
    2.6870   -0.7229    0.1132 C   0  0  0  0  0  0  0  0  0  0  0  0
    4.3492   -0.3597   -0.1965 S   0  0  0  0  0  0  0  0  0  0  0  0
    4.0927   -0.7340   -1.8862 C   0  0  0  0  0  0  0  0  0  0  0  0
    4.9409   -0.7179   -3.0051 C   0  0  0  0  0  0  0  0  0  0  0  0
    6.3846   -0.4626   -2.9666 C   0  0  0  0  0  0  0  0  0  0  0  0
    6.9437    0.6975   -2.4182 C   0  0  0  0  0  0  0  0  0  0  0  0
    6.1038    1.8222   -1.8791 C   0  0  0  0  0  0  0  0  0  0  0  0
    6.5221    3.1907   -2.4154 C   0  0  0  0  0  0  0  0  0  0  0  0
    8.3303    0.8069   -2.4022 C   0  0  0  0  0  0  0  0  0  0  0  0
    9.1475   -0.1729   -2.9306 C   0  0  0  0  0  0  0  0  0  0  0  0
    8.5865   -1.3115   -3.4847 C   0  0  0  0  0  0  0  0  0  0  0  0
    7.2149   -1.4530   -3.4939 C   0  0  0  0  0  0  0  0  0  0  0  0
    4.2744   -1.1625   -4.1449 C   0  0  0  0  0  0  0  0  0  0  0  0
    2.6062   -1.6153   -3.8141 S   0  0  0  0  0  0  0  0  0  0  0  0
    2.7871   -1.1652   -2.1609 C   0  0  0  0  0  0  0  0  0  0  0  0
    1.9782   -1.1342   -1.0205 C   0  0  0  0  0  0  0  0  0  0  0  0
    0.6693   -1.3716   -0.6987 N   0  0  0  0  0  0  0  0  0  0  0  0
    0.5132   -1.1075    0.6536 C   0  0  0  0  0  0  0  0  0  0  0  0
   -0.6184   -1.0777    1.5113 C   0  0  0  0  0  0  0  0  0  0  0  0
   -1.9793   -1.1618    1.2840 N   0  0  0  0  0  0  0  0  0  0  0  0
   -2.6170   -1.0333    2.4885 C   0  0  0  0  0  0  0  0  0  0  0  0
   -3.9313   -0.9501    2.9523 C   0  0  0  0  0  0  0  0  0  0  0  0
   -5.5126   -0.9689    2.2630 S   0  0  0  0  0  0  0  0  0  0  0  0
   -2.7388   -1.0349    0.0604 C   0  0  0  0  0  0  0  0  0  0  0  0
   -2.4898    0.3100   -0.6170 C   0  0  0  0  0  0  0  0  0  0  0  0
   -0.1504   -2.1616   -1.5921 C   0  0  0  0  0  0  0  0  0  0  0  0
   -0.4348   -3.5449   -1.0133 C   0  0  0  0  0  0  0  0  0  0  0  0
    4.7629   -1.3763   -5.4547 C   0  0  0  0  0  0  0  0  0  0  0  0
    5.7104   -0.6230   -6.0877 C   0  0  0  0  0  0  0  0  0  0  0  0
    6.0165    0.7856   -5.7313 C   0  0  0  0  0  0  0  0  0  0  0  0
    5.5387    1.4207   -4.8183 O   0  0  0  0  0  0  0  0  0  0  0  0
    6.8922    1.2758   -6.8063 C   0  0  0  0  0  0  0  0  0  0  0  0
    7.4510    2.5472   -6.9596 C   0  0  0  0  0  0  0  0  0  0  0  0
    7.2016    3.4551   -6.0014 O   0  0  0  0  0  0  0  0  0  0  0  0
    7.7465    4.7489   -6.1176 C   0  0  0  0  0  0  0  0  0  0  0  0
    8.2334    2.7676   -8.0995 C   0  0  0  0  0  0  0  0  0  0  0  0
    8.4276    1.7629   -9.0306 C   0  0  0  0  0  0  0  0  0  0  0  0
    7.8727    0.4990   -8.8792 C   0  0  0  0  0  0  0  0  0  0  0  0
    7.1034    0.2601   -7.7536 C   0  0  0  0  0  0  0  0  0  0  0  0
    6.4061   -0.9451   -7.3086 C   0  0  0  0  0  0  0  0  0  0  0  0
    6.4988   -2.1891   -7.8784 C   0  0  0  0  0  0  0  0  0  0  0  0
    7.2238   -2.4765   -9.0521 C   0  0  0  0  0  0  0  0  0  0  0  0
    7.7898   -2.7735  -10.0061 N   0  0  0  0  0  0  0  0  0  0  0  0
    5.9117   -3.3497   -7.3336 C   0  0  0  0  0  0  0  0  0  0  0  0
    5.4824   -4.3329   -6.9235 N   0  0  0  0  0  0  0  0  0  0  0  0
   -7.7567   -0.3180    5.1866 H   0  0  0  0  0  0  0  0  0  0  0  0
   -4.6522    1.5266    6.2125 H   0  0  0  0  0  0  0  0  0  0  0  0
   -5.1629    2.0591    8.5642 H   0  0  0  0  0  0  0  0  0  0  0  0
   -6.3577    0.4046    9.9610 H   0  0  0  0  0  0  0  0  0  0  0  0
   -6.9817   -1.7743    9.0147 H   0  0  0  0  0  0  0  0  0  0  0  0
   -7.3089   -3.1811    7.1506 H   0  0  0  0  0  0  0  0  0  0  0  0
   -6.8495   -2.6964    5.5161 H   0  0  0  0  0  0  0  0  0  0  0  0
   -4.4619   -3.2108    6.0317 H   0  0  0  0  0  0  0  0  0  0  0  0
   -5.4894   -4.6273    6.2746 H   0  0  0  0  0  0  0  0  0  0  0  0
   -4.9192   -3.6950    7.6635 H   0  0  0  0  0  0  0  0  0  0  0  0
    5.0634    1.6614   -2.1570 H   0  0  0  0  0  0  0  0  0  0  0  0
    6.1725    1.8221   -0.7863 H   0  0  0  0  0  0  0  0  0  0  0  0
    5.8278    3.9484   -2.0585 H   0  0  0  0  0  0  0  0  0  0  0  0
    6.4945    3.1747   -3.5011 H   0  0  0  0  0  0  0  0  0  0  0  0
    7.5212    3.4667   -2.0885 H   0  0  0  0  0  0  0  0  0  0  0  0
    8.7812    1.6835   -1.9628 H   0  0  0  0  0  0  0  0  0  0  0  0
   10.2207   -0.0528   -2.9075 H   0  0  0  0  0  0  0  0  0  0  0  0
    9.2128   -2.0889   -3.8965 H   0  0  0  0  0  0  0  0  0  0  0  0
    6.7710   -2.3518   -3.8992 H   0  0  0  0  0  0  0  0  0  0  0  0
   -2.5277   -1.8696   -0.6079 H   0  0  0  0  0  0  0  0  0  0  0  0
   -3.7928   -1.1058    0.3394 H   0  0  0  0  0  0  0  0  0  0  0  0
   -2.8056    1.1181    0.0386 H   0  0  0  0  0  0  0  0  0  0  0  0
   -1.4360    0.4504   -0.8458 H   0  0  0  0  0  0  0  0  0  0  0  0
   -3.0628    0.3707   -1.5381 H   0  0  0  0  0  0  0  0  0  0  0  0
    0.4188   -2.2705   -2.5185 H   0  0  0  0  0  0  0  0  0  0  0  0
   -1.0702   -1.6330   -1.8436 H   0  0  0  0  0  0  0  0  0  0  0  0
    0.4979   -4.0837   -0.8636 H   0  0  0  0  0  0  0  0  0  0  0  0
   -0.9439   -3.4763   -0.0547 H   0  0  0  0  0  0  0  0  0  0  0  0
   -1.0551   -4.1129   -1.7013 H   0  0  0  0  0  0  0  0  0  0  0  0
    4.3027   -2.1974   -5.9931 H   0  0  0  0  0  0  0  0  0  0  0  0
    8.8405    4.7241   -6.1234 H   0  0  0  0  0  0  0  0  0  0  0  0
    7.4027    5.2888   -5.2370 H   0  0  0  0  0  0  0  0  0  0  0  0
    7.3862    5.2567   -7.0175 H   0  0  0  0  0  0  0  0  0  0  0  0
    8.6932    3.7287   -8.2666 H   0  0  0  0  0  0  0  0  0  0  0  0
    9.0301    1.9705   -9.9022 H   0  0  0  0  0  0  0  0  0  0  0  0
    8.0385   -0.2587   -9.6263 H   0  0  0  0  0  0  0  0  0  0  0  0
  1  2  2  0  0  0  0
  2  3  1  0  0  0  0
  3  4  2  0  0  0  0
  3  5  1  0  0  0  0
  5  6  2  0  0  0  0
  6  7  1  0  0  0  0
  6  8  1  0  0  0  0
  8  9  1  0  0  0  0
  8 10  2  0  0  0  0
 10 11  1  0  0  0  0
 10 12  1  0  0  0  0
 12 13  1  0  0  0  0
 12 14  2  0  0  0  0
 14 15  1  0  0  0  0
 15 16  2  0  0  0  0
 16 17  1  0  0  0  0
 17 18  3  0  0  0  0
 16 19  1  0  0  0  0
 19 20  3  0  0  0  0
  1 21  1  0  0  0  0
 21 22  2  0  0  0  0
 22 23  1  0  0  0  0
 23 24  2  0  0  0  0
 24 25  1  0  0  0  0
 25 26  2  0  0  0  0
 26 27  1  0  0  0  0
 27 28  2  0  0  0  0
 28 29  1  0  0  0  0
 29 30  1  0  0  0  0
 22 31  1  0  0  0  0
 31 32  1  0  0  0  0
 32 33  1  0  0  0  0
 33 34  1  0  0  0  0
 34 35  1  0  0  0  0
 35 36  1  0  0  0  0
 36 37  2  0  0  0  0
 37 38  1  0  0  0  0
 38 39  1  0  0  0  0
 36 40  1  0  0  0  0
 40 41  1  0  0  0  0
 41 42  1  0  0  0  0
 42 43  1  0  0  0  0
 43 44  1  0  0  0  0
 44 45  1  0  0  0  0
 45 46  2  0  0  0  0
 46 47  1  0  0  0  0
 47 48  1  0  0  0  0
 46 49  1  0  0  0  0
 49 50  2  0  0  0  0
 50 51  1  0  0  0  0
 51 52  2  0  0  0  0
 44 53  2  0  0  0  0
 53 54  1  0  0  0  0
 54 55  1  0  0  0  0
 55 56  1  0  0  0  0
 56 57  1  0  0  0  0
 57 58  1  0  0  0  0
 58 59  1  0  0  0  0
 59 60  1  0  0  0  0
 60 61  1  0  0  0  0
 61 62  1  0  0  0  0
 62 63  1  0  0  0  0
 60 64  1  0  0  0  0
 64 65  1  0  0  0  0
 57 66  1  0  0  0  0
 66 67  1  0  0  0  0
 53 68  1  0  0  0  0
 68 69  2  0  0  0  0
 69 70  1  0  0  0  0
 70 71  2  0  0  0  0
 70 72  1  0  0  0  0
 72 73  2  0  0  0  0
 73 74  1  0  0  0  0
 74 75  1  0  0  0  0
 73 76  1  0  0  0  0
 76 77  2  0  0  0  0
 77 78  1  0  0  0  0
 78 79  2  0  0  0  0
 79 80  1  0  0  0  0
 80 81  2  0  0  0  0
 81 82  1  0  0  0  0
 82 83  3  0  0  0  0
 81 84  1  0  0  0  0
 84 85  3  0  0  0  0
 15  2  1  0  0  0  0
 63 21  1  0  0  0  0
 80 69  1  0  0  0  0
 14  5  1  0  0  0  0
 28 23  1  0  0  0  0
 62 31  2  0  0  0  0
 79 72  1  0  0  0  0
 61 33  2  0  0  0  0
 59 34  2  0  0  0  0
 39 35  2  0  0  0  0
 58 40  2  0  0  0  0
 56 41  2  0  0  0  0
 55 43  2  0  0  0  0
 52 45  1  0  0  0  0
  1 86  1  0  0  0  0
 24 87  1  0  0  0  0
 25 88  1  0  0  0  0
 26 89  1  0  0  0  0
 27 90  1  0  0  0  0
 29 91  1  0  0  0  0
 29 92  1  0  0  0  0
 30 93  1  0  0  0  0
 30 94  1  0  0  0  0
 30 95  1  0  0  0  0
 47 96  1  0  0  0  0
 47 97  1  0  0  0  0
 48 98  1  0  0  0  0
 48 99  1  0  0  0  0
 48100  1  0  0  0  0
 49101  1  0  0  0  0
 50102  1  0  0  0  0
 51103  1  0  0  0  0
 52104  1  0  0  0  0
 64105  1  0  0  0  0
 64106  1  0  0  0  0
 65107  1  0  0  0  0
 65108  1  0  0  0  0
 65109  1  0  0  0  0
 66110  1  0  0  0  0
 66111  1  0  0  0  0
 67112  1  0  0  0  0
 67113  1  0  0  0  0
 67114  1  0  0  0  0
 68115  1  0  0  0  0
 75116  1  0  0  0  0
 75117  1  0  0  0  0
 75118  1  0  0  0  0
 76119  1  0  0  0  0
 77120  1  0  0  0  0
 78121  1  0  0  0  0
M  END
