
  xtb     02012219173D
 energy: -238.312874996368 gnorm: 0.000518527989 xtb: 6.4.1 (unknown)
130146  0     0  0            999 V2000
   -5.8018   -4.8364    3.5603 C   0  0  0  0  0  0  0  0  0  0  0  0
   -5.6557   -4.4740    4.8688 C   0  0  0  0  0  0  0  0  0  0  0  0
   -6.7547   -4.7074    5.8300 C   0  0  0  0  0  0  0  0  0  0  0  0
   -7.7120   -5.4290    5.6838 O   0  0  0  0  0  0  0  0  0  0  0  0
   -6.4565   -3.8043    6.9733 C   0  0  0  0  0  0  0  0  0  0  0  0
   -7.2406   -3.5031    8.0730 C   0  0  0  0  0  0  0  0  0  0  0  0
   -8.7167   -4.3100    8.3591 Cl  0  0  0  0  0  0  0  0  0  0  0  0
   -6.7956   -2.5050    8.9529 C   0  0  0  0  0  0  0  0  0  0  0  0
   -7.7213   -2.1177   10.3375 Cl  0  0  0  0  0  0  0  0  0  0  0  0
   -5.6217   -1.8027    8.6840 C   0  0  0  0  0  0  0  0  0  0  0  0
   -5.1479   -0.5289    9.7225 Cl  0  0  0  0  0  0  0  0  0  0  0  0
   -4.8281   -2.1157    7.5694 C   0  0  0  0  0  0  0  0  0  0  0  0
   -3.4764   -1.1239    7.2072 Cl  0  0  0  0  0  0  0  0  0  0  0  0
   -5.2232   -3.1589    6.7467 C   0  0  0  0  0  0  0  0  0  0  0  0
   -4.6053   -3.7671    5.5688 C   0  0  0  0  0  0  0  0  0  0  0  0
   -3.2672   -3.9759    5.3635 C   0  0  0  0  0  0  0  0  0  0  0  0
   -2.8007   -4.8507    4.3565 C   0  0  0  0  0  0  0  0  0  0  0  0
   -2.3938   -5.5941    3.5826 N   0  0  0  0  0  0  0  0  0  0  0  0
   -2.2118   -3.5538    6.1971 C   0  0  0  0  0  0  0  0  0  0  0  0
   -1.2881   -3.3045    6.8309 N   0  0  0  0  0  0  0  0  0  0  0  0
   -5.1221   -4.3683    2.4243 C   0  0  0  0  0  0  0  0  0  0  0  0
   -5.3283   -4.8407    1.1259 C   0  0  0  0  0  0  0  0  0  0  0  0
   -6.1916   -5.9748    0.7759 C   0  0  0  0  0  0  0  0  0  0  0  0
   -7.2946   -5.7174   -0.0344 C   0  0  0  0  0  0  0  0  0  0  0  0
   -8.1519   -6.7360   -0.4014 C   0  0  0  0  0  0  0  0  0  0  0  0
   -7.9024   -8.0270    0.0309 C   0  0  0  0  0  0  0  0  0  0  0  0
   -6.7933   -8.2889    0.8146 C   0  0  0  0  0  0  0  0  0  0  0  0
   -5.9218   -7.2793    1.2026 C   0  0  0  0  0  0  0  0  0  0  0  0
   -4.6726   -7.6244    1.9610 C   0  0  0  0  0  0  0  0  0  0  0  0
   -3.4730   -7.6781    1.0129 C   0  0  0  0  0  0  0  0  0  0  0  0
   -4.6409   -4.0730    0.1846 C   0  0  0  0  0  0  0  0  0  0  0  0
   -4.5193   -4.1689   -1.5570 S   0  0  0  0  0  0  0  0  0  0  0  0
   -3.4606   -2.8027   -1.5312 C   0  0  0  0  0  0  0  0  0  0  0  0
   -2.7525   -1.9929   -2.4341 C   0  0  0  0  0  0  0  0  0  0  0  0
   -2.7495   -1.8903   -3.8452 C   0  0  0  0  0  0  0  0  0  0  0  0
   -2.0232   -0.8146   -4.4691 C   0  0  0  0  0  0  0  0  0  0  0  0
   -2.1838   -0.7971   -5.7822 N   0  0  0  0  0  0  0  0  0  0  0  0
   -3.1503   -2.0241   -6.2030 S   0  0  0  0  0  0  0  0  0  0  0  0
   -3.4086   -2.6279   -4.7236 N   0  0  0  0  0  0  0  0  0  0  0  0
   -1.1955    0.0126   -3.6736 C   0  0  0  0  0  0  0  0  0  0  0  0
   -0.2558    1.0103   -3.9792 C   0  0  0  0  0  0  0  0  0  0  0  0
    0.3093    1.8986   -5.3533 S   0  0  0  0  0  0  0  0  0  0  0  0
    1.4686    2.7029   -4.3135 C   0  0  0  0  0  0  0  0  0  0  0  0
    2.4572    3.6472   -4.5609 C   0  0  0  0  0  0  0  0  0  0  0  0
    2.7007    4.2731   -5.8698 C   0  0  0  0  0  0  0  0  0  0  0  0
    3.8421    3.9899   -6.6237 C   0  0  0  0  0  0  0  0  0  0  0  0
    4.8258    2.9374   -6.1948 C   0  0  0  0  0  0  0  0  0  0  0  0
    4.3303    1.5532   -6.6201 C   0  0  0  0  0  0  0  0  0  0  0  0
    4.0129    4.6436   -7.8360 C   0  0  0  0  0  0  0  0  0  0  0  0
    3.0831    5.5564   -8.2975 C   0  0  0  0  0  0  0  0  0  0  0  0
    1.9449    5.8169   -7.5550 C   0  0  0  0  0  0  0  0  0  0  0  0
    1.7545    5.1741   -6.3475 C   0  0  0  0  0  0  0  0  0  0  0  0
    3.1725    3.9656   -3.3946 C   0  0  0  0  0  0  0  0  0  0  0  0
    2.6033    3.0638   -1.9938 S   0  0  0  0  0  0  0  0  0  0  0  0
    1.4112    2.2885   -2.9717 C   0  0  0  0  0  0  0  0  0  0  0  0
    0.4114    1.3298   -2.7865 C   0  0  0  0  0  0  0  0  0  0  0  0
   -0.1054    0.5970   -1.7476 N   0  0  0  0  0  0  0  0  0  0  0  0
   -1.1115   -0.1904   -2.2694 C   0  0  0  0  0  0  0  0  0  0  0  0
   -2.0236   -1.0656   -1.6431 C   0  0  0  0  0  0  0  0  0  0  0  0
   -2.3365   -1.2453   -0.3096 N   0  0  0  0  0  0  0  0  0  0  0  0
   -3.2050   -2.3071   -0.2418 C   0  0  0  0  0  0  0  0  0  0  0  0
   -3.8901   -3.0232    0.7387 C   0  0  0  0  0  0  0  0  0  0  0  0
   -4.0555   -2.9626    2.4533 S   0  0  0  0  0  0  0  0  0  0  0  0
   -2.3422   -0.2201    0.7153 C   0  0  0  0  0  0  0  0  0  0  0  0
   -3.7324    0.3956    0.8710 C   0  0  0  0  0  0  0  0  0  0  0  0
    0.7025    0.3048   -0.5795 C   0  0  0  0  0  0  0  0  0  0  0  0
    1.9923   -0.4164   -0.9685 C   0  0  0  0  0  0  0  0  0  0  0  0
    4.2015    4.9172   -3.4057 C   0  0  0  0  0  0  0  0  0  0  0  0
    5.0609    5.3104   -2.4137 C   0  0  0  0  0  0  0  0  0  0  0  0
    5.0942    4.7832   -1.0466 C   0  0  0  0  0  0  0  0  0  0  0  0
    4.3340    3.9693   -0.5471 O   0  0  0  0  0  0  0  0  0  0  0  0
    6.2377    5.4274   -0.3816 C   0  0  0  0  0  0  0  0  0  0  0  0
    6.6893    5.2007    0.9169 C   0  0  0  0  0  0  0  0  0  0  0  0
    7.8016    5.9321    1.2573 C   0  0  0  0  0  0  0  0  0  0  0  0
    8.4190    6.8251    0.3715 C   0  0  0  0  0  0  0  0  0  0  0  0
    7.9833    7.0580   -0.9117 C   0  0  0  0  0  0  0  0  0  0  0  0
    6.8525    6.3229   -1.2806 C   0  0  0  0  0  0  0  0  0  0  0  0
    6.1275    6.2828   -2.5504 C   0  0  0  0  0  0  0  0  0  0  0  0
    6.4226    7.0359   -3.6579 C   0  0  0  0  0  0  0  0  0  0  0  0
    5.7421    6.9997   -4.8936 C   0  0  0  0  0  0  0  0  0  0  0  0
    5.2575    7.0410   -5.9347 N   0  0  0  0  0  0  0  0  0  0  0  0
    7.4683    7.9807   -3.7234 C   0  0  0  0  0  0  0  0  0  0  0  0
    8.2967    8.7660   -3.8491 N   0  0  0  0  0  0  0  0  0  0  0  0
    9.4846    7.2041    1.3698 C   0  0  0  0  0  0  0  0  0  0  0  0
    9.3177    8.5627    2.0823 C   0  0  0  0  0  0  0  0  0  0  0  0
   10.2018    8.4406    3.3025 C   0  0  0  0  0  0  0  0  0  0  0  0
    9.6174    7.5949    4.1415 C   0  0  0  0  0  0  0  0  0  0  0  0
    8.3282    7.1309    3.5025 C   0  0  0  0  0  0  0  0  0  0  0  0
    7.9398    8.4027    2.7376 C   0  0  0  0  0  0  0  0  0  0  0  0
    8.7961    6.2080    2.3574 C   0  0  0  0  0  0  0  0  0  0  0  0
   -6.6355   -5.5010    3.3528 H   0  0  0  0  0  0  0  0  0  0  0  0
   -7.4820   -4.7051   -0.3621 H   0  0  0  0  0  0  0  0  0  0  0  0
   -9.0084   -6.5224   -1.0225 H   0  0  0  0  0  0  0  0  0  0  0  0
   -8.5661   -8.8311   -0.2495 H   0  0  0  0  0  0  0  0  0  0  0  0
   -6.5931   -9.3015    1.1339 H   0  0  0  0  0  0  0  0  0  0  0  0
   -4.7973   -8.5976    2.4384 H   0  0  0  0  0  0  0  0  0  0  0  0
   -4.4663   -6.8923    2.7418 H   0  0  0  0  0  0  0  0  0  0  0  0
   -3.6283   -8.4287    0.2409 H   0  0  0  0  0  0  0  0  0  0  0  0
   -3.3258   -6.7144    0.5313 H   0  0  0  0  0  0  0  0  0  0  0  0
   -2.5727   -7.9218    1.5696 H   0  0  0  0  0  0  0  0  0  0  0  0
    5.7926    3.1341   -6.6617 H   0  0  0  0  0  0  0  0  0  0  0  0
    4.9653    2.9509   -5.1124 H   0  0  0  0  0  0  0  0  0  0  0  0
    3.3761    1.3288   -6.1486 H   0  0  0  0  0  0  0  0  0  0  0  0
    5.0478    0.7877   -6.3337 H   0  0  0  0  0  0  0  0  0  0  0  0
    4.1933    1.5165   -7.6983 H   0  0  0  0  0  0  0  0  0  0  0  0
    4.8958    4.4352   -8.4224 H   0  0  0  0  0  0  0  0  0  0  0  0
    3.2459    6.0626   -9.2367 H   0  0  0  0  0  0  0  0  0  0  0  0
    1.2095    6.5224   -7.9108 H   0  0  0  0  0  0  0  0  0  0  0  0
    0.8748    5.3766   -5.7535 H   0  0  0  0  0  0  0  0  0  0  0  0
   -2.0248   -0.6689    1.6619 H   0  0  0  0  0  0  0  0  0  0  0  0
   -1.6474    0.5688    0.4339 H   0  0  0  0  0  0  0  0  0  0  0  0
   -3.6948    1.1933    1.6073 H   0  0  0  0  0  0  0  0  0  0  0  0
   -4.4546   -0.3449    1.2032 H   0  0  0  0  0  0  0  0  0  0  0  0
   -4.0674    0.8103   -0.0775 H   0  0  0  0  0  0  0  0  0  0  0  0
    0.9431    1.2466   -0.0772 H   0  0  0  0  0  0  0  0  0  0  0  0
    0.1393   -0.3385    0.0938 H   0  0  0  0  0  0  0  0  0  0  0  0
    2.5412   -0.6827   -0.0698 H   0  0  0  0  0  0  0  0  0  0  0  0
    1.7636   -1.3251   -1.5216 H   0  0  0  0  0  0  0  0  0  0  0  0
    2.6250    0.2192   -1.5809 H   0  0  0  0  0  0  0  0  0  0  0  0
    4.3261    5.3831   -4.3763 H   0  0  0  0  0  0  0  0  0  0  0  0
    6.1875    4.4977    1.5633 H   0  0  0  0  0  0  0  0  0  0  0  0
    8.4767    7.7417   -1.5816 H   0  0  0  0  0  0  0  0  0  0  0  0
   10.5102    7.0083    1.0628 H   0  0  0  0  0  0  0  0  0  0  0  0
    9.4743    9.4314    1.4488 H   0  0  0  0  0  0  0  0  0  0  0  0
   11.1566    8.9225    3.4021 H   0  0  0  0  0  0  0  0  0  0  0  0
    9.9865    7.2289    5.0816 H   0  0  0  0  0  0  0  0  0  0  0  0
    7.5835    6.6957    4.1635 H   0  0  0  0  0  0  0  0  0  0  0  0
    7.1252    8.2634    2.0293 H   0  0  0  0  0  0  0  0  0  0  0  0
    7.7039    9.2288    3.4063 H   0  0  0  0  0  0  0  0  0  0  0  0
    9.3634    5.3481    2.7090 H   0  0  0  0  0  0  0  0  0  0  0  0
  1  2  2  0  0  0  0
  2  3  1  0  0  0  0
  3  4  2  0  0  0  0
  3  5  1  0  0  0  0
  5  6  2  0  0  0  0
  6  7  1  0  0  0  0
  6  8  1  0  0  0  0
  8  9  1  0  0  0  0
  8 10  2  0  0  0  0
 10 11  1  0  0  0  0
 10 12  1  0  0  0  0
 12 13  1  0  0  0  0
 12 14  2  0  0  0  0
 14 15  1  0  0  0  0
 15 16  2  0  0  0  0
 16 17  1  0  0  0  0
 17 18  3  0  0  0  0
 16 19  1  0  0  0  0
 19 20  3  0  0  0  0
  1 21  1  0  0  0  0
 21 22  2  0  0  0  0
 22 23  1  0  0  0  0
 23 24  2  0  0  0  0
 24 25  1  0  0  0  0
 25 26  2  0  0  0  0
 26 27  1  0  0  0  0
 27 28  2  0  0  0  0
 28 29  1  0  0  0  0
 29 30  1  0  0  0  0
 22 31  1  0  0  0  0
 31 32  1  0  0  0  0
 32 33  1  0  0  0  0
 33 34  1  0  0  0  0
 34 35  1  0  0  0  0
 35 36  1  0  0  0  0
 36 37  2  0  0  0  0
 37 38  1  0  0  0  0
 38 39  1  0  0  0  0
 36 40  1  0  0  0  0
 40 41  1  0  0  0  0
 41 42  1  0  0  0  0
 42 43  1  0  0  0  0
 43 44  1  0  0  0  0
 44 45  1  0  0  0  0
 45 46  2  0  0  0  0
 46 47  1  0  0  0  0
 47 48  1  0  0  0  0
 46 49  1  0  0  0  0
 49 50  2  0  0  0  0
 50 51  1  0  0  0  0
 51 52  2  0  0  0  0
 44 53  2  0  0  0  0
 53 54  1  0  0  0  0
 54 55  1  0  0  0  0
 55 56  1  0  0  0  0
 56 57  1  0  0  0  0
 57 58  1  0  0  0  0
 58 59  1  0  0  0  0
 59 60  1  0  0  0  0
 60 61  1  0  0  0  0
 61 62  1  0  0  0  0
 62 63  1  0  0  0  0
 60 64  1  0  0  0  0
 64 65  1  0  0  0  0
 57 66  1  0  0  0  0
 66 67  1  0  0  0  0
 53 68  1  0  0  0  0
 68 69  2  0  0  0  0
 69 70  1  0  0  0  0
 70 71  2  0  0  0  0
 70 72  1  0  0  0  0
 72 73  2  0  0  0  0
 73 74  1  0  0  0  0
 74 75  2  0  0  0  0
 75 76  1  0  0  0  0
 76 77  2  0  0  0  0
 77 78  1  0  0  0  0
 78 79  2  0  0  0  0
 79 80  1  0  0  0  0
 80 81  3  0  0  0  0
 79 82  1  0  0  0  0
 82 83  3  0  0  0  0
 75 84  1  0  0  0  0
 84 85  1  0  0  0  0
 85 86  1  0  0  0  0
 86 87  2  0  0  0  0
 87 88  1  0  0  0  0
 88 89  1  0  0  0  0
 88 90  1  0  0  0  0
 15  2  1  0  0  0  0
 63 21  1  0  0  0  0
 78 69  1  0  0  0  0
 90 84  1  0  0  0  0
 14  5  1  0  0  0  0
 28 23  1  0  0  0  0
 62 31  2  0  0  0  0
 77 72  1  0  0  0  0
 89 85  1  0  0  0  0
 61 33  2  0  0  0  0
 90 74  1  0  0  0  0
 59 34  2  0  0  0  0
 39 35  2  0  0  0  0
 58 40  2  0  0  0  0
 56 41  2  0  0  0  0
 55 43  2  0  0  0  0
 52 45  1  0  0  0  0
  1 91  1  0  0  0  0
 24 92  1  0  0  0  0
 25 93  1  0  0  0  0
 26 94  1  0  0  0  0
 27 95  1  0  0  0  0
 29 96  1  0  0  0  0
 29 97  1  0  0  0  0
 30 98  1  0  0  0  0
 30 99  1  0  0  0  0
 30100  1  0  0  0  0
 47101  1  0  0  0  0
 47102  1  0  0  0  0
 48103  1  0  0  0  0
 48104  1  0  0  0  0
 48105  1  0  0  0  0
 49106  1  0  0  0  0
 50107  1  0  0  0  0
 51108  1  0  0  0  0
 52109  1  0  0  0  0
 64110  1  0  0  0  0
 64111  1  0  0  0  0
 65112  1  0  0  0  0
 65113  1  0  0  0  0
 65114  1  0  0  0  0
 66115  1  0  0  0  0
 66116  1  0  0  0  0
 67117  1  0  0  0  0
 67118  1  0  0  0  0
 67119  1  0  0  0  0
 68120  1  0  0  0  0
 73121  1  0  0  0  0
 76122  1  0  0  0  0
 84123  1  0  0  0  0
 85124  1  0  0  0  0
 86125  1  0  0  0  0
 87126  1  0  0  0  0
 88127  1  0  0  0  0
 89128  1  0  0  0  0
 89129  1  0  0  0  0
 90130  1  0  0  0  0
M  END
