107

C          1.85420        0.98450        8.29530
C          1.03000        1.76490        9.07090
C          0.38820        3.01020        8.61860
O          0.25690        3.42490        7.48600
C          0.00900        3.71930        9.86630
C         -0.54010        4.98150       10.00170
Cl        -0.99010        5.90830        8.64170
C         -0.72150        5.49340       11.29430
Cl        -1.43100        7.03460       11.51030
C         -0.29080        4.76420       12.40060
Cl        -0.43820        5.44660       13.96210
C          0.27290        3.48520       12.25740
Cl         0.92230        2.71930       13.64770
C          0.36140        2.93610       10.98550
C          0.84110        1.64500       10.49980
C          0.87800        0.44450       11.16050
C          1.24210       -0.75780       10.51060
N          1.50100       -1.77000       10.03540
C          0.40040        0.16260       12.45690
N         -0.03170       -0.20140       13.45610
C          1.91790        1.00240        6.89360
S          3.49590        0.71380        6.14390
C          2.81590        1.05800        4.61410
C          3.19610        1.08110        3.26770
C          4.36580        0.61890        2.62180
C          4.33950        0.43460        1.19770
N          5.45430       -0.11130        0.73920
S          6.45620       -0.36000        1.98550
N          5.50150        0.20960        3.16250
C          3.20890        0.87330        0.47240
C          2.89150        0.82660       -0.89550
S          3.49480        0.13350       -2.35960
C          2.09570        0.75040       -3.20760
C          1.61790        0.56690       -4.51580
C          2.39410       -0.11190       -5.59390
C          3.74140        0.57250       -5.82490
C          0.39650        1.19330       -4.68830
S         -0.12610        2.07640       -3.25380
C          1.24430        1.49680       -2.38490
C          1.68820        1.52010       -1.06000
N          1.23500        1.98410        0.14980
C          2.12960        1.54120        1.11590
C          2.04600        1.48480        2.53070
N          0.99040        1.61810        3.40470
C          1.43950        1.34370        4.67620
C          0.89820        1.23930        5.96620
C         -0.54390        1.02360        6.30380
C         -0.96770       -0.37410        5.83480
C         -0.37160        2.01350        3.14120
C         -0.62790        3.45070        3.59920
C          0.43650        3.19470        0.16840
C          1.16090        4.34700       -0.52800
C         -0.49080        1.18260       -5.79720
C         -0.82570        0.06690       -6.50240
C         -0.63530       -1.31650       -5.99420
O          0.07900       -1.68630       -5.08740
C         -1.59420       -2.14100       -6.75300
C         -1.88400       -3.48630       -6.53740
C         -2.85600       -3.98930       -7.36810
C         -3.49750       -3.21280       -8.34330
C         -3.22310       -1.88440       -8.56620
C         -2.23650       -1.35310       -7.73060
C         -1.71470        0.00540       -7.64600
C         -1.94520        1.03030       -8.52380
C         -1.32490        2.29390       -8.42210
N         -0.83090        3.32990       -8.39830
C         -2.78120        0.93680       -9.65500
N         -3.45190        0.91760      -10.58640
C         -4.36510       -4.35940       -8.79810
C         -3.98140       -5.07860      -10.11480
C         -2.49350       -4.89640      -10.28520
C         -1.88710       -5.63130       -9.36250
C         -2.95410       -6.32340       -8.55080
C         -4.02280       -6.53820       -9.63440
C         -3.65040       -5.22370       -7.71180
H          2.60190        0.38090        8.79590
H          1.81830       -0.10370       -6.51980
H          2.55270       -1.15250       -5.30180
H          4.35610        0.53530       -4.92950
H          3.59410        1.61350       -6.10480
H          4.27430        0.07160       -6.62880
H         -0.68380        1.06870        7.38110
H         -1.17430        1.79060        5.85620
H         -0.77210       -0.52570        4.77550
H         -2.02950       -0.51980        6.01790
H         -0.41630       -1.13060        6.38860
H         -0.58150        1.87550        2.08070
H         -1.03410        1.34170        3.69070
H         -1.65470        3.73280        3.38210
H          0.03990        4.15330        3.10470
H         -0.45620        3.54100        4.66940
H         -0.51160        2.99210       -0.34010
H          0.24560        3.48790        1.19470
H          1.31880        4.13330       -1.58120
H          0.56360        5.25090       -0.44690
H          2.12690        4.52270       -0.05880
H         -1.00760        2.11280       -6.00550
H         -1.37210       -4.04710       -5.77110
H         -3.73300       -1.29210       -9.30810
H         -5.43890       -4.20910       -8.70520
H         -4.59840       -4.81410      -10.96920
H         -2.05080       -4.22800      -11.00010
H         -0.83590       -5.70010       -9.15210
H         -2.63660       -7.19270       -7.98090
H         -3.70820       -7.24330      -10.40210
H         -4.99130       -6.83650       -9.23530
H         -4.25750       -5.63660       -6.90830
