132

C         -5.55320        3.12800       -6.14060
C         -5.80110        2.01560       -6.91450
C         -5.16050        0.71460       -6.76570
O         -4.28560        0.39840       -5.97940
C         -5.80570       -0.17450       -7.75840
C         -5.61550       -1.52950       -7.95770
Cl        -4.39640       -2.38990       -7.13020
C         -6.46220       -2.19220       -8.85720
Cl        -6.24230       -3.85950       -9.16720
C         -7.51270       -1.50430       -9.46060
Cl        -8.59970       -2.35720      -10.46980
C         -7.70710       -0.12970       -9.24450
Cl        -9.13140        0.59210       -9.87090
C         -6.79500        0.55410       -8.45020
C         -6.69290        1.95860       -8.05430
C         -7.19370        3.03110       -8.75020
C         -7.17300        4.37350       -8.31500
N         -7.24590        5.48670       -8.04000
C         -7.66450        2.99140      -10.08040
N         -7.94380        3.08710      -11.18980
C         -4.70570        3.30570       -5.04810
C         -4.61900        4.54010       -4.37250
C         -5.30860        5.75810       -4.82140
C         -4.89200        6.35070       -6.01030
C         -5.49210        7.50710       -6.46730
C         -6.52160        8.07620       -5.73880
C         -6.94260        7.48490       -4.56190
C         -6.34810        6.32620       -4.08140
C         -6.88200        5.66350       -2.84290
C         -7.80900        4.50220       -3.20870
C         -3.76000        4.47260       -3.28730
S         -3.23450        5.67130       -2.12030
C         -2.23140        4.46510       -1.39300
C         -1.30240        4.35540       -0.35330
C         -0.77530        5.33990        0.51070
C          0.27580        4.97350        1.41130
N          0.71340        5.99980        2.12390
S         -0.13080        7.31430        1.69970
N         -1.08600        6.62410        0.58850
C          0.67440        3.62090        1.47520
C          1.58870        2.98240        2.32470
S          2.70550        3.38900        3.58350
C          3.07740        1.69280        3.75270
C          3.96570        0.99330        4.59930
C          4.80070        1.64970        5.62410
C          6.13430        1.97400        5.37380
C          6.76700        1.71210        4.03650
C          6.63910        2.94330        3.13710
C          6.86360        2.60110        6.37580
C          6.29100        2.90150        7.59800
C          4.96620        2.57930        7.83790
C          4.22570        1.95500        6.85210
C          3.93130       -0.35310        4.36670
S          2.79020       -0.79120        3.11500
C          2.36680        0.87100        2.88160
C          1.51340        1.61550        2.05090
N          0.61530        1.38730        1.04540
C          0.08430        2.61150        0.66140
C         -0.84640        3.00210       -0.33940
N         -1.47230        2.32770       -1.37250
C         -2.30200        3.21110       -2.01380
C         -3.17060        3.20480       -3.10710
S         -3.68410        2.07380       -4.30530
C         -1.13190        1.08040       -2.02090
C          0.29370        1.10590       -2.56630
C          0.12620        0.04530        0.82110
C         -1.30490       -0.12070        1.32620
C          4.71600       -1.38300        5.12360
C          3.78030       -2.20920        5.94640
C          3.43900       -3.46980        5.65360
C          3.88710       -4.16090        4.47080
C          3.51280       -5.45650        4.19700
C          2.64750       -6.23530        5.09290
O          1.85530       -5.76600        5.88520
N          2.78310       -7.61720        5.00460
C          2.08140       -8.40270        6.01500
C          2.96320       -8.64860        7.23200
C          3.53220       -8.26130        4.06330
S          3.76980       -9.89260        4.13230
N          4.04150       -7.51610        3.03880
C          3.98360       -6.12980        2.98200
O          4.34200       -5.55480        1.97250
C          4.64790       -8.19580        1.89910
C          3.59160       -8.65910        0.90530
C          4.77630       -3.38610        3.55070
C          5.58180       -2.30070        4.25580
H         -6.11360        4.02270       -6.38620
H         -4.08610        5.89700       -6.56960
H         -5.16310        7.95500       -7.39180
H         -7.00210        8.97590       -6.09170
H         -7.75380        7.92680       -4.00120
H         -6.06470        5.29090       -2.22410
H         -7.44040        6.39510       -2.25640
H         -8.24040        4.06540       -2.31100
H         -7.26290        3.72630       -3.74100
H         -8.61650        4.85140       -3.84840
H          6.28480        0.86230        3.55050
H          7.82410        1.47400        4.17280
H          7.12780        3.79960        3.59560
H          7.10000        2.75570        2.17010
H          5.59230        3.19250        2.98140
H          7.89710        2.85660        6.18990
H          6.87720        3.38890        8.36270
H          4.51120        2.81330        8.78850
H          3.19020        1.69970        7.02680
H         -1.29020        0.24020       -1.34480
H         -1.83180        0.96050       -2.85120
H          1.01610        1.30190       -1.77710
H          0.38940        1.88850       -3.31520
H          0.52850        0.15280       -3.03190
H          0.21630       -0.22750       -0.23040
H          0.78450       -0.62250        1.38230
H         -1.34320        0.05970        2.39810
H         -1.65070       -1.13270        1.13360
H         -1.97860        0.58140        0.84050
H          5.36900       -0.81580        5.79970
H          3.35380       -1.72370        6.81270
H          2.75770       -3.99100        6.30550
H          1.78070       -9.34920        5.56390
H          1.19690       -7.83020        6.29950
H          2.40750       -9.21540        7.97300
H          3.84790       -9.21540        6.95190
H          3.26990       -7.70260        7.67230
H          5.21920       -9.04560        2.27630
H          5.31930       -7.47790        1.42530
H          4.07580       -9.14170        0.06160
H          2.91590       -9.37170        1.37260
H          3.01940       -7.80860        0.54240
H          4.13230       -2.94670        2.78230
H          5.45900       -4.04760        3.01700
H          6.12510       -1.71380        3.51330
H          6.31700       -2.77700        4.90870
