
  xtb     02102218223D
 energy: -202.458456042903 gnorm: 0.000610317330 xtb: 6.4.1 (unknown)
101113  0     0  0            999 V2000
    7.7541   -2.1809    5.4077 C   0  0  0  0  0  0  0  0  0  0  0  0
    9.0174   -1.8612    4.9697 C   0  0  0  0  0  0  0  0  0  0  0  0
    9.4321   -1.1563    3.7470 C   0  0  0  0  0  0  0  0  0  0  0  0
    8.7845   -0.8956    2.7537 O   0  0  0  0  0  0  0  0  0  0  0  0
   10.8523   -0.7842    3.9657 C   0  0  0  0  0  0  0  0  0  0  0  0
   11.6671    0.0081    3.1766 C   0  0  0  0  0  0  0  0  0  0  0  0
   11.1569    0.5759    1.6508 Cl  0  0  0  0  0  0  0  0  0  0  0  0
   12.9354    0.3504    3.6661 C   0  0  0  0  0  0  0  0  0  0  0  0
   13.9886    1.3040    2.7140 Cl  0  0  0  0  0  0  0  0  0  0  0  0
   13.3216   -0.0459    4.9452 C   0  0  0  0  0  0  0  0  0  0  0  0
   14.8305    0.4722    5.5624 Cl  0  0  0  0  0  0  0  0  0  0  0  0
   12.4898   -0.8495    5.7420 C   0  0  0  0  0  0  0  0  0  0  0  0
   12.9553   -1.1493    7.3652 Cl  0  0  0  0  0  0  0  0  0  0  0  0
   11.2793   -1.2779    5.2136 C   0  0  0  0  0  0  0  0  0  0  0  0
   10.2201   -2.1328    5.7427 C   0  0  0  0  0  0  0  0  0  0  0  0
   10.3827   -3.1654    6.6272 C   0  0  0  0  0  0  0  0  0  0  0  0
    9.3467   -4.0239    7.0608 C   0  0  0  0  0  0  0  0  0  0  0  0
    8.5698   -4.7668    7.4641 N   0  0  0  0  0  0  0  0  0  0  0  0
   11.6211   -3.6586    7.0939 C   0  0  0  0  0  0  0  0  0  0  0  0
   12.5720   -4.1962    7.4456 N   0  0  0  0  0  0  0  0  0  0  0  0
    6.4955   -2.0136    4.8165 C   0  0  0  0  0  0  0  0  0  0  0  0
    5.0950   -2.4497    5.8213 S   0  0  0  0  0  0  0  0  0  0  0  0
    4.0329   -2.0117    4.5505 C   0  0  0  0  0  0  0  0  0  0  0  0
    2.6839   -1.9522    4.2248 C   0  0  0  0  0  0  0  0  0  0  0  0
    1.1714   -2.3395    4.9870 S   0  0  0  0  0  0  0  0  0  0  0  0
    0.3845   -1.8026    3.5490 C   0  0  0  0  0  0  0  0  0  0  0  0
   -0.9337   -1.7263    3.0883 C   0  0  0  0  0  0  0  0  0  0  0  0
   -2.1263   -2.2350    3.6475 C   0  0  0  0  0  0  0  0  0  0  0  0
   -3.3202   -2.1972    2.8591 C   0  0  0  0  0  0  0  0  0  0  0  0
   -4.3464   -2.7734    3.4655 N   0  0  0  0  0  0  0  0  0  0  0  0
   -3.8509   -3.3108    4.9098 S   0  0  0  0  0  0  0  0  0  0  0  0
   -2.3077   -2.8328    4.8144 N   0  0  0  0  0  0  0  0  0  0  0  0
   -3.2913   -1.5317    1.6138 C   0  0  0  0  0  0  0  0  0  0  0  0
   -4.3275   -1.2545    0.7130 C   0  0  0  0  0  0  0  0  0  0  0  0
   -6.0136   -1.5809    0.5203 S   0  0  0  0  0  0  0  0  0  0  0  0
   -6.0055   -0.5840   -0.9236 C   0  0  0  0  0  0  0  0  0  0  0  0
   -7.0044   -0.2297   -1.8183 C   0  0  0  0  0  0  0  0  0  0  0  0
   -8.4232   -0.6693   -1.6626 C   0  0  0  0  0  0  0  0  0  0  0  0
   -9.2456    0.3932   -0.9278 C   0  0  0  0  0  0  0  0  0  0  0  0
   -6.5132    0.6246   -2.8236 C   0  0  0  0  0  0  0  0  0  0  0  0
   -4.7898    0.9565   -2.6302 S   0  0  0  0  0  0  0  0  0  0  0  0
   -4.7444   -0.0364   -1.2226 C   0  0  0  0  0  0  0  0  0  0  0  0
   -3.7892   -0.4377   -0.2860 C   0  0  0  0  0  0  0  0  0  0  0  0
   -2.4503   -0.2271   -0.0594 N   0  0  0  0  0  0  0  0  0  0  0  0
   -2.1128   -0.9059    1.1060 C   0  0  0  0  0  0  0  0  0  0  0  0
   -0.8893   -1.1280    1.7990 C   0  0  0  0  0  0  0  0  0  0  0  0
    0.4389   -0.9181    1.4773 N   0  0  0  0  0  0  0  0  0  0  0  0
    1.2271   -1.3266    2.5316 C   0  0  0  0  0  0  0  0  0  0  0  0
    2.5843   -1.4439    2.8997 C   0  0  0  0  0  0  0  0  0  0  0  0
    3.8544   -1.1954    2.4202 N   0  0  0  0  0  0  0  0  0  0  0  0
    4.7389   -1.5545    3.4098 C   0  0  0  0  0  0  0  0  0  0  0  0
    6.1152   -1.5646    3.5560 C   0  0  0  0  0  0  0  0  0  0  0  0
    4.3251   -0.9605    1.0753 C   0  0  0  0  0  0  0  0  0  0  0  0
    4.4283   -2.2646    0.2849 C   0  0  0  0  0  0  0  0  0  0  0  0
    0.9972   -0.4609    0.2325 C   0  0  0  0  0  0  0  0  0  0  0  0
    1.4275    1.0050    0.3229 C   0  0  0  0  0  0  0  0  0  0  0  0
   -1.8872    0.9714   -0.6494 C   0  0  0  0  0  0  0  0  0  0  0  0
   -2.1605    2.1891    0.2314 C   0  0  0  0  0  0  0  0  0  0  0  0
   -7.3170    1.1360   -3.8440 C   0  0  0  0  0  0  0  0  0  0  0  0
   -7.0271    1.9926   -4.8809 C   0  0  0  0  0  0  0  0  0  0  0  0
   -5.7290    2.6095   -5.1585 C   0  0  0  0  0  0  0  0  0  0  0  0
   -4.6833    2.4580   -4.5490 O   0  0  0  0  0  0  0  0  0  0  0  0
   -5.9279    3.4688   -6.3405 C   0  0  0  0  0  0  0  0  0  0  0  0
   -5.0099    4.2711   -6.9904 C   0  0  0  0  0  0  0  0  0  0  0  0
   -5.4322    5.0011   -8.0902 C   0  0  0  0  0  0  0  0  0  0  0  0
   -6.7539    4.9011   -8.4975 C   0  0  0  0  0  0  0  0  0  0  0  0
   -7.1480    5.6163   -9.5632 F   0  0  0  0  0  0  0  0  0  0  0  0
   -7.6934    4.1002   -7.8611 C   0  0  0  0  0  0  0  0  0  0  0  0
   -7.2654    3.3733   -6.7633 C   0  0  0  0  0  0  0  0  0  0  0  0
   -7.9749    2.4484   -5.8759 C   0  0  0  0  0  0  0  0  0  0  0  0
   -9.2939    2.0943   -6.0025 C   0  0  0  0  0  0  0  0  0  0  0  0
   -9.9918    1.1949   -5.1698 C   0  0  0  0  0  0  0  0  0  0  0  0
  -10.6326    0.4753   -4.5432 N   0  0  0  0  0  0  0  0  0  0  0  0
  -10.1531    2.5867   -7.0078 C   0  0  0  0  0  0  0  0  0  0  0  0
  -10.9066    2.9475   -7.7950 N   0  0  0  0  0  0  0  0  0  0  0  0
    7.7001   -2.5985    6.4064 H   0  0  0  0  0  0  0  0  0  0  0  0
   -8.4316   -1.5916   -1.0785 H   0  0  0  0  0  0  0  0  0  0  0  0
   -8.8801   -0.8743   -2.6318 H   0  0  0  0  0  0  0  0  0  0  0  0
   -9.2537    1.3278   -1.4837 H   0  0  0  0  0  0  0  0  0  0  0  0
   -8.8284    0.5789    0.0592 H   0  0  0  0  0  0  0  0  0  0  0  0
  -10.2703    0.0510   -0.8154 H   0  0  0  0  0  0  0  0  0  0  0  0
    6.8375   -1.2698    2.8182 H   0  0  0  0  0  0  0  0  0  0  0  0
    5.3156   -0.5073    1.1602 H   0  0  0  0  0  0  0  0  0  0  0  0
    3.6762   -0.2497    0.5675 H   0  0  0  0  0  0  0  0  0  0  0  0
    3.4655   -2.7706    0.2404 H   0  0  0  0  0  0  0  0  0  0  0  0
    5.1416   -2.9331    0.7603 H   0  0  0  0  0  0  0  0  0  0  0  0
    4.7654   -2.0606   -0.7275 H   0  0  0  0  0  0  0  0  0  0  0  0
    0.2672   -0.6287   -0.5601 H   0  0  0  0  0  0  0  0  0  0  0  0
    1.8597   -1.0907    0.0013 H   0  0  0  0  0  0  0  0  0  0  0  0
    1.8661    1.3301   -0.6172 H   0  0  0  0  0  0  0  0  0  0  0  0
    0.5851    1.6487    0.5578 H   0  0  0  0  0  0  0  0  0  0  0  0
    2.1593    1.1330    1.1175 H   0  0  0  0  0  0  0  0  0  0  0  0
   -0.8238    0.8710   -0.8330 H   0  0  0  0  0  0  0  0  0  0  0  0
   -2.3796    1.1032   -1.6162 H   0  0  0  0  0  0  0  0  0  0  0  0
   -1.7224    2.0573    1.2193 H   0  0  0  0  0  0  0  0  0  0  0  0
   -1.7406    3.0797   -0.2280 H   0  0  0  0  0  0  0  0  0  0  0  0
   -3.2314    2.3344    0.3496 H   0  0  0  0  0  0  0  0  0  0  0  0
   -8.3417    0.7950   -3.7897 H   0  0  0  0  0  0  0  0  0  0  0  0
   -3.9904    4.3207   -6.6411 H   0  0  0  0  0  0  0  0  0  0  0  0
   -4.7584    5.6437   -8.6344 H   0  0  0  0  0  0  0  0  0  0  0  0
   -8.7039    4.0718   -8.2331 H   0  0  0  0  0  0  0  0  0  0  0  0
  1  2  2  0  0  0  0
  2  3  1  0  0  0  0
  3  4  2  0  0  0  0
  3  5  1  0  0  0  0
  5  6  2  0  0  0  0
  6  7  1  0  0  0  0
  6  8  1  0  0  0  0
  8  9  1  0  0  0  0
  8 10  2  0  0  0  0
 10 11  1  0  0  0  0
 10 12  1  0  0  0  0
 12 13  1  0  0  0  0
 12 14  2  0  0  0  0
 14 15  1  0  0  0  0
 15 16  2  0  0  0  0
 16 17  1  0  0  0  0
 17 18  3  0  0  0  0
 16 19  1  0  0  0  0
 19 20  3  0  0  0  0
  1 21  1  0  0  0  0
 21 22  1  0  0  0  0
 22 23  1  0  0  0  0
 23 24  1  0  0  0  0
 24 25  1  0  0  0  0
 25 26  1  0  0  0  0
 26 27  1  0  0  0  0
 27 28  1  0  0  0  0
 28 29  1  0  0  0  0
 29 30  2  0  0  0  0
 30 31  1  0  0  0  0
 31 32  1  0  0  0  0
 29 33  1  0  0  0  0
 33 34  1  0  0  0  0
 34 35  1  0  0  0  0
 35 36  1  0  0  0  0
 36 37  1  0  0  0  0
 37 38  1  0  0  0  0
 38 39  1  0  0  0  0
 37 40  2  0  0  0  0
 40 41  1  0  0  0  0
 41 42  1  0  0  0  0
 42 43  1  0  0  0  0
 43 44  1  0  0  0  0
 44 45  1  0  0  0  0
 45 46  1  0  0  0  0
 46 47  1  0  0  0  0
 47 48  1  0  0  0  0
 48 49  1  0  0  0  0
 49 50  1  0  0  0  0
 50 51  1  0  0  0  0
 51 52  1  0  0  0  0
 50 53  1  0  0  0  0
 53 54  1  0  0  0  0
 47 55  1  0  0  0  0
 55 56  1  0  0  0  0
 44 57  1  0  0  0  0
 57 58  1  0  0  0  0
 40 59  1  0  0  0  0
 59 60  2  0  0  0  0
 60 61  1  0  0  0  0
 61 62  2  0  0  0  0
 61 63  1  0  0  0  0
 63 64  2  0  0  0  0
 64 65  1  0  0  0  0
 65 66  2  0  0  0  0
 66 67  1  0  0  0  0
 66 68  1  0  0  0  0
 68 69  2  0  0  0  0
 69 70  1  0  0  0  0
 70 71  2  0  0  0  0
 71 72  1  0  0  0  0
 72 73  3  0  0  0  0
 71 74  1  0  0  0  0
 74 75  3  0  0  0  0
 15  2  1  0  0  0  0
 52 21  2  0  0  0  0
 70 60  1  0  0  0  0
 14  5  1  0  0  0  0
 51 23  2  0  0  0  0
 69 63  1  0  0  0  0
 49 24  2  0  0  0  0
 48 26  2  0  0  0  0
 46 27  2  0  0  0  0
 32 28  2  0  0  0  0
 45 33  2  0  0  0  0
 43 34  2  0  0  0  0
 42 36  2  0  0  0  0
  1 76  1  0  0  0  0
 38 77  1  0  0  0  0
 38 78  1  0  0  0  0
 39 79  1  0  0  0  0
 39 80  1  0  0  0  0
 39 81  1  0  0  0  0
 52 82  1  0  0  0  0
 53 83  1  0  0  0  0
 53 84  1  0  0  0  0
 54 85  1  0  0  0  0
 54 86  1  0  0  0  0
 54 87  1  0  0  0  0
 55 88  1  0  0  0  0
 55 89  1  0  0  0  0
 56 90  1  0  0  0  0
 56 91  1  0  0  0  0
 56 92  1  0  0  0  0
 57 93  1  0  0  0  0
 57 94  1  0  0  0  0
 58 95  1  0  0  0  0
 58 96  1  0  0  0  0
 58 97  1  0  0  0  0
 59 98  1  0  0  0  0
 64 99  1  0  0  0  0
 65100  1  0  0  0  0
 68101  1  0  0  0  0
M  END
