
  xtb     02012222363D
 energy: -214.412391497944 gnorm: 0.000502562092 xtb: 6.4.1 (unknown)
101113  0     0  0            999 V2000
    8.8323    2.2930    3.5820 C   0  0  0  0  0  0  0  0  0  0  0  0
    9.2495    3.5867    3.3776 C   0  0  0  0  0  0  0  0  0  0  0  0
    8.4609    4.7789    3.0284 C   0  0  0  0  0  0  0  0  0  0  0  0
    7.3092    4.8535    2.6518 O   0  0  0  0  0  0  0  0  0  0  0  0
    9.3651    5.9339    3.2551 C   0  0  0  0  0  0  0  0  0  0  0  0
    9.0704    7.2846    3.1960 C   0  0  0  0  0  0  0  0  0  0  0  0
    7.5481    7.8462    2.6686 Cl  0  0  0  0  0  0  0  0  0  0  0  0
   10.0578    8.1973    3.5926 C   0  0  0  0  0  0  0  0  0  0  0  0
    9.7512    9.8776    3.5051 Cl  0  0  0  0  0  0  0  0  0  0  0  0
   11.2720    7.7381    4.1000 C   0  0  0  0  0  0  0  0  0  0  0  0
   12.4210    8.8678    4.6739 Cl  0  0  0  0  0  0  0  0  0  0  0  0
   11.5637    6.3657    4.1620 C   0  0  0  0  0  0  0  0  0  0  0  0
   12.9984    5.8709    4.9609 Cl  0  0  0  0  0  0  0  0  0  0  0  0
   10.6285    5.4669    3.6662 C   0  0  0  0  0  0  0  0  0  0  0  0
   10.6316    4.0123    3.5388 C   0  0  0  0  0  0  0  0  0  0  0  0
   11.7341    3.2228    3.3466 C   0  0  0  0  0  0  0  0  0  0  0  0
   13.0467    3.6914    3.1182 C   0  0  0  0  0  0  0  0  0  0  0  0
   14.1182    3.9747    2.8213 N   0  0  0  0  0  0  0  0  0  0  0  0
   11.6989    1.8235    3.1502 C   0  0  0  0  0  0  0  0  0  0  0  0
   11.7675    0.6896    2.9837 N   0  0  0  0  0  0  0  0  0  0  0  0
    7.5857    1.6776    3.4095 C   0  0  0  0  0  0  0  0  0  0  0  0
    7.4929   -0.0365    3.8689 S   0  0  0  0  0  0  0  0  0  0  0  0
    5.8609   -0.0993    3.3523 C   0  0  0  0  0  0  0  0  0  0  0  0
    4.7961   -0.9809    3.2067 C   0  0  0  0  0  0  0  0  0  0  0  0
    4.4771   -2.6771    3.4277 S   0  0  0  0  0  0  0  0  0  0  0  0
    2.9049   -2.4133    2.7637 C   0  0  0  0  0  0  0  0  0  0  0  0
    1.7819   -3.1900    2.4338 C   0  0  0  0  0  0  0  0  0  0  0  0
    1.4886   -4.5586    2.6278 C   0  0  0  0  0  0  0  0  0  0  0  0
    0.2017   -5.0588    2.2330 C   0  0  0  0  0  0  0  0  0  0  0  0
    0.0500   -6.3420    2.5209 N   0  0  0  0  0  0  0  0  0  0  0  0
    1.4071   -6.8761    3.2220 S   0  0  0  0  0  0  0  0  0  0  0  0
    2.2424   -5.4924    3.1863 N   0  0  0  0  0  0  0  0  0  0  0  0
   -0.6871   -4.1981    1.5501 C   0  0  0  0  0  0  0  0  0  0  0  0
   -1.8971   -4.4369    0.8861 C   0  0  0  0  0  0  0  0  0  0  0  0
   -2.9878   -5.7460    0.5913 S   0  0  0  0  0  0  0  0  0  0  0  0
   -3.9123   -4.6962   -0.4668 C   0  0  0  0  0  0  0  0  0  0  0  0
   -5.0453   -4.9126   -1.2364 C   0  0  0  0  0  0  0  0  0  0  0  0
   -5.7229   -6.2412   -1.3072 C   0  0  0  0  0  0  0  0  0  0  0  0
   -5.1567   -7.0815   -2.4558 C   0  0  0  0  0  0  0  0  0  0  0  0
   -5.4055   -3.7565   -1.9551 C   0  0  0  0  0  0  0  0  0  0  0  0
   -4.3239   -2.4019   -1.6155 S   0  0  0  0  0  0  0  0  0  0  0  0
   -3.3880   -3.3933   -0.5653 C   0  0  0  0  0  0  0  0  0  0  0  0
   -2.2446   -3.2505    0.2221 C   0  0  0  0  0  0  0  0  0  0  0  0
   -1.3096   -2.2834    0.4804 N   0  0  0  0  0  0  0  0  0  0  0  0
   -0.3515   -2.8340    1.3035 C   0  0  0  0  0  0  0  0  0  0  0  0
    0.8354   -2.3059    1.8612 C   0  0  0  0  0  0  0  0  0  0  0  0
    1.3339   -1.0043    1.9041 N   0  0  0  0  0  0  0  0  0  0  0  0
    2.6157   -1.0841    2.4243 C   0  0  0  0  0  0  0  0  0  0  0  0
    3.7186   -0.2436    2.6471 C   0  0  0  0  0  0  0  0  0  0  0  0
    4.1083    1.0614    2.4510 N   0  0  0  0  0  0  0  0  0  0  0  0
    5.4162    1.1568    2.8609 C   0  0  0  0  0  0  0  0  0  0  0  0
    6.3831    2.1469    2.8913 C   0  0  0  0  0  0  0  0  0  0  0  0
    3.4413    2.0911    1.6892 C   0  0  0  0  0  0  0  0  0  0  0  0
    3.1977    1.6556    0.2472 C   0  0  0  0  0  0  0  0  0  0  0  0
    0.5113    0.1539    2.2198 C   0  0  0  0  0  0  0  0  0  0  0  0
   -0.4816   -0.1471    3.3399 C   0  0  0  0  0  0  0  0  0  0  0  0
   -1.2472   -1.0847   -0.3252 C   0  0  0  0  0  0  0  0  0  0  0  0
   -2.2955   -0.0511    0.0804 C   0  0  0  0  0  0  0  0  0  0  0  0
   -6.4585   -3.7145   -2.8704 C   0  0  0  0  0  0  0  0  0  0  0  0
   -6.9597   -2.6700   -3.6136 C   0  0  0  0  0  0  0  0  0  0  0  0
   -6.5776   -1.2647   -3.5104 C   0  0  0  0  0  0  0  0  0  0  0  0
   -5.6473   -0.7854   -2.8890 O   0  0  0  0  0  0  0  0  0  0  0  0
   -7.5873   -0.5126   -4.2905 C   0  0  0  0  0  0  0  0  0  0  0  0
   -7.7452    0.8563   -4.4088 C   0  0  0  0  0  0  0  0  0  0  0  0
   -6.6138    1.9450   -3.7419 Cl  0  0  0  0  0  0  0  0  0  0  0  0
   -8.8737    1.3371   -5.0881 C   0  0  0  0  0  0  0  0  0  0  0  0
   -9.0968    3.0210   -5.2860 Cl  0  0  0  0  0  0  0  0  0  0  0  0
   -9.8357    0.4473   -5.5626 C   0  0  0  0  0  0  0  0  0  0  0  0
  -11.2532    1.0607   -6.2974 Cl  0  0  0  0  0  0  0  0  0  0  0  0
   -9.6712   -0.9423   -5.4353 C   0  0  0  0  0  0  0  0  0  0  0  0
  -10.9745   -1.9620   -5.8855 Cl  0  0  0  0  0  0  0  0  0  0  0  0
   -8.5036   -1.4217   -4.8574 C   0  0  0  0  0  0  0  0  0  0  0  0
   -8.0099   -2.7751   -4.6091 C   0  0  0  0  0  0  0  0  0  0  0  0
   -8.2944   -3.8953   -5.3458 C   0  0  0  0  0  0  0  0  0  0  0  0
   -7.7281   -5.1655   -5.1013 C   0  0  0  0  0  0  0  0  0  0  0  0
   -7.3082   -6.2259   -4.9672 N   0  0  0  0  0  0  0  0  0  0  0  0
   -9.0216   -3.9302   -6.5554 C   0  0  0  0  0  0  0  0  0  0  0  0
   -9.5019   -4.0535   -7.5903 N   0  0  0  0  0  0  0  0  0  0  0  0
    9.5875    1.6167    3.9656 H   0  0  0  0  0  0  0  0  0  0  0  0
   -5.5431   -6.7618   -0.3640 H   0  0  0  0  0  0  0  0  0  0  0  0
   -6.7999   -6.1255   -1.4337 H   0  0  0  0  0  0  0  0  0  0  0  0
   -5.3740   -6.6218   -3.4164 H   0  0  0  0  0  0  0  0  0  0  0  0
   -5.6055   -8.0705   -2.4422 H   0  0  0  0  0  0  0  0  0  0  0  0
   -4.0797   -7.1867   -2.3501 H   0  0  0  0  0  0  0  0  0  0  0  0
    6.2673    3.1631    2.5641 H   0  0  0  0  0  0  0  0  0  0  0  0
    4.0885    2.9695    1.7076 H   0  0  0  0  0  0  0  0  0  0  0  0
    2.4971    2.3659    2.1714 H   0  0  0  0  0  0  0  0  0  0  0  0
    2.5857    0.7578    0.2129 H   0  0  0  0  0  0  0  0  0  0  0  0
    2.6913    2.4472   -0.2976 H   0  0  0  0  0  0  0  0  0  0  0  0
    4.1446    1.4453   -0.2439 H   0  0  0  0  0  0  0  0  0  0  0  0
   -0.0103    0.5215    1.3360 H   0  0  0  0  0  0  0  0  0  0  0  0
    1.1899    0.9348    2.5595 H   0  0  0  0  0  0  0  0  0  0  0  0
    0.0457   -0.5008    4.2234 H   0  0  0  0  0  0  0  0  0  0  0  0
   -1.0254    0.7576    3.6000 H   0  0  0  0  0  0  0  0  0  0  0  0
   -1.1947   -0.9108    3.0403 H   0  0  0  0  0  0  0  0  0  0  0  0
   -1.4335   -1.3745   -1.3654 H   0  0  0  0  0  0  0  0  0  0  0  0
   -0.2341   -0.6852   -0.2688 H   0  0  0  0  0  0  0  0  0  0  0  0
   -2.1534    0.8574   -0.4981 H   0  0  0  0  0  0  0  0  0  0  0  0
   -2.2343    0.1887    1.1382 H   0  0  0  0  0  0  0  0  0  0  0  0
   -3.2922   -0.4293   -0.1286 H   0  0  0  0  0  0  0  0  0  0  0  0
   -6.9668   -4.6626   -2.9902 H   0  0  0  0  0  0  0  0  0  0  0  0
  1  2  2  0  0  0  0
  2  3  1  0  0  0  0
  3  4  2  0  0  0  0
  3  5  1  0  0  0  0
  5  6  2  0  0  0  0
  6  7  1  0  0  0  0
  6  8  1  0  0  0  0
  8  9  1  0  0  0  0
  8 10  2  0  0  0  0
 10 11  1  0  0  0  0
 10 12  1  0  0  0  0
 12 13  1  0  0  0  0
 12 14  2  0  0  0  0
 14 15  1  0  0  0  0
 15 16  2  0  0  0  0
 16 17  1  0  0  0  0
 17 18  3  0  0  0  0
 16 19  1  0  0  0  0
 19 20  3  0  0  0  0
  1 21  1  0  0  0  0
 21 22  1  0  0  0  0
 22 23  1  0  0  0  0
 23 24  1  0  0  0  0
 24 25  1  0  0  0  0
 25 26  1  0  0  0  0
 26 27  1  0  0  0  0
 27 28  1  0  0  0  0
 28 29  1  0  0  0  0
 29 30  2  0  0  0  0
 30 31  1  0  0  0  0
 31 32  1  0  0  0  0
 29 33  1  0  0  0  0
 33 34  1  0  0  0  0
 34 35  1  0  0  0  0
 35 36  1  0  0  0  0
 36 37  1  0  0  0  0
 37 38  1  0  0  0  0
 38 39  1  0  0  0  0
 37 40  2  0  0  0  0
 40 41  1  0  0  0  0
 41 42  1  0  0  0  0
 42 43  1  0  0  0  0
 43 44  1  0  0  0  0
 44 45  1  0  0  0  0
 45 46  1  0  0  0  0
 46 47  1  0  0  0  0
 47 48  1  0  0  0  0
 48 49  1  0  0  0  0
 49 50  1  0  0  0  0
 50 51  1  0  0  0  0
 51 52  1  0  0  0  0
 50 53  1  0  0  0  0
 53 54  1  0  0  0  0
 47 55  1  0  0  0  0
 55 56  1  0  0  0  0
 44 57  1  0  0  0  0
 57 58  1  0  0  0  0
 40 59  1  0  0  0  0
 59 60  2  0  0  0  0
 60 61  1  0  0  0  0
 61 62  2  0  0  0  0
 61 63  1  0  0  0  0
 63 64  2  0  0  0  0
 64 65  1  0  0  0  0
 64 66  1  0  0  0  0
 66 67  1  0  0  0  0
 66 68  2  0  0  0  0
 68 69  1  0  0  0  0
 68 70  1  0  0  0  0
 70 71  1  0  0  0  0
 70 72  2  0  0  0  0
 72 73  1  0  0  0  0
 73 74  2  0  0  0  0
 74 75  1  0  0  0  0
 75 76  3  0  0  0  0
 74 77  1  0  0  0  0
 77 78  3  0  0  0  0
 15  2  1  0  0  0  0
 52 21  2  0  0  0  0
 73 60  1  0  0  0  0
 14  5  1  0  0  0  0
 51 23  2  0  0  0  0
 72 63  1  0  0  0  0
 49 24  2  0  0  0  0
 48 26  2  0  0  0  0
 46 27  2  0  0  0  0
 32 28  2  0  0  0  0
 45 33  2  0  0  0  0
 43 34  2  0  0  0  0
 42 36  2  0  0  0  0
  1 79  1  0  0  0  0
 38 80  1  0  0  0  0
 38 81  1  0  0  0  0
 39 82  1  0  0  0  0
 39 83  1  0  0  0  0
 39 84  1  0  0  0  0
 52 85  1  0  0  0  0
 53 86  1  0  0  0  0
 53 87  1  0  0  0  0
 54 88  1  0  0  0  0
 54 89  1  0  0  0  0
 54 90  1  0  0  0  0
 55 91  1  0  0  0  0
 55 92  1  0  0  0  0
 56 93  1  0  0  0  0
 56 94  1  0  0  0  0
 56 95  1  0  0  0  0
 57 96  1  0  0  0  0
 57 97  1  0  0  0  0
 58 98  1  0  0  0  0
 58 99  1  0  0  0  0
 58100  1  0  0  0  0
 59101  1  0  0  0  0
M  END
