114

C         -0.83050       10.42480        2.37930
C         -2.11860       10.61170        2.80800
C         -2.61740       11.99240        2.99920
O         -1.95910       13.00440        3.03130
C         -4.09610       11.86470        3.07560
C         -5.06020       12.85690        3.08120
Cl        -4.63710       14.50690        3.17790
C         -6.40740       12.47330        2.99460
Cl        -7.63430       13.66390        3.02460
C         -6.74680       11.13030        2.84060
Cl        -8.38920       10.69650        2.63470
C         -5.76270       10.12930        2.83720
Cl        -6.22640        8.51720        2.47490
C         -4.43980       10.49960        3.02130
C         -3.20700        9.71350        3.11130
C         -3.09960        8.48620        3.71590
C         -4.15150        7.79230        4.35060
N         -4.92290        7.18590        4.94600
C         -1.87710        7.82220        3.94480
N         -0.92880        7.21050        4.15760
C         -0.24090        9.28830        1.81280
S          1.51210        9.27140        1.58820
C          1.42710        7.68430        0.95010
C          2.23890        6.63730        0.52990
S          3.93250        6.26070        0.47570
C          3.50580        4.66790       -0.02340
C          4.19020        3.45750       -0.26120
C          5.55520        3.09080       -0.26160
C          5.92140        1.73800       -0.59820
N          7.23380        1.56230       -0.60260
S          7.94580        2.96120       -0.21530
N          6.61160        3.85300       -0.02540
C          4.90590        0.77970       -0.81830
C          4.90890       -0.60940       -1.01920
S          6.03990       -1.90490       -1.21480
C          4.69590       -3.03060       -1.29140
C          4.63520       -4.41110       -1.43380
C          5.85510       -5.26740       -1.53460
C          6.26100       -5.80340       -0.15900
C          3.30680       -4.87000       -1.40480
S          2.14780       -3.55160       -1.22430
C          3.43990       -2.41350       -1.17300
C          3.56920       -1.03060       -1.02600
N          2.74020        0.04790       -0.87390
C          3.53620        1.16300       -0.75330
C          3.19740        2.51570       -0.58430
N          1.92970        3.12230       -0.65670
C          2.13320        4.44030       -0.21420
C          1.38210        5.56010        0.17350
N          0.06880        5.92750        0.38210
C          0.09060        7.21590        0.86800
C         -0.83990        8.11900        1.35030
C         -1.03600        5.03340        0.66480
C         -2.28070        5.35660       -0.15750
C          1.27030        2.90690       -1.95490
C         -0.24160        3.04300       -1.95250
C          1.36440       -0.09850       -0.45370
C          1.27900       -0.68120        0.95550
C          2.97010       -6.22630       -1.49250
C          1.75270       -6.85670       -1.43750
C          0.44650       -6.21080       -1.28390
O          0.21320       -5.01560       -1.20120
C         -0.55190       -7.29110       -1.25490
C         -1.93060       -7.15400       -1.11490
C         -2.61360       -8.34620       -1.11690
C         -1.97190       -9.58430       -1.25320
C         -0.61240       -9.73220       -1.39620
C          0.10310       -8.53160       -1.39270
C          1.54040       -8.28920       -1.51450
C          2.49500       -9.26190       -1.67370
C          2.22400      -10.64430       -1.74990
N          2.08750      -11.78230       -1.81970
C          3.88400       -9.04750       -1.78970
N          5.02680       -8.96830       -1.88710
C         -3.26570      -10.35440       -1.16330
C         -3.59320      -11.06360        0.17380
C         -2.87340      -10.29500        1.25410
C         -3.47760       -9.12180        1.38710
C         -4.61760       -9.07620        0.39990
C         -5.02820      -10.55740        0.39180
C         -3.97980       -8.97470       -1.00810
H         -0.20820       11.31250        2.42750
H          5.69310       -6.10400       -2.21560
H          6.66790       -4.65580       -1.93160
H          5.47010       -6.41890        0.26330
H          6.46380       -4.98080        0.52280
H          7.15660       -6.41080       -0.25110
H         -1.90470        7.98200        1.34520
H         -1.27910        5.11320        1.73150
H         -0.69610        4.01640        0.47220
H         -3.02130        4.57440       -0.01660
H         -2.04930        5.43010       -1.21710
H         -2.71920        6.29950        0.15390
H          1.54800        1.90700       -2.29210
H          1.68740        3.62070       -2.67870
H         -0.52870        4.07700       -1.80580
H         -0.61990        2.72020       -2.91940
H         -0.70080        2.42470       -1.18520
H          0.88920        0.87970       -0.46260
H          0.85710       -0.76280       -1.15970
H          1.71340       -1.67630        0.98780
H          1.80710       -0.04240        1.66020
H          0.23820       -0.75210        1.25780
H          3.83070       -6.87030       -1.60920
H         -2.38330       -6.17980       -1.01560
H         -0.13730      -10.69300       -1.50130
H         -3.51710      -10.96380       -2.02900
H         -3.43710      -12.13880        0.16440
H         -1.99170      -10.64970        1.75480
H         -3.20100       -8.29990        2.02130
H         -5.39450       -8.34220        0.59750
H         -5.70730      -10.81500       -0.41970
H         -5.44980      -10.88270        1.34170
H         -4.70140       -8.68520       -1.76980
