
  xtb     02012219523D
 energy: -169.672975650533 gnorm: 0.000247499705 xtb: 6.4.1 (unknown)
 85 93  0     0  0            999 V2000
    0.5207   -3.5754    5.7299 C   0  0  0  0  0  0  0  0  0  0  0  0
    0.3683   -4.9114    6.0058 C   0  0  0  0  0  0  0  0  0  0  0  0
    0.0169   -5.9551    5.0418 C   0  0  0  0  0  0  0  0  0  0  0  0
   -0.0964   -5.8469    3.8373 O   0  0  0  0  0  0  0  0  0  0  0  0
   -0.2126   -7.1813    5.8396 C   0  0  0  0  0  0  0  0  0  0  0  0
   -0.6646   -8.4168    5.4114 C   0  0  0  0  0  0  0  0  0  0  0  0
   -0.8845   -8.7599    3.7549 Cl  0  0  0  0  0  0  0  0  0  0  0  0
   -0.9502   -9.3889    6.3813 C   0  0  0  0  0  0  0  0  0  0  0  0
   -1.4762  -10.9427    5.9013 Cl  0  0  0  0  0  0  0  0  0  0  0  0
   -0.8507   -9.0749    7.7355 C   0  0  0  0  0  0  0  0  0  0  0  0
   -1.3055  -10.2423    8.8999 Cl  0  0  0  0  0  0  0  0  0  0  0  0
   -0.3998   -7.8147    8.1627 C   0  0  0  0  0  0  0  0  0  0  0  0
   -0.4833   -7.4477    9.8357 Cl  0  0  0  0  0  0  0  0  0  0  0  0
   -0.0059   -6.8900    7.2037 C   0  0  0  0  0  0  0  0  0  0  0  0
    0.5339   -5.5351    7.3059 C   0  0  0  0  0  0  0  0  0  0  0  0
    1.2582   -5.0258    8.3529 C   0  0  0  0  0  0  0  0  0  0  0  0
    1.7604   -3.7076    8.4170 C   0  0  0  0  0  0  0  0  0  0  0  0
    2.1859   -2.6503    8.5608 N   0  0  0  0  0  0  0  0  0  0  0  0
    1.7668   -5.7658    9.4428 C   0  0  0  0  0  0  0  0  0  0  0  0
    2.3185   -6.2877   10.3032 N   0  0  0  0  0  0  0  0  0  0  0  0
    0.4490   -2.8744    4.5197 C   0  0  0  0  0  0  0  0  0  0  0  0
    0.1724   -3.5715    2.9209 S   0  0  0  0  0  0  0  0  0  0  0  0
    0.3057   -2.0053    2.2247 C   0  0  0  0  0  0  0  0  0  0  0  0
    0.2695   -1.3502    0.9995 C   0  0  0  0  0  0  0  0  0  0  0  0
    0.0581   -1.7666   -0.6626 S   0  0  0  0  0  0  0  0  0  0  0  0
    0.2898   -0.0849   -1.0917 C   0  0  0  0  0  0  0  0  0  0  0  0
    0.2830    0.3476   -2.4082 C   0  0  0  0  0  0  0  0  0  0  0  0
   -0.0004   -0.5260   -3.4297 O   0  0  0  0  0  0  0  0  0  0  0  0
   -1.3638   -0.9381   -3.5217 C   0  0  0  0  0  0  0  0  0  0  0  0
   -2.3013    0.2161   -3.8548 C   0  0  0  0  0  0  0  0  0  0  0  0
    0.5986    1.6899   -2.6625 C   0  0  0  0  0  0  0  0  0  0  0  0
    0.7499    2.5796   -1.5558 C   0  0  0  0  0  0  0  0  0  0  0  0
    0.6736    2.1601   -0.2317 C   0  0  0  0  0  0  0  0  0  0  0  0
    0.8107    2.9376    0.8724 O   0  0  0  0  0  0  0  0  0  0  0  0
    0.3949    4.2945    0.9070 C   0  0  0  0  0  0  0  0  0  0  0  0
   -1.0905    4.4639    0.6185 C   0  0  0  0  0  0  0  0  0  0  0  0
    0.5008    0.7793    0.0147 C   0  0  0  0  0  0  0  0  0  0  0  0
    0.4858    0.0261    1.2274 C   0  0  0  0  0  0  0  0  0  0  0  0
    0.6368    0.2323    2.5766 N   0  0  0  0  0  0  0  0  0  0  0  0
    0.5473   -0.9922    3.1880 C   0  0  0  0  0  0  0  0  0  0  0  0
    0.6271   -1.4864    4.4765 C   0  0  0  0  0  0  0  0  0  0  0  0
    0.9773    1.4275    3.3109 C   0  0  0  0  0  0  0  0  0  0  0  0
    2.4777    1.7009    3.2674 C   0  0  0  0  0  0  0  0  0  0  0  0
    1.0437    4.2462   -2.0630 S   0  0  0  0  0  0  0  0  0  0  0  0
    0.9993    3.7611   -3.7159 C   0  0  0  0  0  0  0  0  0  0  0  0
    1.1606    4.3331   -4.9715 C   0  0  0  0  0  0  0  0  0  0  0  0
    1.4366    5.8468   -5.7387 S   0  0  0  0  0  0  0  0  0  0  0  0
    1.4262    5.0438   -7.3092 C   0  0  0  0  0  0  0  0  0  0  0  0
    1.2149    3.6734   -7.2188 C   0  0  0  0  0  0  0  0  0  0  0  0
    1.0616    3.2683   -5.8985 C   0  0  0  0  0  0  0  0  0  0  0  0
    0.8297    2.0903   -5.2372 N   0  0  0  0  0  0  0  0  0  0  0  0
    0.9597    0.8139   -5.9028 C   0  0  0  0  0  0  0  0  0  0  0  0
    2.4273    0.4780   -6.1581 C   0  0  0  0  0  0  0  0  0  0  0  0
    0.7892    2.3803   -3.8964 C   0  0  0  0  0  0  0  0  0  0  0  0
    1.6184    5.7475   -8.5279 C   0  0  0  0  0  0  0  0  0  0  0  0
    1.8235    7.1005   -8.6929 C   0  0  0  0  0  0  0  0  0  0  0  0
    1.9996    7.6474   -9.9821 C   0  0  0  0  0  0  0  0  0  0  0  0
    2.1433    8.1071  -11.0226 N   0  0  0  0  0  0  0  0  0  0  0  0
    1.8755    8.0397   -7.6469 C   0  0  0  0  0  0  0  0  0  0  0  0
    1.9252    8.8480   -6.8330 N   0  0  0  0  0  0  0  0  0  0  0  0
    1.5955    4.9559   -9.7078 C   0  0  0  0  0  0  0  0  0  0  0  0
    1.5754    4.3053  -10.6501 N   0  0  0  0  0  0  0  0  0  0  0  0
    0.7130   -2.9304    6.5789 H   0  0  0  0  0  0  0  0  0  0  0  0
   -1.6801   -1.4215   -2.5913 H   0  0  0  0  0  0  0  0  0  0  0  0
   -1.3641   -1.6824   -4.3208 H   0  0  0  0  0  0  0  0  0  0  0  0
   -3.3122   -0.1628   -3.9729 H   0  0  0  0  0  0  0  0  0  0  0  0
   -1.9985    0.7043   -4.7783 H   0  0  0  0  0  0  0  0  0  0  0  0
   -2.2962    0.9530   -3.0537 H   0  0  0  0  0  0  0  0  0  0  0  0
    0.9955    4.9147    0.2353 H   0  0  0  0  0  0  0  0  0  0  0  0
    0.6173    4.5985    1.9341 H   0  0  0  0  0  0  0  0  0  0  0  0
   -1.3688    5.5037    0.7602 H   0  0  0  0  0  0  0  0  0  0  0  0
   -1.6787    3.8451    1.2929 H   0  0  0  0  0  0  0  0  0  0  0  0
   -1.3218    4.1796   -0.4050 H   0  0  0  0  0  0  0  0  0  0  0  0
    0.8176   -0.9121    5.3653 H   0  0  0  0  0  0  0  0  0  0  0  0
    0.4299    2.2706    2.8947 H   0  0  0  0  0  0  0  0  0  0  0  0
    0.6533    1.2717    4.3425 H   0  0  0  0  0  0  0  0  0  0  0  0
    3.0308    0.8466    3.6512 H   0  0  0  0  0  0  0  0  0  0  0  0
    2.7127    2.5706    3.8741 H   0  0  0  0  0  0  0  0  0  0  0  0
    2.7906    1.8942    2.2452 H   0  0  0  0  0  0  0  0  0  0  0  0
    1.1780    3.0344   -8.0830 H   0  0  0  0  0  0  0  0  0  0  0  0
    0.4153    0.8736   -6.8496 H   0  0  0  0  0  0  0  0  0  0  0  0
    0.5172    0.0446   -5.2745 H   0  0  0  0  0  0  0  0  0  0  0  0
    2.9022    1.2436   -6.7679 H   0  0  0  0  0  0  0  0  0  0  0  0
    2.9624    0.4006   -5.2146 H   0  0  0  0  0  0  0  0  0  0  0  0
    2.4992   -0.4741   -6.6755 H   0  0  0  0  0  0  0  0  0  0  0  0
  1  2  2  0  0  0  0
  2  3  1  0  0  0  0
  3  4  2  0  0  0  0
  3  5  1  0  0  0  0
  5  6  2  0  0  0  0
  6  7  1  0  0  0  0
  6  8  1  0  0  0  0
  8  9  1  0  0  0  0
  8 10  2  0  0  0  0
 10 11  1  0  0  0  0
 10 12  1  0  0  0  0
 12 13  1  0  0  0  0
 12 14  2  0  0  0  0
 14 15  1  0  0  0  0
 15 16  2  0  0  0  0
 16 17  1  0  0  0  0
 17 18  3  0  0  0  0
 16 19  1  0  0  0  0
 19 20  3  0  0  0  0
  1 21  1  0  0  0  0
 21 22  1  0  0  0  0
 22 23  1  0  0  0  0
 23 24  1  0  0  0  0
 24 25  1  0  0  0  0
 25 26  1  0  0  0  0
 26 27  2  0  0  0  0
 27 28  1  0  0  0  0
 28 29  1  0  0  0  0
 29 30  1  0  0  0  0
 27 31  1  0  0  0  0
 31 32  2  0  0  0  0
 32 33  1  0  0  0  0
 33 34  1  0  0  0  0
 34 35  1  0  0  0  0
 35 36  1  0  0  0  0
 33 37  2  0  0  0  0
 37 38  1  0  0  0  0
 38 39  1  0  0  0  0
 39 40  1  0  0  0  0
 40 41  1  0  0  0  0
 39 42  1  0  0  0  0
 42 43  1  0  0  0  0
 32 44  1  0  0  0  0
 44 45  1  0  0  0  0
 45 46  1  0  0  0  0
 46 47  1  0  0  0  0
 47 48  1  0  0  0  0
 48 49  2  0  0  0  0
 49 50  1  0  0  0  0
 50 51  1  0  0  0  0
 51 52  1  0  0  0  0
 52 53  1  0  0  0  0
 51 54  1  0  0  0  0
 48 55  1  0  0  0  0
 55 56  2  0  0  0  0
 56 57  1  0  0  0  0
 57 58  3  0  0  0  0
 56 59  1  0  0  0  0
 59 60  3  0  0  0  0
 55 61  1  0  0  0  0
 61 62  3  0  0  0  0
 15  2  1  0  0  0  0
 41 21  2  0  0  0  0
 54 45  2  0  0  0  0
 14  5  1  0  0  0  0
 40 23  2  0  0  0  0
 50 46  2  0  0  0  0
 38 24  2  0  0  0  0
 37 26  1  0  0  0  0
 54 31  1  0  0  0  0
  1 63  1  0  0  0  0
 29 64  1  0  0  0  0
 29 65  1  0  0  0  0
 30 66  1  0  0  0  0
 30 67  1  0  0  0  0
 30 68  1  0  0  0  0
 35 69  1  0  0  0  0
 35 70  1  0  0  0  0
 36 71  1  0  0  0  0
 36 72  1  0  0  0  0
 36 73  1  0  0  0  0
 41 74  1  0  0  0  0
 42 75  1  0  0  0  0
 42 76  1  0  0  0  0
 43 77  1  0  0  0  0
 43 78  1  0  0  0  0
 43 79  1  0  0  0  0
 49 80  1  0  0  0  0
 52 81  1  0  0  0  0
 52 82  1  0  0  0  0
 53 83  1  0  0  0  0
 53 84  1  0  0  0  0
 53 85  1  0  0  0  0
M  END
