101

C          7.75410       -2.18090        5.40770
C          9.01740       -1.86120        4.96970
C          9.43210       -1.15630        3.74700
O          8.78450       -0.89560        2.75370
C         10.85230       -0.78420        3.96570
C         11.66710        0.00810        3.17660
Cl        11.15690        0.57590        1.65080
C         12.93540        0.35040        3.66610
Cl        13.98860        1.30400        2.71400
C         13.32160       -0.04590        4.94520
Cl        14.83050        0.47220        5.56240
C         12.48980       -0.84950        5.74200
Cl        12.95530       -1.14930        7.36520
C         11.27930       -1.27790        5.21360
C         10.22010       -2.13280        5.74270
C         10.38270       -3.16540        6.62720
C          9.34670       -4.02390        7.06080
N          8.56980       -4.76680        7.46410
C         11.62110       -3.65860        7.09390
N         12.57200       -4.19620        7.44560
C          6.49550       -2.01360        4.81650
S          5.09500       -2.44970        5.82130
C          4.03290       -2.01170        4.55050
C          2.68390       -1.95220        4.22480
S          1.17140       -2.33950        4.98700
C          0.38450       -1.80260        3.54900
C         -0.93370       -1.72630        3.08830
C         -2.12630       -2.23500        3.64750
C         -3.32020       -2.19720        2.85910
N         -4.34640       -2.77340        3.46550
S         -3.85090       -3.31080        4.90980
N         -2.30770       -2.83280        4.81440
C         -3.29130       -1.53170        1.61380
C         -4.32750       -1.25450        0.71300
S         -6.01360       -1.58090        0.52030
C         -6.00550       -0.58400       -0.92360
C         -7.00440       -0.22970       -1.81830
C         -8.42320       -0.66930       -1.66260
C         -9.24560        0.39320       -0.92780
C         -6.51320        0.62460       -2.82360
S         -4.78980        0.95650       -2.63020
C         -4.74440       -0.03640       -1.22260
C         -3.78920       -0.43770       -0.28600
N         -2.45030       -0.22710       -0.05940
C         -2.11280       -0.90590        1.10600
C         -0.88930       -1.12800        1.79900
N          0.43890       -0.91810        1.47730
C          1.22710       -1.32660        2.53160
C          2.58430       -1.44390        2.89970
N          3.85440       -1.19540        2.42020
C          4.73890       -1.55450        3.40980
C          6.11520       -1.56460        3.55600
C          4.32510       -0.96050        1.07530
C          4.42830       -2.26460        0.28490
C          0.99720       -0.46090        0.23250
C          1.42750        1.00500        0.32290
C         -1.88720        0.97140       -0.64940
C         -2.16050        2.18910        0.23140
C         -7.31700        1.13600       -3.84400
C         -7.02710        1.99260       -4.88090
C         -5.72900        2.60950       -5.15850
O         -4.68330        2.45800       -4.54900
C         -5.92790        3.46880       -6.34050
C         -5.00990        4.27110       -6.99040
C         -5.43220        5.00110       -8.09020
C         -6.75390        4.90110       -8.49750
F         -7.14800        5.61630       -9.56320
C         -7.69340        4.10020       -7.86110
C         -7.26540        3.37330       -6.76330
C         -7.97490        2.44840       -5.87590
C         -9.29390        2.09430       -6.00250
C         -9.99180        1.19490       -5.16980
N        -10.63260        0.47530       -4.54320
C        -10.15310        2.58670       -7.00780
N        -10.90660        2.94750       -7.79500
H          7.70010       -2.59850        6.40640
H         -8.43160       -1.59160       -1.07850
H         -8.88010       -0.87430       -2.63180
H         -9.25370        1.32780       -1.48370
H         -8.82840        0.57890        0.05920
H        -10.27030        0.05100       -0.81540
H          6.83750       -1.26980        2.81820
H          5.31560       -0.50730        1.16020
H          3.67620       -0.24970        0.56750
H          3.46550       -2.77060        0.24040
H          5.14160       -2.93310        0.76030
H          4.76540       -2.06060       -0.72750
H          0.26720       -0.62870       -0.56010
H          1.85970       -1.09070        0.00130
H          1.86610        1.33010       -0.61720
H          0.58510        1.64870        0.55780
H          2.15930        1.13300        1.11750
H         -0.82380        0.87100       -0.83300
H         -2.37960        1.10320       -1.61620
H         -1.72240        2.05730        1.21930
H         -1.74060        3.07970       -0.22800
H         -3.23140        2.33440        0.34960
H         -8.34170        0.79500       -3.78970
H         -3.99040        4.32070       -6.64110
H         -4.75840        5.64370       -8.63440
H         -8.70390        4.07180       -8.23310
