
  xtb     02102218043D
 energy: -196.169108114924 gnorm: 0.000311307599 xtb: 6.4.1 (unknown)
 98110  0     0  0            999 V2000
   -2.3624   -9.0748    0.5353 C   0  0  0  0  0  0  0  0  0  0  0  0
   -1.4815   -9.9496   -0.0553 C   0  0  0  0  0  0  0  0  0  0  0  0
   -0.1530   -9.6898   -0.6317 C   0  0  0  0  0  0  0  0  0  0  0  0
    0.5707   -8.7251   -0.4921 O   0  0  0  0  0  0  0  0  0  0  0  0
    0.1522  -10.8744   -1.4725 C   0  0  0  0  0  0  0  0  0  0  0  0
    1.2097  -11.0616   -2.3447 C   0  0  0  0  0  0  0  0  0  0  0  0
    2.4827   -9.9317   -2.4637 Cl  0  0  0  0  0  0  0  0  0  0  0  0
    1.2094  -12.2081   -3.1514 C   0  0  0  0  0  0  0  0  0  0  0  0
    2.5089  -12.4956   -4.2259 Cl  0  0  0  0  0  0  0  0  0  0  0  0
    0.1311  -13.0900   -3.1127 C   0  0  0  0  0  0  0  0  0  0  0  0
    0.1043  -14.4266   -4.1799 Cl  0  0  0  0  0  0  0  0  0  0  0  0
   -0.9405  -12.8937   -2.2261 C   0  0  0  0  0  0  0  0  0  0  0  0
   -2.3084  -13.9199   -2.3583 Cl  0  0  0  0  0  0  0  0  0  0  0  0
   -0.8891  -11.8149   -1.3535 C   0  0  0  0  0  0  0  0  0  0  0  0
   -1.7954  -11.3481   -0.3077 C   0  0  0  0  0  0  0  0  0  0  0  0
   -2.6185  -12.1277    0.4599 C   0  0  0  0  0  0  0  0  0  0  0  0
   -3.4231  -11.6415    1.5156 C   0  0  0  0  0  0  0  0  0  0  0  0
   -4.1033  -11.3338    2.3876 N   0  0  0  0  0  0  0  0  0  0  0  0
   -2.6527  -13.5394    0.4545 C   0  0  0  0  0  0  0  0  0  0  0  0
   -2.6810  -14.6776    0.5969 N   0  0  0  0  0  0  0  0  0  0  0  0
   -2.2467   -7.7105    0.8310 C   0  0  0  0  0  0  0  0  0  0  0  0
   -3.7343   -6.8847    1.3489 S   0  0  0  0  0  0  0  0  0  0  0  0
   -2.8965   -5.3904    1.4247 C   0  0  0  0  0  0  0  0  0  0  0  0
   -3.0932   -4.0332    1.6556 C   0  0  0  0  0  0  0  0  0  0  0  0
   -4.4147   -2.9417    1.9667 S   0  0  0  0  0  0  0  0  0  0  0  0
   -3.2966   -1.6295    1.8384 C   0  0  0  0  0  0  0  0  0  0  0  0
   -3.3411   -0.2257    1.8545 C   0  0  0  0  0  0  0  0  0  0  0  0
   -4.3991    0.6831    2.0803 C   0  0  0  0  0  0  0  0  0  0  0  0
   -4.1303    2.0924    2.0275 C   0  0  0  0  0  0  0  0  0  0  0  0
   -5.2033    2.8204    2.2938 N   0  0  0  0  0  0  0  0  0  0  0  0
   -6.4439    1.8222    2.5827 S   0  0  0  0  0  0  0  0  0  0  0  0
   -5.6622    0.4213    2.3768 N   0  0  0  0  0  0  0  0  0  0  0  0
   -2.8428    2.5304    1.6426 C   0  0  0  0  0  0  0  0  0  0  0  0
   -2.3515    3.8000    1.3103 C   0  0  0  0  0  0  0  0  0  0  0  0
   -2.8901    5.4436    1.2597 S   0  0  0  0  0  0  0  0  0  0  0  0
   -1.3506    5.8944    0.5473 C   0  0  0  0  0  0  0  0  0  0  0  0
   -0.8493    7.1052    0.0903 C   0  0  0  0  0  0  0  0  0  0  0  0
   -1.6008    8.3905    0.2074 C   0  0  0  0  0  0  0  0  0  0  0  0
   -1.1638    9.1651    1.4539 C   0  0  0  0  0  0  0  0  0  0  0  0
    0.4463    6.9571   -0.4385 C   0  0  0  0  0  0  0  0  0  0  0  0
    1.0169    5.2893   -0.3450 S   0  0  0  0  0  0  0  0  0  0  0  0
   -0.4705    4.8107    0.3802 C   0  0  0  0  0  0  0  0  0  0  0  0
   -1.0486    3.6201    0.8258 C   0  0  0  0  0  0  0  0  0  0  0  0
   -0.7057    2.2968    0.8844 N   0  0  0  0  0  0  0  0  0  0  0  0
   -1.7909    1.6031    1.3828 C   0  0  0  0  0  0  0  0  0  0  0  0
   -2.0194    0.2250    1.6075 C   0  0  0  0  0  0  0  0  0  0  0  0
   -1.1728   -0.8763    1.5221 N   0  0  0  0  0  0  0  0  0  0  0  0
   -1.9647   -2.0053    1.6164 C   0  0  0  0  0  0  0  0  0  0  0  0
   -1.8350   -3.3959    1.4795 C   0  0  0  0  0  0  0  0  0  0  0  0
   -0.8912   -4.3314    1.1373 N   0  0  0  0  0  0  0  0  0  0  0  0
   -1.5232   -5.5486    1.0996 C   0  0  0  0  0  0  0  0  0  0  0  0
   -1.1615   -6.8428    0.7718 C   0  0  0  0  0  0  0  0  0  0  0  0
    0.4885   -4.1570    0.7535 C   0  0  0  0  0  0  0  0  0  0  0  0
    1.4437   -4.5308    1.8859 C   0  0  0  0  0  0  0  0  0  0  0  0
    0.1995   -0.9175    1.9986 C   0  0  0  0  0  0  0  0  0  0  0  0
    0.4126   -0.0417    3.2302 C   0  0  0  0  0  0  0  0  0  0  0  0
    0.4612    1.8142    0.1805 C   0  0  0  0  0  0  0  0  0  0  0  0
    0.0828    0.9734   -1.0353 C   0  0  0  0  0  0  0  0  0  0  0  0
    1.1689    8.0165   -0.9926 C   0  0  0  0  0  0  0  0  0  0  0  0
    2.4213    8.0613   -1.5589 C   0  0  0  0  0  0  0  0  0  0  0  0
    3.3539    6.9330   -1.6991 C   0  0  0  0  0  0  0  0  0  0  0  0
    3.1795    5.7782   -1.3487 O   0  0  0  0  0  0  0  0  0  0  0  0
    4.5443    7.4859   -2.3546 C   0  0  0  0  0  0  0  0  0  0  0  0
    5.7526    7.0386   -2.7789 C   0  0  0  0  0  0  0  0  0  0  0  0
    6.6615    8.3208   -3.4911 S   0  0  0  0  0  0  0  0  0  0  0  0
    5.4019    9.4678   -3.2150 C   0  0  0  0  0  0  0  0  0  0  0  0
    4.3380    8.8813   -2.6028 C   0  0  0  0  0  0  0  0  0  0  0  0
    3.0233    9.2579   -2.1180 C   0  0  0  0  0  0  0  0  0  0  0  0
    2.5020   10.5241   -2.2103 C   0  0  0  0  0  0  0  0  0  0  0  0
    1.2329   10.9365   -1.7642 C   0  0  0  0  0  0  0  0  0  0  0  0
    0.2093   11.3350   -1.4254 N   0  0  0  0  0  0  0  0  0  0  0  0
    3.2391   11.5731   -2.7969 C   0  0  0  0  0  0  0  0  0  0  0  0
    3.8257   12.4383   -3.2710 N   0  0  0  0  0  0  0  0  0  0  0  0
   -3.3444   -9.4775    0.7553 H   0  0  0  0  0  0  0  0  0  0  0  0
   -1.4528    9.0139   -0.6757 H   0  0  0  0  0  0  0  0  0  0  0  0
   -2.6644    8.1574    0.2872 H   0  0  0  0  0  0  0  0  0  0  0  0
   -1.7282   10.0901    1.5278 H   0  0  0  0  0  0  0  0  0  0  0  0
   -1.3416    8.5734    2.3488 H   0  0  0  0  0  0  0  0  0  0  0  0
   -0.1056    9.4109    1.4039 H   0  0  0  0  0  0  0  0  0  0  0  0
   -0.1800   -7.1729    0.4892 H   0  0  0  0  0  0  0  0  0  0  0  0
    0.6376   -3.1235    0.4356 H   0  0  0  0  0  0  0  0  0  0  0  0
    0.6795   -4.8080   -0.1050 H   0  0  0  0  0  0  0  0  0  0  0  0
    2.4706   -4.3640    1.5736 H   0  0  0  0  0  0  0  0  0  0  0  0
    1.2490   -3.9400    2.7787 H   0  0  0  0  0  0  0  0  0  0  0  0
    1.3249   -5.5803    2.1413 H   0  0  0  0  0  0  0  0  0  0  0  0
    0.8974   -0.6509    1.2003 H   0  0  0  0  0  0  0  0  0  0  0  0
    0.3978   -1.9508    2.2830 H   0  0  0  0  0  0  0  0  0  0  0  0
    0.2372    1.0088    3.0175 H   0  0  0  0  0  0  0  0  0  0  0  0
    1.4337   -0.1579    3.5846 H   0  0  0  0  0  0  0  0  0  0  0  0
   -0.2668   -0.3452    4.0238 H   0  0  0  0  0  0  0  0  0  0  0  0
    1.0129    2.6975   -0.1495 H   0  0  0  0  0  0  0  0  0  0  0  0
    1.1137    1.2614    0.8579 H   0  0  0  0  0  0  0  0  0  0  0  0
   -0.4952    0.0986   -0.7481 H   0  0  0  0  0  0  0  0  0  0  0  0
    0.9825    0.6489   -1.5508 H   0  0  0  0  0  0  0  0  0  0  0  0
   -0.5145    1.5658   -1.7242 H   0  0  0  0  0  0  0  0  0  0  0  0
    0.6344    8.9568   -0.9700 H   0  0  0  0  0  0  0  0  0  0  0  0
    6.1669    6.0521   -2.7222 H   0  0  0  0  0  0  0  0  0  0  0  0
    5.5402   10.4845   -3.5236 H   0  0  0  0  0  0  0  0  0  0  0  0
  1  2  2  0  0  0  0
  2  3  1  0  0  0  0
  3  4  2  0  0  0  0
  3  5  1  0  0  0  0
  5  6  2  0  0  0  0
  6  7  1  0  0  0  0
  6  8  1  0  0  0  0
  8  9  1  0  0  0  0
  8 10  2  0  0  0  0
 10 11  1  0  0  0  0
 10 12  1  0  0  0  0
 12 13  1  0  0  0  0
 12 14  2  0  0  0  0
 14 15  1  0  0  0  0
 15 16  2  0  0  0  0
 16 17  1  0  0  0  0
 17 18  3  0  0  0  0
 16 19  1  0  0  0  0
 19 20  3  0  0  0  0
  1 21  1  0  0  0  0
 21 22  1  0  0  0  0
 22 23  1  0  0  0  0
 23 24  1  0  0  0  0
 24 25  1  0  0  0  0
 25 26  1  0  0  0  0
 26 27  1  0  0  0  0
 27 28  1  0  0  0  0
 28 29  1  0  0  0  0
 29 30  2  0  0  0  0
 30 31  1  0  0  0  0
 31 32  1  0  0  0  0
 29 33  1  0  0  0  0
 33 34  1  0  0  0  0
 34 35  1  0  0  0  0
 35 36  1  0  0  0  0
 36 37  1  0  0  0  0
 37 38  1  0  0  0  0
 38 39  1  0  0  0  0
 37 40  2  0  0  0  0
 40 41  1  0  0  0  0
 41 42  1  0  0  0  0
 42 43  1  0  0  0  0
 43 44  1  0  0  0  0
 44 45  1  0  0  0  0
 45 46  1  0  0  0  0
 46 47  1  0  0  0  0
 47 48  1  0  0  0  0
 48 49  1  0  0  0  0
 49 50  1  0  0  0  0
 50 51  1  0  0  0  0
 51 52  1  0  0  0  0
 50 53  1  0  0  0  0
 53 54  1  0  0  0  0
 47 55  1  0  0  0  0
 55 56  1  0  0  0  0
 44 57  1  0  0  0  0
 57 58  1  0  0  0  0
 40 59  1  0  0  0  0
 59 60  2  0  0  0  0
 60 61  1  0  0  0  0
 61 62  2  0  0  0  0
 61 63  1  0  0  0  0
 63 64  2  0  0  0  0
 64 65  1  0  0  0  0
 65 66  1  0  0  0  0
 66 67  2  0  0  0  0
 67 68  1  0  0  0  0
 68 69  2  0  0  0  0
 69 70  1  0  0  0  0
 70 71  3  0  0  0  0
 69 72  1  0  0  0  0
 72 73  3  0  0  0  0
 15  2  1  0  0  0  0
 52 21  2  0  0  0  0
 68 60  1  0  0  0  0
 14  5  1  0  0  0  0
 51 23  2  0  0  0  0
 67 63  1  0  0  0  0
 49 24  2  0  0  0  0
 48 26  2  0  0  0  0
 46 27  2  0  0  0  0
 32 28  2  0  0  0  0
 45 33  2  0  0  0  0
 43 34  2  0  0  0  0
 42 36  2  0  0  0  0
  1 74  1  0  0  0  0
 38 75  1  0  0  0  0
 38 76  1  0  0  0  0
 39 77  1  0  0  0  0
 39 78  1  0  0  0  0
 39 79  1  0  0  0  0
 52 80  1  0  0  0  0
 53 81  1  0  0  0  0
 53 82  1  0  0  0  0
 54 83  1  0  0  0  0
 54 84  1  0  0  0  0
 54 85  1  0  0  0  0
 55 86  1  0  0  0  0
 55 87  1  0  0  0  0
 56 88  1  0  0  0  0
 56 89  1  0  0  0  0
 56 90  1  0  0  0  0
 57 91  1  0  0  0  0
 57 92  1  0  0  0  0
 58 93  1  0  0  0  0
 58 94  1  0  0  0  0
 58 95  1  0  0  0  0
 59 96  1  0  0  0  0
 64 97  1  0  0  0  0
 66 98  1  0  0  0  0
M  END
