104

C          0.04940       -9.56520       -1.27420
C          0.69600      -10.76740       -1.44060
C          2.13970      -10.98260       -1.36370
O          3.01180      -10.14550       -1.24020
C          2.33470      -12.44950       -1.43510
C          3.50750      -13.17090       -1.30410
Cl         5.02350      -12.39550       -1.19610
C          3.42060      -14.56990       -1.25130
Cl         4.84410      -15.50800       -1.12650
C          2.17410      -15.19230       -1.25220
Cl         2.08830      -16.89210       -1.07870
C          0.98670      -14.45140       -1.37670
Cl        -0.50570      -15.27400       -1.18210
C          1.07660      -13.07590       -1.54720
C          0.06360      -12.03780       -1.73590
C         -1.17960      -12.20870       -2.29160
C         -2.14070      -11.18650       -2.44420
N         -2.98900      -10.42420       -2.58390
C         -1.63650      -13.37040       -2.95090
N         -2.05880      -14.21470       -3.60380
C          0.54920       -8.28240       -1.03300
S          2.25130       -7.82430       -0.90630
C          1.78830       -6.19310       -0.63190
C          2.33340       -4.93320       -0.40430
S          3.91320       -4.21050       -0.31420
C          3.14180       -2.68680       -0.06590
C          3.53820       -1.35750        0.14020
C          4.81920       -0.77800        0.27550
C          4.91860        0.62070        0.57510
N          6.17250        1.01740        0.72610
S          7.14410       -0.25820        0.50490
N          6.00330       -1.36590        0.20890
C          3.73780        1.39500        0.61760
C          3.54170        2.77460        0.75620
S          4.47140        4.20460        1.03770
C          2.99470        5.14500        0.92930
C          2.74660        6.50550        1.04170
C          3.81820        7.49910        1.35010
C          3.88580        7.77590        2.85470
C          1.37750        6.79130        0.89120
S          0.42300        5.33560        0.59480
C          1.84780        4.36920        0.68370
C          2.17100        3.01320        0.59010
N          1.51310        1.83020        0.38080
C          2.45180        0.81480        0.40740
C          2.35170       -0.59290        0.28090
N          1.25680       -1.44900        0.21310
C          1.73970       -2.72240       -0.02730
C          1.25540       -4.02090       -0.25800
N          0.06600       -4.69570       -0.42170
C          0.37930       -6.01650       -0.63830
C         -0.31160       -7.18780       -0.86740
C         -1.28050       -4.18880       -0.52510
C         -2.08920       -4.44700        0.74600
C          0.00390       -1.27090        0.92220
C          0.20550       -0.70060        2.32410
C          0.16680        1.83470       -0.14810
C          0.11900        1.29630       -1.57490
C          0.85980        8.08570        0.97970
C         -0.43010        8.55200        0.88790
C         -1.62890        7.74520        0.65180
O         -1.69600        6.53920        0.47950
C         -2.76310        8.68730        0.65680
C         -4.10660        8.42030        0.48350
C         -5.02180        9.46630        0.52750
C         -6.48960        9.25450        0.35100
C         -4.52110       10.75060        0.74790
F         -5.39940       11.76970        0.79350
C         -3.17830       11.04490        0.92300
C         -2.28230        9.98920        0.87590
C         -0.82780        9.93920        1.01820
C         -0.02010       11.02710        1.23200
C          1.38320       11.00210        1.36740
N          2.52420       11.06890        1.48790
C         -0.49380       12.35140        1.34510
N         -0.80990       13.45010        1.44890
H         -1.03280       -9.59660       -1.30990
H          4.77290        7.08310        1.02210
H          3.65230        8.43600        0.81670
H          2.94650        8.19070        3.21300
H          4.09100        6.85740        3.39950
H          4.67760        8.49000        3.06140
H         -1.38020       -7.29230       -0.92530
H         -1.24080       -3.12270       -0.75750
H         -1.76380       -4.69670       -1.36620
H         -3.09120       -4.04200        0.63590
H         -1.62030       -3.98840        1.61390
H         -2.16360       -5.51530        0.93020
H         -0.68740       -0.65650        0.34000
H         -0.43650       -2.26110        1.02450
H         -0.75400       -0.63690        2.83120
H          0.85930       -1.35320        2.89870
H          0.65150        0.28920        2.30050
H         -0.16470        2.87580       -0.14260
H         -0.50650        1.28060        0.50820
H         -0.90080        1.33430       -1.94790
H          0.47490        0.27020       -1.62350
H          0.74600        1.90460       -2.22240
H          1.61820        8.83510        1.16020
H         -4.43560        7.40590        0.31630
H         -6.71030        8.20700        0.16810
H         -7.02560        9.58220        1.24120
H         -6.85740        9.84930       -0.48440
H         -2.88050       12.06710        1.08780
