98

C         -2.36240       -9.07480        0.53530
C         -1.48150       -9.94960       -0.05530
C         -0.15300       -9.68980       -0.63170
O          0.57070       -8.72510       -0.49210
C          0.15220      -10.87440       -1.47250
C          1.20970      -11.06160       -2.34470
Cl         2.48270       -9.93170       -2.46370
C          1.20940      -12.20810       -3.15140
Cl         2.50890      -12.49560       -4.22590
C          0.13110      -13.09000       -3.11270
Cl         0.10430      -14.42660       -4.17990
C         -0.94050      -12.89370       -2.22610
Cl        -2.30840      -13.91990       -2.35830
C         -0.88910      -11.81490       -1.35350
C         -1.79540      -11.34810       -0.30770
C         -2.61850      -12.12770        0.45990
C         -3.42310      -11.64150        1.51560
N         -4.10330      -11.33380        2.38760
C         -2.65270      -13.53940        0.45450
N         -2.68100      -14.67760        0.59690
C         -2.24670       -7.71050        0.83100
S         -3.73430       -6.88470        1.34890
C         -2.89650       -5.39040        1.42470
C         -3.09320       -4.03320        1.65560
S         -4.41470       -2.94170        1.96670
C         -3.29660       -1.62950        1.83840
C         -3.34110       -0.22570        1.85450
C         -4.39910        0.68310        2.08030
C         -4.13030        2.09240        2.02750
N         -5.20330        2.82040        2.29380
S         -6.44390        1.82220        2.58270
N         -5.66220        0.42130        2.37680
C         -2.84280        2.53040        1.64260
C         -2.35150        3.80000        1.31030
S         -2.89010        5.44360        1.25970
C         -1.35060        5.89440        0.54730
C         -0.84930        7.10520        0.09030
C         -1.60080        8.39050        0.20740
C         -1.16380        9.16510        1.45390
C          0.44630        6.95710       -0.43850
S          1.01690        5.28930       -0.34500
C         -0.47050        4.81070        0.38020
C         -1.04860        3.62010        0.82580
N         -0.70570        2.29680        0.88440
C         -1.79090        1.60310        1.38280
C         -2.01940        0.22500        1.60750
N         -1.17280       -0.87630        1.52210
C         -1.96470       -2.00530        1.61640
C         -1.83500       -3.39590        1.47950
N         -0.89120       -4.33140        1.13730
C         -1.52320       -5.54860        1.09960
C         -1.16150       -6.84280        0.77180
C          0.48850       -4.15700        0.75350
C          1.44370       -4.53080        1.88590
C          0.19950       -0.91750        1.99860
C          0.41260       -0.04170        3.23020
C          0.46120        1.81420        0.18050
C          0.08280        0.97340       -1.03530
C          1.16890        8.01650       -0.99260
C          2.42130        8.06130       -1.55890
C          3.35390        6.93300       -1.69910
O          3.17950        5.77820       -1.34870
C          4.54430        7.48590       -2.35460
C          5.75260        7.03860       -2.77890
S          6.66150        8.32080       -3.49110
C          5.40190        9.46780       -3.21500
C          4.33800        8.88130       -2.60280
C          3.02330        9.25790       -2.11800
C          2.50200       10.52410       -2.21030
C          1.23290       10.93650       -1.76420
N          0.20930       11.33500       -1.42540
C          3.23910       11.57310       -2.79690
N          3.82570       12.43830       -3.27100
H         -3.34440       -9.47750        0.75530
H         -1.45280        9.01390       -0.67570
H         -2.66440        8.15740        0.28720
H         -1.72820       10.09010        1.52780
H         -1.34160        8.57340        2.34880
H         -0.10560        9.41090        1.40390
H         -0.18000       -7.17290        0.48920
H          0.63760       -3.12350        0.43560
H          0.67950       -4.80800       -0.10500
H          2.47060       -4.36400        1.57360
H          1.24900       -3.94000        2.77870
H          1.32490       -5.58030        2.14130
H          0.89740       -0.65090        1.20030
H          0.39780       -1.95080        2.28300
H          0.23720        1.00880        3.01750
H          1.43370       -0.15790        3.58460
H         -0.26680       -0.34520        4.02380
H          1.01290        2.69750       -0.14950
H          1.11370        1.26140        0.85790
H         -0.49520        0.09860       -0.74810
H          0.98250        0.64890       -1.55080
H         -0.51450        1.56580       -1.72420
H          0.63440        8.95680       -0.97000
H          6.16690        6.05210       -2.72220
H          5.54020       10.48450       -3.52360
