101

C          8.83230        2.29300        3.58200
C          9.24950        3.58670        3.37760
C          8.46090        4.77890        3.02840
O          7.30920        4.85350        2.65180
C          9.36510        5.93390        3.25510
C          9.07040        7.28460        3.19600
Cl         7.54810        7.84620        2.66860
C         10.05780        8.19730        3.59260
Cl         9.75120        9.87760        3.50510
C         11.27200        7.73810        4.10000
Cl        12.42100        8.86780        4.67390
C         11.56370        6.36570        4.16200
Cl        12.99840        5.87090        4.96090
C         10.62850        5.46690        3.66620
C         10.63160        4.01230        3.53880
C         11.73410        3.22280        3.34660
C         13.04670        3.69140        3.11820
N         14.11820        3.97470        2.82130
C         11.69890        1.82350        3.15020
N         11.76750        0.68960        2.98370
C          7.58570        1.67760        3.40950
S          7.49290       -0.03650        3.86890
C          5.86090       -0.09930        3.35230
C          4.79610       -0.98090        3.20670
S          4.47710       -2.67710        3.42770
C          2.90490       -2.41330        2.76370
C          1.78190       -3.19000        2.43380
C          1.48860       -4.55860        2.62780
C          0.20170       -5.05880        2.23300
N          0.05000       -6.34200        2.52090
S          1.40710       -6.87610        3.22200
N          2.24240       -5.49240        3.18630
C         -0.68710       -4.19810        1.55010
C         -1.89710       -4.43690        0.88610
S         -2.98780       -5.74600        0.59130
C         -3.91230       -4.69620       -0.46680
C         -5.04530       -4.91260       -1.23640
C         -5.72290       -6.24120       -1.30720
C         -5.15670       -7.08150       -2.45580
C         -5.40550       -3.75650       -1.95510
S         -4.32390       -2.40190       -1.61550
C         -3.38800       -3.39330       -0.56530
C         -2.24460       -3.25050        0.22210
N         -1.30960       -2.28340        0.48040
C         -0.35150       -2.83400        1.30350
C          0.83540       -2.30590        1.86120
N          1.33390       -1.00430        1.90410
C          2.61570       -1.08410        2.42430
C          3.71860       -0.24360        2.64710
N          4.10830        1.06140        2.45100
C          5.41620        1.15680        2.86090
C          6.38310        2.14690        2.89130
C          3.44130        2.09110        1.68920
C          3.19770        1.65560        0.24720
C          0.51130        0.15390        2.21980
C         -0.48160       -0.14710        3.33990
C         -1.24720       -1.08470       -0.32520
C         -2.29550       -0.05110        0.08040
C         -6.45850       -3.71450       -2.87040
C         -6.95970       -2.67000       -3.61360
C         -6.57760       -1.26470       -3.51040
O         -5.64730       -0.78540       -2.88900
C         -7.58730       -0.51260       -4.29050
C         -7.74520        0.85630       -4.40880
Cl        -6.61380        1.94500       -3.74190
C         -8.87370        1.33710       -5.08810
Cl        -9.09680        3.02100       -5.28600
C         -9.83570        0.44730       -5.56260
Cl       -11.25320        1.06070       -6.29740
C         -9.67120       -0.94230       -5.43530
Cl       -10.97450       -1.96200       -5.88550
C         -8.50360       -1.42170       -4.85740
C         -8.00990       -2.77510       -4.60910
C         -8.29440       -3.89530       -5.34580
C         -7.72810       -5.16550       -5.10130
N         -7.30820       -6.22590       -4.96720
C         -9.02160       -3.93020       -6.55540
N         -9.50190       -4.05350       -7.59030
H          9.58750        1.61670        3.96560
H         -5.54310       -6.76180       -0.36400
H         -6.79990       -6.12550       -1.43370
H         -5.37400       -6.62180       -3.41640
H         -5.60550       -8.07050       -2.44220
H         -4.07970       -7.18670       -2.35010
H          6.26730        3.16310        2.56410
H          4.08850        2.96950        1.70760
H          2.49710        2.36590        2.17140
H          2.58570        0.75780        0.21290
H          2.69130        2.44720       -0.29760
H          4.14460        1.44530       -0.24390
H         -0.01030        0.52150        1.33600
H          1.18990        0.93480        2.55950
H          0.04570       -0.50080        4.22340
H         -1.02540        0.75760        3.60000
H         -1.19470       -0.91080        3.04030
H         -1.43350       -1.37450       -1.36540
H         -0.23410       -0.68520       -0.26880
H         -2.15340        0.85740       -0.49810
H         -2.23430        0.18870        1.13820
H         -3.29220       -0.42930       -0.12860
H         -6.96680       -4.66260       -2.99020
