
  xtb     02022205583D
 energy: -216.246423349512 gnorm: 0.000700985975 xtb: 6.4.1 (unknown)
114129  0     0  0            999 V2000
   -0.8305   10.4248    2.3793 C   0  0  0  0  0  0  0  0  0  0  0  0
   -2.1186   10.6117    2.8080 C   0  0  0  0  0  0  0  0  0  0  0  0
   -2.6174   11.9924    2.9992 C   0  0  0  0  0  0  0  0  0  0  0  0
   -1.9591   13.0044    3.0313 O   0  0  0  0  0  0  0  0  0  0  0  0
   -4.0961   11.8647    3.0756 C   0  0  0  0  0  0  0  0  0  0  0  0
   -5.0602   12.8569    3.0812 C   0  0  0  0  0  0  0  0  0  0  0  0
   -4.6371   14.5069    3.1779 Cl  0  0  0  0  0  0  0  0  0  0  0  0
   -6.4074   12.4733    2.9946 C   0  0  0  0  0  0  0  0  0  0  0  0
   -7.6343   13.6639    3.0246 Cl  0  0  0  0  0  0  0  0  0  0  0  0
   -6.7468   11.1303    2.8406 C   0  0  0  0  0  0  0  0  0  0  0  0
   -8.3892   10.6965    2.6347 Cl  0  0  0  0  0  0  0  0  0  0  0  0
   -5.7627   10.1293    2.8372 C   0  0  0  0  0  0  0  0  0  0  0  0
   -6.2264    8.5172    2.4749 Cl  0  0  0  0  0  0  0  0  0  0  0  0
   -4.4398   10.4996    3.0213 C   0  0  0  0  0  0  0  0  0  0  0  0
   -3.2070    9.7135    3.1113 C   0  0  0  0  0  0  0  0  0  0  0  0
   -3.0996    8.4862    3.7159 C   0  0  0  0  0  0  0  0  0  0  0  0
   -4.1515    7.7923    4.3506 C   0  0  0  0  0  0  0  0  0  0  0  0
   -4.9229    7.1859    4.9460 N   0  0  0  0  0  0  0  0  0  0  0  0
   -1.8771    7.8222    3.9448 C   0  0  0  0  0  0  0  0  0  0  0  0
   -0.9288    7.2105    4.1576 N   0  0  0  0  0  0  0  0  0  0  0  0
   -0.2409    9.2883    1.8128 C   0  0  0  0  0  0  0  0  0  0  0  0
    1.5121    9.2714    1.5882 S   0  0  0  0  0  0  0  0  0  0  0  0
    1.4271    7.6843    0.9501 C   0  0  0  0  0  0  0  0  0  0  0  0
    2.2389    6.6373    0.5299 C   0  0  0  0  0  0  0  0  0  0  0  0
    3.9325    6.2607    0.4757 S   0  0  0  0  0  0  0  0  0  0  0  0
    3.5058    4.6679   -0.0234 C   0  0  0  0  0  0  0  0  0  0  0  0
    4.1902    3.4575   -0.2612 C   0  0  0  0  0  0  0  0  0  0  0  0
    5.5552    3.0908   -0.2616 C   0  0  0  0  0  0  0  0  0  0  0  0
    5.9214    1.7380   -0.5982 C   0  0  0  0  0  0  0  0  0  0  0  0
    7.2338    1.5623   -0.6026 N   0  0  0  0  0  0  0  0  0  0  0  0
    7.9458    2.9612   -0.2153 S   0  0  0  0  0  0  0  0  0  0  0  0
    6.6116    3.8530   -0.0254 N   0  0  0  0  0  0  0  0  0  0  0  0
    4.9059    0.7797   -0.8183 C   0  0  0  0  0  0  0  0  0  0  0  0
    4.9089   -0.6094   -1.0192 C   0  0  0  0  0  0  0  0  0  0  0  0
    6.0399   -1.9049   -1.2148 S   0  0  0  0  0  0  0  0  0  0  0  0
    4.6959   -3.0306   -1.2914 C   0  0  0  0  0  0  0  0  0  0  0  0
    4.6352   -4.4111   -1.4338 C   0  0  0  0  0  0  0  0  0  0  0  0
    5.8551   -5.2674   -1.5346 C   0  0  0  0  0  0  0  0  0  0  0  0
    6.2610   -5.8034   -0.1590 C   0  0  0  0  0  0  0  0  0  0  0  0
    3.3068   -4.8700   -1.4048 C   0  0  0  0  0  0  0  0  0  0  0  0
    2.1478   -3.5516   -1.2243 S   0  0  0  0  0  0  0  0  0  0  0  0
    3.4399   -2.4135   -1.1730 C   0  0  0  0  0  0  0  0  0  0  0  0
    3.5692   -1.0306   -1.0260 C   0  0  0  0  0  0  0  0  0  0  0  0
    2.7402    0.0479   -0.8739 N   0  0  0  0  0  0  0  0  0  0  0  0
    3.5362    1.1630   -0.7533 C   0  0  0  0  0  0  0  0  0  0  0  0
    3.1974    2.5157   -0.5843 C   0  0  0  0  0  0  0  0  0  0  0  0
    1.9297    3.1223   -0.6567 N   0  0  0  0  0  0  0  0  0  0  0  0
    2.1332    4.4403   -0.2142 C   0  0  0  0  0  0  0  0  0  0  0  0
    1.3821    5.5601    0.1735 C   0  0  0  0  0  0  0  0  0  0  0  0
    0.0688    5.9275    0.3821 N   0  0  0  0  0  0  0  0  0  0  0  0
    0.0906    7.2159    0.8680 C   0  0  0  0  0  0  0  0  0  0  0  0
   -0.8399    8.1190    1.3503 C   0  0  0  0  0  0  0  0  0  0  0  0
   -1.0360    5.0334    0.6648 C   0  0  0  0  0  0  0  0  0  0  0  0
   -2.2807    5.3566   -0.1575 C   0  0  0  0  0  0  0  0  0  0  0  0
    1.2703    2.9069   -1.9549 C   0  0  0  0  0  0  0  0  0  0  0  0
   -0.2416    3.0430   -1.9525 C   0  0  0  0  0  0  0  0  0  0  0  0
    1.3644   -0.0985   -0.4537 C   0  0  0  0  0  0  0  0  0  0  0  0
    1.2790   -0.6812    0.9555 C   0  0  0  0  0  0  0  0  0  0  0  0
    2.9701   -6.2263   -1.4925 C   0  0  0  0  0  0  0  0  0  0  0  0
    1.7527   -6.8567   -1.4375 C   0  0  0  0  0  0  0  0  0  0  0  0
    0.4465   -6.2108   -1.2839 C   0  0  0  0  0  0  0  0  0  0  0  0
    0.2132   -5.0156   -1.2012 O   0  0  0  0  0  0  0  0  0  0  0  0
   -0.5519   -7.2911   -1.2549 C   0  0  0  0  0  0  0  0  0  0  0  0
   -1.9306   -7.1540   -1.1149 C   0  0  0  0  0  0  0  0  0  0  0  0
   -2.6136   -8.3462   -1.1169 C   0  0  0  0  0  0  0  0  0  0  0  0
   -1.9719   -9.5843   -1.2532 C   0  0  0  0  0  0  0  0  0  0  0  0
   -0.6124   -9.7322   -1.3962 C   0  0  0  0  0  0  0  0  0  0  0  0
    0.1031   -8.5316   -1.3927 C   0  0  0  0  0  0  0  0  0  0  0  0
    1.5404   -8.2892   -1.5145 C   0  0  0  0  0  0  0  0  0  0  0  0
    2.4950   -9.2619   -1.6737 C   0  0  0  0  0  0  0  0  0  0  0  0
    2.2240  -10.6443   -1.7499 C   0  0  0  0  0  0  0  0  0  0  0  0
    2.0875  -11.7823   -1.8197 N   0  0  0  0  0  0  0  0  0  0  0  0
    3.8840   -9.0475   -1.7897 C   0  0  0  0  0  0  0  0  0  0  0  0
    5.0268   -8.9683   -1.8871 N   0  0  0  0  0  0  0  0  0  0  0  0
   -3.2657  -10.3544   -1.1633 C   0  0  0  0  0  0  0  0  0  0  0  0
   -3.5932  -11.0636    0.1738 C   0  0  0  0  0  0  0  0  0  0  0  0
   -2.8734  -10.2950    1.2541 C   0  0  0  0  0  0  0  0  0  0  0  0
   -3.4776   -9.1218    1.3871 C   0  0  0  0  0  0  0  0  0  0  0  0
   -4.6176   -9.0762    0.3999 C   0  0  0  0  0  0  0  0  0  0  0  0
   -5.0282  -10.5574    0.3918 C   0  0  0  0  0  0  0  0  0  0  0  0
   -3.9798   -8.9747   -1.0081 C   0  0  0  0  0  0  0  0  0  0  0  0
   -0.2082   11.3125    2.4275 H   0  0  0  0  0  0  0  0  0  0  0  0
    5.6931   -6.1040   -2.2156 H   0  0  0  0  0  0  0  0  0  0  0  0
    6.6679   -4.6558   -1.9316 H   0  0  0  0  0  0  0  0  0  0  0  0
    5.4701   -6.4189    0.2633 H   0  0  0  0  0  0  0  0  0  0  0  0
    6.4638   -4.9808    0.5228 H   0  0  0  0  0  0  0  0  0  0  0  0
    7.1566   -6.4108   -0.2511 H   0  0  0  0  0  0  0  0  0  0  0  0
   -1.9047    7.9820    1.3452 H   0  0  0  0  0  0  0  0  0  0  0  0
   -1.2791    5.1132    1.7315 H   0  0  0  0  0  0  0  0  0  0  0  0
   -0.6961    4.0164    0.4722 H   0  0  0  0  0  0  0  0  0  0  0  0
   -3.0213    4.5744   -0.0166 H   0  0  0  0  0  0  0  0  0  0  0  0
   -2.0493    5.4301   -1.2171 H   0  0  0  0  0  0  0  0  0  0  0  0
   -2.7192    6.2995    0.1539 H   0  0  0  0  0  0  0  0  0  0  0  0
    1.5480    1.9070   -2.2921 H   0  0  0  0  0  0  0  0  0  0  0  0
    1.6874    3.6207   -2.6787 H   0  0  0  0  0  0  0  0  0  0  0  0
   -0.5287    4.0770   -1.8058 H   0  0  0  0  0  0  0  0  0  0  0  0
   -0.6199    2.7202   -2.9194 H   0  0  0  0  0  0  0  0  0  0  0  0
   -0.7008    2.4247   -1.1852 H   0  0  0  0  0  0  0  0  0  0  0  0
    0.8892    0.8797   -0.4626 H   0  0  0  0  0  0  0  0  0  0  0  0
    0.8571   -0.7628   -1.1597 H   0  0  0  0  0  0  0  0  0  0  0  0
    1.7134   -1.6763    0.9878 H   0  0  0  0  0  0  0  0  0  0  0  0
    1.8071   -0.0424    1.6602 H   0  0  0  0  0  0  0  0  0  0  0  0
    0.2382   -0.7521    1.2578 H   0  0  0  0  0  0  0  0  0  0  0  0
    3.8307   -6.8703   -1.6092 H   0  0  0  0  0  0  0  0  0  0  0  0
   -2.3833   -6.1798   -1.0156 H   0  0  0  0  0  0  0  0  0  0  0  0
   -0.1373  -10.6930   -1.5013 H   0  0  0  0  0  0  0  0  0  0  0  0
   -3.5171  -10.9638   -2.0290 H   0  0  0  0  0  0  0  0  0  0  0  0
   -3.4371  -12.1388    0.1644 H   0  0  0  0  0  0  0  0  0  0  0  0
   -1.9917  -10.6497    1.7548 H   0  0  0  0  0  0  0  0  0  0  0  0
   -3.2010   -8.2999    2.0213 H   0  0  0  0  0  0  0  0  0  0  0  0
   -5.3945   -8.3422    0.5975 H   0  0  0  0  0  0  0  0  0  0  0  0
   -5.7073  -10.8150   -0.4197 H   0  0  0  0  0  0  0  0  0  0  0  0
   -5.4498  -10.8827    1.3417 H   0  0  0  0  0  0  0  0  0  0  0  0
   -4.7014   -8.6852   -1.7698 H   0  0  0  0  0  0  0  0  0  0  0  0
  1  2  2  0  0  0  0
  2  3  1  0  0  0  0
  3  4  2  0  0  0  0
  3  5  1  0  0  0  0
  5  6  2  0  0  0  0
  6  7  1  0  0  0  0
  6  8  1  0  0  0  0
  8  9  1  0  0  0  0
  8 10  2  0  0  0  0
 10 11  1  0  0  0  0
 10 12  1  0  0  0  0
 12 13  1  0  0  0  0
 12 14  2  0  0  0  0
 14 15  1  0  0  0  0
 15 16  2  0  0  0  0
 16 17  1  0  0  0  0
 17 18  3  0  0  0  0
 16 19  1  0  0  0  0
 19 20  3  0  0  0  0
  1 21  1  0  0  0  0
 21 22  1  0  0  0  0
 22 23  1  0  0  0  0
 23 24  1  0  0  0  0
 24 25  1  0  0  0  0
 25 26  1  0  0  0  0
 26 27  1  0  0  0  0
 27 28  1  0  0  0  0
 28 29  1  0  0  0  0
 29 30  2  0  0  0  0
 30 31  1  0  0  0  0
 31 32  1  0  0  0  0
 29 33  1  0  0  0  0
 33 34  1  0  0  0  0
 34 35  1  0  0  0  0
 35 36  1  0  0  0  0
 36 37  1  0  0  0  0
 37 38  1  0  0  0  0
 38 39  1  0  0  0  0
 37 40  2  0  0  0  0
 40 41  1  0  0  0  0
 41 42  1  0  0  0  0
 42 43  1  0  0  0  0
 43 44  1  0  0  0  0
 44 45  1  0  0  0  0
 45 46  1  0  0  0  0
 46 47  1  0  0  0  0
 47 48  1  0  0  0  0
 48 49  1  0  0  0  0
 49 50  1  0  0  0  0
 50 51  1  0  0  0  0
 51 52  1  0  0  0  0
 50 53  1  0  0  0  0
 53 54  1  0  0  0  0
 47 55  1  0  0  0  0
 55 56  1  0  0  0  0
 44 57  1  0  0  0  0
 57 58  1  0  0  0  0
 40 59  1  0  0  0  0
 59 60  2  0  0  0  0
 60 61  1  0  0  0  0
 61 62  2  0  0  0  0
 61 63  1  0  0  0  0
 63 64  2  0  0  0  0
 64 65  1  0  0  0  0
 65 66  2  0  0  0  0
 66 67  1  0  0  0  0
 67 68  2  0  0  0  0
 68 69  1  0  0  0  0
 69 70  2  0  0  0  0
 70 71  1  0  0  0  0
 71 72  3  0  0  0  0
 70 73  1  0  0  0  0
 73 74  3  0  0  0  0
 66 75  1  0  0  0  0
 75 76  1  0  0  0  0
 76 77  1  0  0  0  0
 77 78  2  0  0  0  0
 78 79  1  0  0  0  0
 79 80  1  0  0  0  0
 79 81  1  0  0  0  0
 15  2  1  0  0  0  0
 52 21  2  0  0  0  0
 69 60  1  0  0  0  0
 81 75  1  0  0  0  0
 14  5  1  0  0  0  0
 51 23  2  0  0  0  0
 68 63  1  0  0  0  0
 80 76  1  0  0  0  0
 49 24  2  0  0  0  0
 81 65  1  0  0  0  0
 48 26  2  0  0  0  0
 46 27  2  0  0  0  0
 32 28  2  0  0  0  0
 45 33  2  0  0  0  0
 43 34  2  0  0  0  0
 42 36  2  0  0  0  0
  1 82  1  0  0  0  0
 38 83  1  0  0  0  0
 38 84  1  0  0  0  0
 39 85  1  0  0  0  0
 39 86  1  0  0  0  0
 39 87  1  0  0  0  0
 52 88  1  0  0  0  0
 53 89  1  0  0  0  0
 53 90  1  0  0  0  0
 54 91  1  0  0  0  0
 54 92  1  0  0  0  0
 54 93  1  0  0  0  0
 55 94  1  0  0  0  0
 55 95  1  0  0  0  0
 56 96  1  0  0  0  0
 56 97  1  0  0  0  0
 56 98  1  0  0  0  0
 57 99  1  0  0  0  0
 57100  1  0  0  0  0
 58101  1  0  0  0  0
 58102  1  0  0  0  0
 58103  1  0  0  0  0
 59104  1  0  0  0  0
 64105  1  0  0  0  0
 67106  1  0  0  0  0
 75107  1  0  0  0  0
 76108  1  0  0  0  0
 77109  1  0  0  0  0
 78110  1  0  0  0  0
 79111  1  0  0  0  0
 80112  1  0  0  0  0
 80113  1  0  0  0  0
 81114  1  0  0  0  0
M  END
