115

C          1.24000       -5.40620       -5.99310
C          1.86400       -5.61040       -7.20010
C          3.19250       -5.16020       -7.64710
O          3.97510       -4.41930       -7.09150
C          3.42530       -5.83620       -8.94830
C          4.56380       -5.82290       -9.73460
Cl         5.89870       -4.82900       -9.36000
C          4.60170       -6.65870      -10.85980
Cl         5.96980       -6.64670      -11.88570
C          3.54640       -7.53180      -11.11850
Cl         3.66160       -8.61760      -12.43520
C          2.39710       -7.54550      -10.31190
Cl         1.22660       -8.77010      -10.58070
C          2.30960       -6.63360       -9.26800
C          1.25610       -6.34400       -8.29900
C         -0.08890       -6.50100       -8.51130
C         -1.10530       -6.16200       -7.59020
N         -1.99860       -5.92250       -6.90930
C         -0.68800       -6.84150       -9.74430
N         -1.27490       -7.00040      -10.71760
C          1.58150       -4.62570       -4.88100
S          0.35870       -4.54240       -3.60260
C          1.29330       -3.38870       -2.76810
C          1.11940       -2.54120       -1.63280
C          2.26430       -1.71370       -1.55670
C          3.25910       -2.05570       -2.64900
C          2.50260       -3.10970       -3.40870
C          2.66840       -3.79930       -4.59300
C          3.57200       -0.83900       -3.53910
C          2.32520       -0.20850       -4.14770
C          4.56970       -2.61670       -2.06320
C          4.35330       -3.83730       -1.17710
C          2.32350       -0.70020       -0.62960
C          1.21650       -0.51160        0.19540
C          0.92700        0.57880        1.09820
C         -0.38140        0.41660        1.59480
C         -0.97800       -0.88750        1.10530
C         -1.09900       -1.82550        2.32720
C         -1.58750       -3.23540        2.02310
C         -2.29400       -0.71350        0.32010
C         -3.51210       -0.25160        1.11050
C          0.09400       -1.36160        0.14480
C          0.03710       -2.38930       -0.77070
C         -0.92640        1.36820        2.42680
C         -0.17170        2.51140        2.67610
C         -0.51960        3.70370        3.37900
C          0.55100        4.60190        3.36130
C          1.73070        4.00820        2.63040
C          1.14420        2.67670        2.18380
C          1.71340        1.68250        1.42160
C          2.91460        3.72760        3.57720
C          3.54270        4.96820        4.19800
C          2.07580        4.94830        1.45650
C          3.23760        4.52570        0.56680
C          0.21410        5.81650        3.91490
C         -1.12030        5.86390        4.35330
S         -1.93930        4.33140        4.08650
C         -1.68860        7.04240        4.84670
C         -2.98520        7.33630        5.19770
C         -4.10830        6.39240        5.18180
O         -4.07220        5.20350        4.92930
C         -5.30270        7.18350        5.54360
C         -6.62900        6.80890        5.65240
F         -7.01080        5.54840        5.42260
C         -7.59000        7.75040        6.00060
C         -7.20830        9.05900        6.23770
C         -5.88070        9.45850        6.13610
C         -4.92650        8.51730        5.78770
C         -3.47880        8.63680        5.59300
C         -2.75820        9.79300        5.75410
C         -1.36660        9.93220        5.57060
N         -0.24310       10.13690        5.44300
C         -3.31410       11.03310        6.13270
N         -3.69270       12.07430        6.43440
H          0.29420       -5.92110       -5.87030
H          3.51170       -3.71720       -5.25280
H          4.24100       -1.16170       -4.33880
H          4.09970       -0.09440       -2.93990
H          1.64100        0.12590       -3.37040
H          1.80320       -0.92080       -4.78230
H          2.60180        0.64960       -4.75520
H          5.05350       -1.82880       -1.48230
H          5.23090       -2.88100       -2.89050
H          3.69840       -3.59760       -0.34200
H          3.90600       -4.65130       -1.74300
H          5.30530       -4.18130       -0.78000
H          3.17410       -0.03820       -0.57220
H         -0.11140       -1.88690        2.79310
H         -1.76870       -1.35740        3.05020
H         -2.57010       -3.22420        1.55980
H         -0.89370       -3.75450        1.36730
H         -1.65910       -3.79910        2.95090
H         -2.52930       -1.67020       -0.14840
H         -2.10330        0.00160       -0.48490
H         -3.69580       -0.88910        1.97070
H         -3.40280        0.77450        1.44700
H         -4.38860       -0.29610        0.46720
H         -0.82230       -3.03360       -0.87170
H         -1.90340        1.26910        2.87050
H          2.72890        1.74580        1.06500
H          2.54920        3.07670        4.37610
H          3.67370        3.16980        3.02680
H          4.35250        4.67160        4.86100
H          2.81220        5.51910        4.78380
H          3.95320        5.62810        3.43870
H          1.17840        5.04720        0.83980
H          2.29060        5.93260        1.87550
H          4.14130        4.35440        1.14530
H          2.99670        3.62610        0.00830
H          3.44300        5.31730       -0.15090
H          0.85630        6.67630        3.99080
H         -0.97730        7.85710        4.91010
H         -8.62140        7.44490        6.07910
H         -7.95780        9.78720        6.50630
H         -5.61720       10.48530        6.32540
