145

C          7.52120        0.75480       -0.94050
C          8.62390        1.37020       -0.40300
C          8.89670        1.73790        0.99760
O          8.14290        1.74650        1.94620
C         10.33990        2.08500        1.04050
C         11.12140        2.37990        2.14380
Cl        10.44460        2.54140        3.70130
C         12.50190        2.53720        1.95500
Cl        13.50400        2.93580        3.28190
C         13.06520        2.32570        0.69770
Cl        14.76300        2.42160        0.51370
C         12.26690        2.02180       -0.41690
Cl        13.04350        1.60090       -1.88720
C         10.88890        1.97470       -0.25170
C          9.79260        1.74020       -1.18720
C          9.78700        2.05530       -2.52010
C          8.67980        1.88890       -3.38300
N          7.83610        1.79100       -4.15560
C         10.79840        2.76620       -3.20320
N         11.50540        3.42330       -3.82380
C          6.28140        0.40540       -0.38620
S          5.13960       -0.37950       -1.48700
C          3.95110       -0.38740       -0.26600
C          2.57320       -0.74140       -0.16600
C          2.15480       -0.40670        1.14490
C          3.31910        0.10740        1.97380
C          2.95330        1.44330        2.58760
C          2.30210        1.48660        3.81420
C          1.92010        2.69580        4.36240
C          2.17350        3.89080        3.70090
C          1.80590        5.20470        4.32710
C          2.92190        5.67950        5.26000
C          2.81760        3.84060        2.47240
C          3.19750        2.63270        1.91650
C          3.78330       -0.88400        3.03160
C          4.76300       -0.48800        3.93460
C          5.24790       -1.37490        4.87540
C          4.77550       -2.68030        4.93590
C          5.27640       -3.63360        5.98210
C          4.39930       -3.56600        7.23400
C          3.79820       -3.06950        4.03080
C          3.30940       -2.18610        3.08450
C          4.40720        0.16660        0.93210
C          5.71470        0.60810        0.87170
C          0.83180       -0.50810        1.50590
C         -0.05640       -0.97850        0.54170
C         -1.47950       -1.09060        0.55600
C         -1.94920       -1.54830       -0.67040
C         -0.79340       -1.89380       -1.57290
C          0.37560       -1.38910       -0.74490
C          1.69300       -1.26010       -1.11410
C         -0.79340       -3.40990       -1.72200
C         -1.69410       -3.99600       -2.60330
C         -1.75250       -5.36930       -2.73570
C         -0.91860       -6.19410       -1.99070
C         -1.01630       -7.68810       -2.10210
C         -2.04570       -8.23040       -1.10840
C         -0.02920       -5.60330       -1.10450
C          0.03330       -4.22800       -0.96670
C         -0.83190       -1.22350       -2.93260
C          0.00050       -1.68480       -3.94630
C         -0.02030       -1.07930       -5.18880
C         -0.87840       -0.02200       -5.43620
C         -1.72110        0.44370       -4.43740
C         -2.65500        1.59480       -4.67480
C         -1.98880        2.91580       -4.28650
C         -1.67600       -0.15440       -3.18500
C         -3.33250       -1.54210       -0.76620
C         -3.93300       -1.05440        0.38610
S         -2.74390       -0.69130        1.63600
C         -5.28820       -0.78350        0.67250
C         -6.26740       -0.44060       -0.21710
C         -6.05490        0.03180       -1.60700
O         -5.04240       -0.01170       -2.27560
C         -7.32170        0.67050       -2.00660
C         -7.57530        1.32370       -3.21140
C         -8.84180        1.84680       -3.30690
C         -9.78800        1.73310       -2.27870
C         -9.55310        1.08610       -1.08870
C         -8.26890        0.54450       -0.97130
C         -7.65580       -0.19520        0.12690
C         -8.29730       -0.64610        1.25060
C         -7.70310       -1.45530        2.24250
N         -7.29580       -2.13500        3.07370
C         -9.65250       -0.39610        1.54940
N        -10.74540       -0.22270        1.85540
C        -10.83040        2.50920       -3.04460
C        -11.04510        3.97790       -2.62080
C        -11.73520        4.60100       -3.81280
C        -10.84140        4.70480       -4.78800
C         -9.53210        4.15350       -4.27160
C         -9.63750        4.56240       -2.79670
C         -9.77720        2.63150       -4.19220
H          7.61100        0.47240       -1.98340
H          2.10410        0.56860        4.34900
H          1.41610        2.71200        5.31830
H          0.88130        5.09740        4.89810
H          1.64300        5.95350        3.54950
H          3.08330        4.95600        6.05600
H          3.85230        5.79310        4.70810
H          2.66330        6.63660        5.70690
H          3.02240        4.75820        1.93960
H          3.69080        2.61930        0.95540
H          5.14340        0.52210        3.90160
H          6.01040       -1.05070        5.56880
H          5.26460       -4.65260        5.58990
H          6.30450       -3.38180        6.24920
H          4.41000       -2.56080        7.64950
H          4.76190       -4.25840        7.99010
H          3.37120       -3.82470        6.99060
H          3.41610       -4.08010        4.06010
H          2.55410       -2.51830        2.38730
H          6.25480        1.07620        1.67280
H          0.48350       -0.21710        2.48490
H          2.04050       -1.52250       -2.10080
H         -2.34430       -3.36910       -3.19560
H         -2.45500       -5.80850       -3.42950
H         -0.04400       -8.13980       -1.89540
H         -1.31380       -7.96520       -3.11540
H         -3.02500       -7.79970       -1.30520
H         -1.75960       -7.97560       -0.09030
H         -2.11920       -9.31230       -1.18860
H          0.62720       -6.22590       -0.51320
H          0.73520       -3.79530       -0.26870
H          0.64620       -2.53310       -3.77000
H          0.62890       -1.44250       -5.97210
H         -0.90080        0.43640       -6.41460
H         -3.55610        1.45260       -4.07530
H         -2.93970        1.63060       -5.72840
H         -2.66600        3.74980       -4.45690
H         -1.71060        2.90380       -3.23490
H         -1.08810        3.07400       -4.87610
H         -2.33740        0.21080       -2.41440
H         -3.89140       -1.86920       -1.62140
H         -5.53790       -0.77090        1.72740
H         -6.81810        1.38810       -3.97720
H        -10.28980        1.00740       -0.30670
H        -11.76200        1.98370       -3.24470
H        -11.52490        4.10720       -1.65460
H        -12.78130        4.84320       -3.84130
H        -10.99160        5.05070       -5.79390
H         -8.63310        4.44280       -4.80920
H         -8.88440        4.10860       -2.15510
H         -9.62190        5.64340       -2.66740
H        -10.00520        2.18540       -5.15830
