73

C          2.25700       -0.76420        4.49420
C          3.44480       -0.15990        4.71240
C          4.46600        0.08510        3.65550
O          4.35090       -0.06910        2.46460
C          5.70790        0.41140        4.39260
C          6.97800        0.61680        3.87870
Cl         7.25450        0.68870        2.19820
C          8.04370        0.76090        4.77880
Cl         9.62190        1.04840        4.19150
C          7.82500        0.62780        6.15040
Cl         9.15440        0.70860        7.22080
C          6.53640        0.41410        6.66620
Cl         6.36780        0.09650        8.34200
C          5.46440        0.37230        5.78230
C          4.03130        0.21110        5.99420
C          3.29530        0.57830        7.08390
C          1.88680        0.44530        7.14150
N          0.74910        0.36610        7.25950
C          3.76160        1.27900        8.21920
N          4.01600        1.92370        9.13300
C          1.67490       -0.94230        3.18380
C          1.10150       -2.13340        2.79200
F          1.13080       -3.15310        3.65700
C          0.54660       -2.36120        1.51000
C          0.00720       -3.61830        1.12000
C         -0.55150       -3.79920       -0.19000
N         -1.00970       -5.03220       -0.37280
S         -0.76120       -5.88020        0.97120
N         -0.06150       -4.72950        1.84250
C         -0.61530       -2.73360       -1.12840
C         -0.04960       -1.54220       -0.72350
F         -0.01790       -0.52240       -1.59420
C          0.51920       -1.32440        0.55400
C          1.04510       -0.06110        0.94440
C          1.61470        0.12580        2.24900
N          2.00450        1.37880        2.45060
S          1.71550        2.22880        1.11740
N          1.06290        1.06020        0.23350
C         -1.21220       -2.96600       -2.42030
C         -1.92400       -2.12130       -3.19280
C         -2.16430       -2.46620       -4.63230
O         -2.01400       -3.55050       -5.14140
C         -2.55530       -1.19990       -5.27150
C         -2.74970       -0.96780       -6.63240
C         -3.08620        0.32880       -6.93720
C         -3.20090        1.33330       -5.96440
C         -3.01440        1.12110       -4.62000
C         -2.69500       -0.19780       -4.28580
C         -2.47210       -0.79250       -2.97370
C         -2.90610       -0.27840       -1.78370
C         -3.53780        0.97710       -1.64780
N         -4.05940        1.98410       -1.47430
C         -2.85280       -0.96720       -0.55520
N         -2.85650       -1.49140        0.46600
C         -3.55340        2.38840       -6.98170
C         -5.03850        2.81550       -7.08480
C         -5.85520        1.63850       -6.61130
C         -5.75840        0.68430       -7.52750
C         -4.87470        1.19880       -8.63720
C         -5.23950        2.69150       -8.60360
C         -3.43720        1.26810       -8.06300
H          1.69720       -1.18220        5.32170
H         -1.04640       -3.95840       -2.82750
H         -2.63830       -1.76370       -7.35190
H         -3.09150        1.90140       -3.88100
H         -2.87120        3.23340       -7.04730
H         -5.26540        3.77330       -6.62490
H         -6.35660        1.60170       -5.66200
H         -6.16340       -0.31010       -7.49710
H         -4.95430        0.68510       -9.59150
H         -6.26750        2.88020       -8.90850
H         -4.56270        3.31720       -9.18380
H         -2.68550        1.38350       -8.84120
