
  xtb     02022207213D
 energy: -163.678211387877 gnorm: 0.000537125467 xtb: 6.4.1 (unknown)
 73 83  0     0  0            999 V2000
    2.2570   -0.7642    4.4942 C   0  0  0  0  0  0  0  0  0  0  0  0
    3.4448   -0.1599    4.7124 C   0  0  0  0  0  0  0  0  0  0  0  0
    4.4660    0.0851    3.6555 C   0  0  0  0  0  0  0  0  0  0  0  0
    4.3509   -0.0691    2.4646 O   0  0  0  0  0  0  0  0  0  0  0  0
    5.7079    0.4114    4.3926 C   0  0  0  0  0  0  0  0  0  0  0  0
    6.9780    0.6168    3.8787 C   0  0  0  0  0  0  0  0  0  0  0  0
    7.2545    0.6887    2.1982 Cl  0  0  0  0  0  0  0  0  0  0  0  0
    8.0437    0.7609    4.7788 C   0  0  0  0  0  0  0  0  0  0  0  0
    9.6219    1.0484    4.1915 Cl  0  0  0  0  0  0  0  0  0  0  0  0
    7.8250    0.6278    6.1504 C   0  0  0  0  0  0  0  0  0  0  0  0
    9.1544    0.7086    7.2208 Cl  0  0  0  0  0  0  0  0  0  0  0  0
    6.5364    0.4141    6.6662 C   0  0  0  0  0  0  0  0  0  0  0  0
    6.3678    0.0965    8.3420 Cl  0  0  0  0  0  0  0  0  0  0  0  0
    5.4644    0.3723    5.7823 C   0  0  0  0  0  0  0  0  0  0  0  0
    4.0313    0.2111    5.9942 C   0  0  0  0  0  0  0  0  0  0  0  0
    3.2953    0.5783    7.0839 C   0  0  0  0  0  0  0  0  0  0  0  0
    1.8868    0.4453    7.1415 C   0  0  0  0  0  0  0  0  0  0  0  0
    0.7491    0.3661    7.2595 N   0  0  0  0  0  0  0  0  0  0  0  0
    3.7616    1.2790    8.2192 C   0  0  0  0  0  0  0  0  0  0  0  0
    4.0160    1.9237    9.1330 N   0  0  0  0  0  0  0  0  0  0  0  0
    1.6749   -0.9423    3.1838 C   0  0  0  0  0  0  0  0  0  0  0  0
    1.1015   -2.1334    2.7920 C   0  0  0  0  0  0  0  0  0  0  0  0
    1.1308   -3.1531    3.6570 F   0  0  0  0  0  0  0  0  0  0  0  0
    0.5466   -2.3612    1.5100 C   0  0  0  0  0  0  0  0  0  0  0  0
    0.0072   -3.6183    1.1200 C   0  0  0  0  0  0  0  0  0  0  0  0
   -0.5515   -3.7992   -0.1900 C   0  0  0  0  0  0  0  0  0  0  0  0
   -1.0097   -5.0322   -0.3728 N   0  0  0  0  0  0  0  0  0  0  0  0
   -0.7612   -5.8802    0.9712 S   0  0  0  0  0  0  0  0  0  0  0  0
   -0.0615   -4.7295    1.8425 N   0  0  0  0  0  0  0  0  0  0  0  0
   -0.6153   -2.7336   -1.1284 C   0  0  0  0  0  0  0  0  0  0  0  0
   -0.0496   -1.5422   -0.7235 C   0  0  0  0  0  0  0  0  0  0  0  0
   -0.0179   -0.5224   -1.5942 F   0  0  0  0  0  0  0  0  0  0  0  0
    0.5192   -1.3244    0.5540 C   0  0  0  0  0  0  0  0  0  0  0  0
    1.0451   -0.0611    0.9444 C   0  0  0  0  0  0  0  0  0  0  0  0
    1.6147    0.1258    2.2490 C   0  0  0  0  0  0  0  0  0  0  0  0
    2.0045    1.3788    2.4506 N   0  0  0  0  0  0  0  0  0  0  0  0
    1.7155    2.2288    1.1174 S   0  0  0  0  0  0  0  0  0  0  0  0
    1.0629    1.0602    0.2335 N   0  0  0  0  0  0  0  0  0  0  0  0
   -1.2122   -2.9660   -2.4203 C   0  0  0  0  0  0  0  0  0  0  0  0
   -1.9240   -2.1213   -3.1928 C   0  0  0  0  0  0  0  0  0  0  0  0
   -2.1643   -2.4662   -4.6323 C   0  0  0  0  0  0  0  0  0  0  0  0
   -2.0140   -3.5505   -5.1414 O   0  0  0  0  0  0  0  0  0  0  0  0
   -2.5553   -1.1999   -5.2715 C   0  0  0  0  0  0  0  0  0  0  0  0
   -2.7497   -0.9678   -6.6324 C   0  0  0  0  0  0  0  0  0  0  0  0
   -3.0862    0.3288   -6.9372 C   0  0  0  0  0  0  0  0  0  0  0  0
   -3.2009    1.3333   -5.9644 C   0  0  0  0  0  0  0  0  0  0  0  0
   -3.0144    1.1211   -4.6200 C   0  0  0  0  0  0  0  0  0  0  0  0
   -2.6950   -0.1978   -4.2858 C   0  0  0  0  0  0  0  0  0  0  0  0
   -2.4721   -0.7925   -2.9737 C   0  0  0  0  0  0  0  0  0  0  0  0
   -2.9061   -0.2784   -1.7837 C   0  0  0  0  0  0  0  0  0  0  0  0
   -3.5378    0.9771   -1.6478 C   0  0  0  0  0  0  0  0  0  0  0  0
   -4.0594    1.9841   -1.4743 N   0  0  0  0  0  0  0  0  0  0  0  0
   -2.8528   -0.9672   -0.5552 C   0  0  0  0  0  0  0  0  0  0  0  0
   -2.8565   -1.4914    0.4660 N   0  0  0  0  0  0  0  0  0  0  0  0
   -3.5534    2.3884   -6.9817 C   0  0  0  0  0  0  0  0  0  0  0  0
   -5.0385    2.8155   -7.0848 C   0  0  0  0  0  0  0  0  0  0  0  0
   -5.8552    1.6385   -6.6113 C   0  0  0  0  0  0  0  0  0  0  0  0
   -5.7584    0.6843   -7.5275 C   0  0  0  0  0  0  0  0  0  0  0  0
   -4.8747    1.1988   -8.6372 C   0  0  0  0  0  0  0  0  0  0  0  0
   -5.2395    2.6915   -8.6036 C   0  0  0  0  0  0  0  0  0  0  0  0
   -3.4372    1.2681   -8.0630 C   0  0  0  0  0  0  0  0  0  0  0  0
    1.6972   -1.1822    5.3217 H   0  0  0  0  0  0  0  0  0  0  0  0
   -1.0464   -3.9584   -2.8275 H   0  0  0  0  0  0  0  0  0  0  0  0
   -2.6383   -1.7637   -7.3519 H   0  0  0  0  0  0  0  0  0  0  0  0
   -3.0915    1.9014   -3.8810 H   0  0  0  0  0  0  0  0  0  0  0  0
   -2.8712    3.2334   -7.0473 H   0  0  0  0  0  0  0  0  0  0  0  0
   -5.2654    3.7733   -6.6249 H   0  0  0  0  0  0  0  0  0  0  0  0
   -6.3566    1.6017   -5.6620 H   0  0  0  0  0  0  0  0  0  0  0  0
   -6.1634   -0.3101   -7.4971 H   0  0  0  0  0  0  0  0  0  0  0  0
   -4.9543    0.6851   -9.5915 H   0  0  0  0  0  0  0  0  0  0  0  0
   -6.2675    2.8802   -8.9085 H   0  0  0  0  0  0  0  0  0  0  0  0
   -4.5627    3.3172   -9.1838 H   0  0  0  0  0  0  0  0  0  0  0  0
   -2.6855    1.3835   -8.8412 H   0  0  0  0  0  0  0  0  0  0  0  0
  1  2  2  0  0  0  0
  2  3  1  0  0  0  0
  3  4  2  0  0  0  0
  3  5  1  0  0  0  0
  5  6  2  0  0  0  0
  6  7  1  0  0  0  0
  6  8  1  0  0  0  0
  8  9  1  0  0  0  0
  8 10  2  0  0  0  0
 10 11  1  0  0  0  0
 10 12  1  0  0  0  0
 12 13  1  0  0  0  0
 12 14  2  0  0  0  0
 14 15  1  0  0  0  0
 15 16  2  0  0  0  0
 16 17  1  0  0  0  0
 17 18  3  0  0  0  0
 16 19  1  0  0  0  0
 19 20  3  0  0  0  0
  1 21  1  0  0  0  0
 21 22  2  0  0  0  0
 22 23  1  0  0  0  0
 22 24  1  0  0  0  0
 24 25  1  0  0  0  0
 25 26  1  0  0  0  0
 26 27  2  0  0  0  0
 27 28  1  0  0  0  0
 28 29  1  0  0  0  0
 26 30  1  0  0  0  0
 30 31  2  0  0  0  0
 31 32  1  0  0  0  0
 31 33  1  0  0  0  0
 33 34  1  0  0  0  0
 34 35  1  0  0  0  0
 35 36  2  0  0  0  0
 36 37  1  0  0  0  0
 37 38  1  0  0  0  0
 30 39  1  0  0  0  0
 39 40  2  0  0  0  0
 40 41  1  0  0  0  0
 41 42  2  0  0  0  0
 41 43  1  0  0  0  0
 43 44  2  0  0  0  0
 44 45  1  0  0  0  0
 45 46  2  0  0  0  0
 46 47  1  0  0  0  0
 47 48  2  0  0  0  0
 48 49  1  0  0  0  0
 49 50  2  0  0  0  0
 50 51  1  0  0  0  0
 51 52  3  0  0  0  0
 50 53  1  0  0  0  0
 53 54  3  0  0  0  0
 46 55  1  0  0  0  0
 55 56  1  0  0  0  0
 56 57  1  0  0  0  0
 57 58  2  0  0  0  0
 58 59  1  0  0  0  0
 59 60  1  0  0  0  0
 59 61  1  0  0  0  0
 15  2  1  0  0  0  0
 35 21  1  0  0  0  0
 49 40  1  0  0  0  0
 61 55  1  0  0  0  0
 14  5  1  0  0  0  0
 33 24  2  0  0  0  0
 38 34  2  0  0  0  0
 48 43  1  0  0  0  0
 60 56  1  0  0  0  0
 29 25  2  0  0  0  0
 61 45  1  0  0  0  0
  1 62  1  0  0  0  0
 39 63  1  0  0  0  0
 44 64  1  0  0  0  0
 47 65  1  0  0  0  0
 55 66  1  0  0  0  0
 56 67  1  0  0  0  0
 57 68  1  0  0  0  0
 58 69  1  0  0  0  0
 59 70  1  0  0  0  0
 60 71  1  0  0  0  0
 60 72  1  0  0  0  0
 61 73  1  0  0  0  0
M  END
