112

C         -1.09080       -9.09270       -1.76830
C          0.21770       -9.47400       -1.84540
C          0.60580      -10.60270       -2.71980
O         -0.12950      -11.41130       -3.23380
C          2.07540      -10.46470       -2.89070
C          2.92300      -11.15770       -3.73740
Cl         2.36800      -12.47760       -4.66500
C          4.26050      -10.74280       -3.82320
Cl         5.34880      -11.58520       -4.83790
C          4.69640       -9.62380       -3.11490
Cl         6.30680       -9.08160       -3.30860
C          3.83270       -8.92710       -2.25510
Cl         4.37940       -7.47190       -1.53070
C          2.53500       -9.38980       -2.10230
C          1.42760       -8.93890       -1.25880
C          1.53310       -8.46550        0.02190
C          0.42270       -8.30630        0.88170
N         -0.42790       -8.18440        1.64270
C          2.73230       -8.25320        0.73390
N          3.64270       -8.10250        1.41590
C         -1.63050       -7.87170       -1.33380
C         -2.98640       -7.63340       -1.06770
O         -3.94830       -8.57940       -1.18370
C         -4.49990       -8.76420       -2.48770
C         -5.30850       -7.56070       -2.95380
C         -3.20260       -6.34100       -0.57650
S         -4.62320       -5.50440        0.00420
C         -3.63880       -4.12630        0.34560
C         -3.75610       -2.84920        0.91450
C         -4.84380       -2.20150        1.54170
C         -4.62480       -0.92520        2.15900
N         -5.70830       -0.46460        2.76380
S         -6.90200       -1.54010        2.56930
N         -6.08320       -2.63580        1.70440
C         -3.37210       -0.29230        1.99440
C         -2.94230        1.00000        2.32050
S         -3.52800        2.40500        3.13380
C         -2.04580        3.25090        2.69470
C         -1.56020        4.54580        2.90040
O         -2.12100        5.58680        3.52420
C         -3.22660        5.38150        4.39160
C         -2.80480        4.73840        5.70590
C         -0.29510        4.73690        2.29650
S          0.26410        3.29940        1.46110
C         -1.16080        2.45550        1.94980
C         -1.67580        1.16850        1.75090
N         -1.28840        0.01660        1.12080
C         -2.30620       -0.90810        1.27480
C         -2.46130       -2.25710        0.86660
N         -1.57240       -3.17320        0.32950
C         -2.28830       -4.29930        0.01190
C         -2.03440       -5.56600       -0.50840
S         -0.65700       -6.43070       -1.07690
C         -0.15480       -3.31570        0.58970
C          0.09520       -4.16100        1.83790
C         -0.18840        0.05340        0.17830
C         -0.61930       -0.32620       -1.23360
C          0.38360        5.95100        2.42320
C          1.57900        6.35290        1.88330
C          2.38300        5.58470        0.93250
O          2.19180        4.43880        0.55410
C          3.47360        6.47310        0.49910
C          4.46720        6.19100       -0.43510
C          5.34230        7.22830       -0.65100
C          5.23970        8.45520        0.01730
C          4.26850        8.74370        0.94700
C          3.36450        7.70400        1.17860
C          2.21420        7.63860        2.08010
C          1.84840        8.60980        2.97670
C          0.79250        8.51230        3.90730
N         -0.02870        8.51430        4.71110
C          2.50530        9.84920        3.12240
N          2.98400       10.87910        3.29350
C          6.43290        9.03620       -0.69890
C          6.16490       10.03450       -1.85230
C          4.80250        9.69640       -2.40490
C          4.89930        8.53500       -3.03810
C          6.32910        8.06680       -2.92500
C          7.05870        9.41950       -2.94100
C          6.54730        7.66890       -1.44400
H         -1.80450       -9.81450       -2.15210
H         -5.14070       -9.64120       -2.38000
H         -3.70410       -8.98710       -3.21020
H         -4.66300       -6.69830       -3.10920
H         -6.05910       -7.30400       -2.21040
H         -5.80360       -7.79820       -3.89100
H         -4.00030        4.78580        3.89510
H         -3.61020        6.38880        4.56880
H         -2.41810        3.73580        5.53930
H         -3.66170        4.67520        6.36950
H         -2.03230        5.34010        6.17830
H          0.29790       -3.79540       -0.28350
H          0.29180       -2.33750        0.72890
H          1.16390       -4.24380        2.01450
H         -0.36760       -3.69720        2.70630
H         -0.31100       -5.16290        1.72320
H          0.64260       -0.57160        0.51890
H          0.17750        1.08300        0.17600
H         -0.96210       -1.35530       -1.28780
H          0.22150       -0.20410       -1.91040
H         -1.42600        0.32440       -1.56290
H         -0.15490        6.66270        3.03730
H          4.51030        5.23120       -0.92580
H          4.20440        9.69330        1.45110
H          7.26410        9.34480       -0.06820
H          6.33320       11.07670       -1.59500
H          3.92330       10.28960       -2.23450
H          4.11670        7.96380       -3.50230
H          6.64740        7.31780       -3.64550
H          6.97210        9.93350       -3.89720
H          8.10710        9.35060       -2.65400
H          7.45420        7.08470       -1.30050
