
  xtb     02022215083D
 energy: -368.637296031836 gnorm: 0.000236865461 xtb: 6.4.1 (unknown)
231255  0     0  0            999 V2000
   -4.2969    4.7955    9.9422 C   0  0  0  0  0  0  0  0  0  0  0  0
   -4.9048    4.3616   11.0982 C   0  0  0  0  0  0  0  0  0  0  0  0
   -4.6039    3.1838   11.9257 C   0  0  0  0  0  0  0  0  0  0  0  0
   -3.8881    2.2356   11.6816 O   0  0  0  0  0  0  0  0  0  0  0  0
   -5.3509    3.3902   13.1938 C   0  0  0  0  0  0  0  0  0  0  0  0
   -5.3072    2.6337   14.3511 C   0  0  0  0  0  0  0  0  0  0  0  0
   -4.4356    1.1689   14.4298 Cl  0  0  0  0  0  0  0  0  0  0  0  0
   -5.9950    3.1056   15.4782 C   0  0  0  0  0  0  0  0  0  0  0  0
   -5.9989    2.1877   16.9214 Cl  0  0  0  0  0  0  0  0  0  0  0  0
   -6.6374    4.3413   15.4388 C   0  0  0  0  0  0  0  0  0  0  0  0
   -7.3823    4.9437   16.8563 Cl  0  0  0  0  0  0  0  0  0  0  0  0
   -6.6721    5.1077   14.2626 C   0  0  0  0  0  0  0  0  0  0  0  0
   -7.3227    6.6932   14.3410 Cl  0  0  0  0  0  0  0  0  0  0  0  0
   -6.0856    4.5888   13.1161 C   0  0  0  0  0  0  0  0  0  0  0  0
   -5.9811    5.0901   11.7481 C   0  0  0  0  0  0  0  0  0  0  0  0
   -6.8835    5.9053   11.1149 C   0  0  0  0  0  0  0  0  0  0  0  0
   -6.7910    6.3088    9.7639 C   0  0  0  0  0  0  0  0  0  0  0  0
   -6.7972    6.6835    8.6782 N   0  0  0  0  0  0  0  0  0  0  0  0
   -8.1330    6.3098   11.6327 C   0  0  0  0  0  0  0  0  0  0  0  0
   -9.2049    6.6059   11.9165 N   0  0  0  0  0  0  0  0  0  0  0  0
   -3.3298    4.2131    9.1152 C   0  0  0  0  0  0  0  0  0  0  0  0
   -2.7471    5.2395    7.6054 Se  0  0  0  0  0  2  0  0  0  0  0  0
   -1.7092    3.7804    7.1753 C   0  0  0  0  0  0  0  0  0  0  0  0
   -0.8303    3.4019    6.1178 C   0  0  0  0  0  0  0  0  0  0  0  0
   -0.3839    2.0881    6.3916 C   0  0  0  0  0  0  0  0  0  0  0  0
   -0.9711    1.5736    7.6922 C   0  0  0  0  0  0  0  0  0  0  0  0
   -1.8507    2.7313    8.0918 C   0  0  0  0  0  0  0  0  0  0  0  0
   -2.7185    2.9598    9.1407 C   0  0  0  0  0  0  0  0  0  0  0  0
    0.0504    1.3703    8.7971 C   0  0  0  0  0  0  0  0  0  0  0  0
    1.3443    1.8590    8.6986 C   0  0  0  0  0  0  0  0  0  0  0  0
    2.2363    1.6904    9.7431 C   0  0  0  0  0  0  0  0  0  0  0  0
    1.8575    1.0396   10.9086 C   0  0  0  0  0  0  0  0  0  0  0  0
    2.8130    0.8994   12.0583 C   0  0  0  0  0  0  0  0  0  0  0  0
    2.6770    2.0878   13.0123 C   0  0  0  0  0  0  0  0  0  0  0  0
    0.5554    0.5638   11.0057 C   0  0  0  0  0  0  0  0  0  0  0  0
   -0.3385    0.7263    9.9660 C   0  0  0  0  0  0  0  0  0  0  0  0
   -1.7214    0.2939    7.3718 C   0  0  0  0  0  0  0  0  0  0  0  0
   -3.0482    0.3209    6.9670 C   0  0  0  0  0  0  0  0  0  0  0  0
   -3.6878   -0.8445    6.5855 C   0  0  0  0  0  0  0  0  0  0  0  0
   -3.0176   -2.0603    6.5833 C   0  0  0  0  0  0  0  0  0  0  0  0
   -3.7200   -3.3291    6.1940 C   0  0  0  0  0  0  0  0  0  0  0  0
   -4.3516   -3.9884    7.4216 C   0  0  0  0  0  0  0  0  0  0  0  0
   -1.6902   -2.0817    6.9916 C   0  0  0  0  0  0  0  0  0  0  0  0
   -1.0480   -0.9215    7.3792 C   0  0  0  0  0  0  0  0  0  0  0  0
    0.3993    1.4059    5.4908 C   0  0  0  0  0  0  0  0  0  0  0  0
    0.7321    2.0652    4.3118 C   0  0  0  0  0  0  0  0  0  0  0  0
    1.3856    1.5924    3.1360 C   0  0  0  0  0  0  0  0  0  0  0  0
    1.3921    2.5677    2.1546 C   0  0  0  0  0  0  0  0  0  0  0  0
    0.7854    3.8447    2.6763 C   0  0  0  0  0  0  0  0  0  0  0  0
    0.3238    3.3979    4.0540 C   0  0  0  0  0  0  0  0  0  0  0  0
   -0.4626    4.0761    4.9516 C   0  0  0  0  0  0  0  0  0  0  0  0
   -0.4148    4.2899    1.8605 C   0  0  0  0  0  0  0  0  0  0  0  0
   -1.1859    3.3610    1.1743 C   0  0  0  0  0  0  0  0  0  0  0  0
   -2.2760    3.7664    0.4288 C   0  0  0  0  0  0  0  0  0  0  0  0
   -2.6353    5.1059    0.3598 C   0  0  0  0  0  0  0  0  0  0  0  0
   -3.7778    5.5452   -0.5095 C   0  0  0  0  0  0  0  0  0  0  0  0
   -3.3040    5.7364   -1.9521 C   0  0  0  0  0  0  0  0  0  0  0  0
   -1.8822    6.0268    1.0754 C   0  0  0  0  0  0  0  0  0  0  0  0
   -0.7882    5.6264    1.8203 C   0  0  0  0  0  0  0  0  0  0  0  0
    1.8717    4.9049    2.7067 C   0  0  0  0  0  0  0  0  0  0  0  0
    2.3068    5.4523    1.5051 C   0  0  0  0  0  0  0  0  0  0  0  0
    3.3138    6.3967    1.4880 C   0  0  0  0  0  0  0  0  0  0  0  0
    3.9143    6.8198    2.6675 C   0  0  0  0  0  0  0  0  0  0  0  0
    5.0355    7.8181    2.6433 C   0  0  0  0  0  0  0  0  0  0  0  0
    6.3810    7.1059    2.4902 C   0  0  0  0  0  0  0  0  0  0  0  0
    3.4844    6.2609    3.8626 C   0  0  0  0  0  0  0  0  0  0  0  0
    2.4776    5.3118    3.8857 C   0  0  0  0  0  0  0  0  0  0  0  0
    1.8405    2.0674    0.9331 C   0  0  0  0  0  0  0  0  0  0  0  0
    1.9112    2.6775   -0.6935 S   0  0  0  0  0  0  0  0  0  0  0  0
    2.2606    1.0769   -1.2631 C   0  0  0  0  0  0  0  0  0  0  0  0
    2.2694    0.4403   -2.5434 C   0  0  0  0  0  0  0  0  0  0  0  0
    2.0909    0.9591   -3.8221 C   0  0  0  0  0  0  0  0  0  0  0  0
    1.9455    0.0564   -4.8505 C   0  0  0  0  0  0  0  0  0  0  0  0
    1.6765    0.3385   -6.3178 C   0  0  0  0  0  0  0  0  0  0  0  0
    2.9042    1.0274   -6.8880 C   0  0  0  0  0  0  0  0  0  0  0  0
    3.9169    0.3051   -7.5030 C   0  0  0  0  0  0  0  0  0  0  0  0
    5.0439    0.9462   -7.9840 C   0  0  0  0  0  0  0  0  0  0  0  0
    5.1935    2.3202   -7.8573 C   0  0  0  0  0  0  0  0  0  0  0  0
    6.4365    3.0062   -8.3463 C   0  0  0  0  0  0  0  0  0  0  0  0
    7.5079    3.0146   -7.2541 C   0  0  0  0  0  0  0  0  0  0  0  0
    4.1850    3.0366   -7.2257 C   0  0  0  0  0  0  0  0  0  0  0  0
    3.0558    2.4013   -6.7459 C   0  0  0  0  0  0  0  0  0  0  0  0
    0.4095    1.1348   -6.5646 C   0  0  0  0  0  0  0  0  0  0  0  0
    0.2118    1.7547   -7.7924 C   0  0  0  0  0  0  0  0  0  0  0  0
   -0.9515    2.4563   -8.0462 C   0  0  0  0  0  0  0  0  0  0  0  0
   -1.9520    2.5492   -7.0875 C   0  0  0  0  0  0  0  0  0  0  0  0
   -3.1915    3.3592   -7.3367 C   0  0  0  0  0  0  0  0  0  0  0  0
   -3.0239    4.7759   -6.7828 C   0  0  0  0  0  0  0  0  0  0  0  0
   -1.7590    1.9092   -5.8709 C   0  0  0  0  0  0  0  0  0  0  0  0
   -0.5978    1.2045   -5.6123 C   0  0  0  0  0  0  0  0  0  0  0  0
    1.4741   -1.0612   -6.8446 C   0  0  0  0  0  0  0  0  0  0  0  0
    1.6747   -2.0042   -5.8312 C   0  0  0  0  0  0  0  0  0  0  0  0
    1.9864   -1.3350   -4.6088 C   0  0  0  0  0  0  0  0  0  0  0  0
    2.2316   -1.8527   -3.3369 C   0  0  0  0  0  0  0  0  0  0  0  0
    2.3772   -0.9533   -2.3102 C   0  0  0  0  0  0  0  0  0  0  0  0
    2.5585   -1.2413   -0.8298 C   0  0  0  0  0  0  0  0  0  0  0  0
    1.5033   -2.2193   -0.3510 C   0  0  0  0  0  0  0  0  0  0  0  0
    0.2370   -1.7708    0.0019 C   0  0  0  0  0  0  0  0  0  0  0  0
   -0.7219   -2.6560    0.4544 C   0  0  0  0  0  0  0  0  0  0  0  0
   -0.4489   -4.0141    0.5527 C   0  0  0  0  0  0  0  0  0  0  0  0
   -1.4725   -4.9570    1.1162 C   0  0  0  0  0  0  0  0  0  0  0  0
   -1.4317   -4.9350    2.6459 C   0  0  0  0  0  0  0  0  0  0  0  0
    0.8048   -4.4633    0.1614 C   0  0  0  0  0  0  0  0  0  0  0  0
    1.7690   -3.5803   -0.2891 C   0  0  0  0  0  0  0  0  0  0  0  0
    3.9631   -1.6961   -0.4719 C   0  0  0  0  0  0  0  0  0  0  0  0
    4.2353   -2.0605    0.8419 C   0  0  0  0  0  0  0  0  0  0  0  0
    5.5102   -2.4353    1.2165 C   0  0  0  0  0  0  0  0  0  0  0  0
    6.5487   -2.4509    0.2933 C   0  0  0  0  0  0  0  0  0  0  0  0
    7.9235   -2.9045    0.6917 C   0  0  0  0  0  0  0  0  0  0  0  0
    8.0560   -4.4192    0.5208 C   0  0  0  0  0  0  0  0  0  0  0  0
    6.2722   -2.0809   -1.0150 C   0  0  0  0  0  0  0  0  0  0  0  0
    4.9971   -1.7018   -1.3960 C   0  0  0  0  0  0  0  0  0  0  0  0
    2.3682    0.1372   -0.2548 C   0  0  0  0  0  0  0  0  0  0  0  0
    2.1473    0.6943    1.0027 C   0  0  0  0  0  0  0  0  0  0  0  0
    1.9531    0.0449    2.6009 S   0  0  0  0  0  0  0  0  0  0  0  0
    1.3471   -3.7351   -6.3788 Se  0  0  0  0  0  2  0  0  0  0  0  0
    0.9335   -2.9810   -8.0775 C   0  0  0  0  0  0  0  0  0  0  0  0
    1.0890   -1.5850   -8.0582 C   0  0  0  0  0  0  0  0  0  0  0  0
    0.4908   -3.6315   -9.2352 C   0  0  0  0  0  0  0  0  0  0  0  0
    0.1606   -4.9482   -9.4560 C   0  0  0  0  0  0  0  0  0  0  0  0
    0.1888   -6.0059   -8.4544 C   0  0  0  0  0  0  0  0  0  0  0  0
    0.6271   -5.9327   -7.3122 O   0  0  0  0  0  0  0  0  0  0  0  0
   -0.4215   -7.1924   -9.0732 C   0  0  0  0  0  0  0  0  0  0  0  0
   -0.6673   -8.4255   -8.4734 C   0  0  0  0  0  0  0  0  0  0  0  0
   -1.2862   -9.3340   -9.2986 C   0  0  0  0  0  0  0  0  0  0  0  0
   -1.6289   -9.0400  -10.6244 C   0  0  0  0  0  0  0  0  0  0  0  0
   -1.3830   -7.8303  -11.2311 C   0  0  0  0  0  0  0  0  0  0  0  0
   -0.7595   -6.8887  -10.4081 C   0  0  0  0  0  0  0  0  0  0  0  0
   -0.3650   -5.5063  -10.6851 C   0  0  0  0  0  0  0  0  0  0  0  0
   -0.4609   -4.8845  -11.9038 C   0  0  0  0  0  0  0  0  0  0  0  0
   -0.9712   -5.4885  -13.0716 C   0  0  0  0  0  0  0  0  0  0  0  0
   -1.3732   -5.9120  -14.0606 N   0  0  0  0  0  0  0  0  0  0  0  0
   -0.0490   -3.5658  -12.1880 C   0  0  0  0  0  0  0  0  0  0  0  0
    0.2646   -2.5089  -12.5124 N   0  0  0  0  0  0  0  0  0  0  0  0
   -2.2399  -10.4001  -10.8531 C   0  0  0  0  0  0  0  0  0  0  0  0
   -3.7815  -10.4732  -10.8315 C   0  0  0  0  0  0  0  0  0  0  0  0
   -4.0712  -11.9382  -10.5974 C   0  0  0  0  0  0  0  0  0  0  0  0
   -3.7460  -12.2181   -9.3419 C   0  0  0  0  0  0  0  0  0  0  0  0
   -3.2312  -10.9468   -8.7062 C   0  0  0  0  0  0  0  0  0  0  0  0
   -4.1003   -9.9159   -9.4381 C   0  0  0  0  0  0  0  0  0  0  0  0
   -1.8569  -10.7287   -9.3744 C   0  0  0  0  0  0  0  0  0  0  0  0
   -4.6054    5.7819    9.6095 H   0  0  0  0  0  0  0  0  0  0  0  0
   -2.9326    2.2486    9.9179 H   0  0  0  0  0  0  0  0  0  0  0  0
    1.6631    2.3708    7.8020 H   0  0  0  0  0  0  0  0  0  0  0  0
    3.2435    2.0710    9.6476 H   0  0  0  0  0  0  0  0  0  0  0  0
    3.8383    0.8522   11.6854 H   0  0  0  0  0  0  0  0  0  0  0  0
    2.6040   -0.0237   12.6026 H   0  0  0  0  0  0  0  0  0  0  0  0
    2.8950    3.0176   12.4915 H   0  0  0  0  0  0  0  0  0  0  0  0
    1.6632    2.1448   13.4023 H   0  0  0  0  0  0  0  0  0  0  0  0
    3.3662    1.9869   13.8475 H   0  0  0  0  0  0  0  0  0  0  0  0
    0.2374    0.0593   11.9066 H   0  0  0  0  0  0  0  0  0  0  0  0
   -1.3440    0.3437   10.0578 H   0  0  0  0  0  0  0  0  0  0  0  0
   -3.5877    1.2568    6.9461 H   0  0  0  0  0  0  0  0  0  0  0  0
   -4.7223   -0.8053    6.2752 H   0  0  0  0  0  0  0  0  0  0  0  0
   -4.4997   -3.1112    5.4614 H   0  0  0  0  0  0  0  0  0  0  0  0
   -3.0075   -4.0213    5.7401 H   0  0  0  0  0  0  0  0  0  0  0  0
   -5.0743   -3.3178    7.8808 H   0  0  0  0  0  0  0  0  0  0  0  0
   -3.5877   -4.2238    8.1592 H   0  0  0  0  0  0  0  0  0  0  0  0
   -4.8597   -4.9082    7.1413 H   0  0  0  0  0  0  0  0  0  0  0  0
   -1.1499   -3.0178    6.9991 H   0  0  0  0  0  0  0  0  0  0  0  0
   -0.0156   -0.9608    7.6959 H   0  0  0  0  0  0  0  0  0  0  0  0
    0.7185    0.3901    5.6652 H   0  0  0  0  0  0  0  0  0  0  0  0
   -0.8180    5.0787    4.7612 H   0  0  0  0  0  0  0  0  0  0  0  0
   -0.9344    2.3111    1.2195 H   0  0  0  0  0  0  0  0  0  0  0  0
   -2.8571    3.0298   -0.1078 H   0  0  0  0  0  0  0  0  0  0  0  0
   -4.5693    4.7931   -0.4882 H   0  0  0  0  0  0  0  0  0  0  0  0
   -4.1892    6.4851   -0.1371 H   0  0  0  0  0  0  0  0  0  0  0  0
   -4.1307    6.0462   -2.5871 H   0  0  0  0  0  0  0  0  0  0  0  0
   -2.8940    4.8071   -2.3419 H   0  0  0  0  0  0  0  0  0  0  0  0
   -2.5272    6.4965   -1.9971 H   0  0  0  0  0  0  0  0  0  0  0  0
   -2.1526    7.0728    1.0491 H   0  0  0  0  0  0  0  0  0  0  0  0
   -0.2124    6.3617    2.3636 H   0  0  0  0  0  0  0  0  0  0  0  0
    1.8446    5.1420    0.5791 H   0  0  0  0  0  0  0  0  0  0  0  0
    3.6360    6.8145    0.5450 H   0  0  0  0  0  0  0  0  0  0  0  0
    4.8977    8.5091    1.8092 H   0  0  0  0  0  0  0  0  0  0  0  0
    5.0376    8.3960    3.5696 H   0  0  0  0  0  0  0  0  0  0  0  0
    7.1940    7.8279    2.4696 H   0  0  0  0  0  0  0  0  0  0  0  0
    6.5436    6.4225    3.3207 H   0  0  0  0  0  0  0  0  0  0  0  0
    6.4019    6.5316    1.5667 H   0  0  0  0  0  0  0  0  0  0  0  0
    3.9400    6.5730    4.7916 H   0  0  0  0  0  0  0  0  0  0  0  0
    2.1625    4.8925    4.8299 H   0  0  0  0  0  0  0  0  0  0  0  0
    2.0254    2.0243   -3.9811 H   0  0  0  0  0  0  0  0  0  0  0  0
    3.8264   -0.7655   -7.6154 H   0  0  0  0  0  0  0  0  0  0  0  0
    5.8170    0.3680   -8.4699 H   0  0  0  0  0  0  0  0  0  0  0  0
    6.2047    4.0344   -8.6310 H   0  0  0  0  0  0  0  0  0  0  0  0
    6.8237    2.4871   -9.2254 H   0  0  0  0  0  0  0  0  0  0  0  0
    7.1458    3.5396   -6.3729 H   0  0  0  0  0  0  0  0  0  0  0  0
    7.7610    1.9970   -6.9649 H   0  0  0  0  0  0  0  0  0  0  0  0
    8.4091    3.5097   -7.6084 H   0  0  0  0  0  0  0  0  0  0  0  0
    4.2822    4.1072   -7.1124 H   0  0  0  0  0  0  0  0  0  0  0  0
    2.2771    2.9806   -6.2712 H   0  0  0  0  0  0  0  0  0  0  0  0
    0.9794    1.6971   -8.5507 H   0  0  0  0  0  0  0  0  0  0  0  0
   -1.0845    2.9370   -9.0049 H   0  0  0  0  0  0  0  0  0  0  0  0
   -3.3909    3.4124   -8.4085 H   0  0  0  0  0  0  0  0  0  0  0  0
   -4.0473    2.8836   -6.8528 H   0  0  0  0  0  0  0  0  0  0  0  0
   -2.8342    4.7449   -5.7120 H   0  0  0  0  0  0  0  0  0  0  0  0
   -2.1844    5.2725   -7.2641 H   0  0  0  0  0  0  0  0  0  0  0  0
   -3.9223    5.3626   -6.9596 H   0  0  0  0  0  0  0  0  0  0  0  0
   -2.5297    1.9586   -5.1146 H   0  0  0  0  0  0  0  0  0  0  0  0
   -0.4771    0.7081   -4.6603 H   0  0  0  0  0  0  0  0  0  0  0  0
    2.2674   -2.9204   -3.1748 H   0  0  0  0  0  0  0  0  0  0  0  0
   -0.0040   -0.7201   -0.0736 H   0  0  0  0  0  0  0  0  0  0  0  0
   -1.6972   -2.2860    0.7376 H   0  0  0  0  0  0  0  0  0  0  0  0
   -2.4697   -4.6644    0.7802 H   0  0  0  0  0  0  0  0  0  0  0  0
   -1.2773   -5.9716    0.7640 H   0  0  0  0  0  0  0  0  0  0  0  0
   -0.4487   -5.2366    3.0012 H   0  0  0  0  0  0  0  0  0  0  0  0
   -2.1741   -5.6163    3.0557 H   0  0  0  0  0  0  0  0  0  0  0  0
   -1.6359   -3.9326    3.0167 H   0  0  0  0  0  0  0  0  0  0  0  0
    1.0336   -5.5183    0.2120 H   0  0  0  0  0  0  0  0  0  0  0  0
    2.7405   -3.9516   -0.5818 H   0  0  0  0  0  0  0  0  0  0  0  0
    3.4395   -2.0562    1.5728 H   0  0  0  0  0  0  0  0  0  0  0  0
    5.7032   -2.7157    2.2422 H   0  0  0  0  0  0  0  0  0  0  0  0
    8.1120   -2.6423    1.7348 H   0  0  0  0  0  0  0  0  0  0  0  0
    8.6721   -2.4058    0.0728 H   0  0  0  0  0  0  0  0  0  0  0  0
    7.3243   -4.9347    1.1390 H   0  0  0  0  0  0  0  0  0  0  0  0
    9.0507   -4.7499    0.8104 H   0  0  0  0  0  0  0  0  0  0  0  0
    7.8848   -4.6988   -0.5164 H   0  0  0  0  0  0  0  0  0  0  0  0
    7.0654   -2.0834   -1.7492 H   0  0  0  0  0  0  0  0  0  0  0  0
    4.8117   -1.4110   -2.4196 H   0  0  0  0  0  0  0  0  0  0  0  0
    0.8955   -0.9901   -8.9356 H   0  0  0  0  0  0  0  0  0  0  0  0
    0.3525   -2.9557  -10.0723 H   0  0  0  0  0  0  0  0  0  0  0  0
   -0.3855   -8.6092   -7.4484 H   0  0  0  0  0  0  0  0  0  0  0  0
   -1.6539   -7.6224  -12.2526 H   0  0  0  0  0  0  0  0  0  0  0  0
   -1.7968  -10.9930  -11.6508 H   0  0  0  0  0  0  0  0  0  0  0  0
   -4.2710  -10.0069  -11.6821 H   0  0  0  0  0  0  0  0  0  0  0  0
   -4.4189  -12.6102  -11.3599 H   0  0  0  0  0  0  0  0  0  0  0  0
   -3.7678  -13.1708   -8.8459 H   0  0  0  0  0  0  0  0  0  0  0  0
   -3.2205  -10.9124   -7.6200 H   0  0  0  0  0  0  0  0  0  0  0  0
   -5.1551  -10.0146   -9.1870 H   0  0  0  0  0  0  0  0  0  0  0  0
   -3.7859   -8.8845   -9.2894 H   0  0  0  0  0  0  0  0  0  0  0  0
   -1.1576  -11.5411   -9.1856 H   0  0  0  0  0  0  0  0  0  0  0  0
  1  2  2  0  0  0  0
  2  3  1  0  0  0  0
  3  4  2  0  0  0  0
  3  5  1  0  0  0  0
  5  6  2  0  0  0  0
  6  7  1  0  0  0  0
  6  8  1  0  0  0  0
  8  9  1  0  0  0  0
  8 10  2  0  0  0  0
 10 11  1  0  0  0  0
 10 12  1  0  0  0  0
 12 13  1  0  0  0  0
 12 14  2  0  0  0  0
 14 15  1  0  0  0  0
 15 16  2  0  0  0  0
 16 17  1  0  0  0  0
 17 18  3  0  0  0  0
 16 19  1  0  0  0  0
 19 20  3  0  0  0  0
  1 21  1  0  0  0  0
 21 22  1  0  0  0  0
 22 23  1  0  0  0  0
 23 24  1  0  0  0  0
 24 25  2  0  0  0  0
 25 26  1  0  0  0  0
 26 27  1  0  0  0  0
 27 28  1  0  0  0  0
 26 29  1  0  0  0  0
 29 30  2  0  0  0  0
 30 31  1  0  0  0  0
 31 32  2  0  0  0  0
 32 33  1  0  0  0  0
 33 34  1  0  0  0  0
 32 35  1  0  0  0  0
 35 36  2  0  0  0  0
 26 37  1  0  0  0  0
 37 38  2  0  0  0  0
 38 39  1  0  0  0  0
 39 40  2  0  0  0  0
 40 41  1  0  0  0  0
 41 42  1  0  0  0  0
 40 43  1  0  0  0  0
 43 44  2  0  0  0  0
 25 45  1  0  0  0  0
 45 46  2  0  0  0  0
 46 47  1  0  0  0  0
 47 48  2  0  0  0  0
 48 49  1  0  0  0  0
 49 50  1  0  0  0  0
 50 51  2  0  0  0  0
 49 52  1  0  0  0  0
 52 53  2  0  0  0  0
 53 54  1  0  0  0  0
 54 55  2  0  0  0  0
 55 56  1  0  0  0  0
 56 57  1  0  0  0  0
 55 58  1  0  0  0  0
 58 59  2  0  0  0  0
 49 60  1  0  0  0  0
 60 61  2  0  0  0  0
 61 62  1  0  0  0  0
 62 63  2  0  0  0  0
 63 64  1  0  0  0  0
 64 65  1  0  0  0  0
 63 66  1  0  0  0  0
 66 67  2  0  0  0  0
 48 68  1  0  0  0  0
 68 69  1  0  0  0  0
 69 70  1  0  0  0  0
 70 71  1  0  0  0  0
 71 72  2  0  0  0  0
 72 73  1  0  0  0  0
 73 74  1  0  0  0  0
 74 75  1  0  0  0  0
 75 76  2  0  0  0  0
 76 77  1  0  0  0  0
 77 78  2  0  0  0  0
 78 79  1  0  0  0  0
 79 80  1  0  0  0  0
 78 81  1  0  0  0  0
 81 82  2  0  0  0  0
 74 83  1  0  0  0  0
 83 84  2  0  0  0  0
 84 85  1  0  0  0  0
 85 86  2  0  0  0  0
 86 87  1  0  0  0  0
 87 88  1  0  0  0  0
 86 89  1  0  0  0  0
 89 90  2  0  0  0  0
 74 91  1  0  0  0  0
 91 92  2  0  0  0  0
 92 93  1  0  0  0  0
 93 94  1  0  0  0  0
 94 95  2  0  0  0  0
 95 96  1  0  0  0  0
 96 97  1  0  0  0  0
 97 98  2  0  0  0  0
 98 99  1  0  0  0  0
 99100  2  0  0  0  0
100101  1  0  0  0  0
101102  1  0  0  0  0
100103  1  0  0  0  0
103104  2  0  0  0  0
 96105  1  0  0  0  0
105106  2  0  0  0  0
106107  1  0  0  0  0
107108  2  0  0  0  0
108109  1  0  0  0  0
109110  1  0  0  0  0
108111  1  0  0  0  0
111112  2  0  0  0  0
 96113  1  0  0  0  0
113114  1  0  0  0  0
114115  1  0  0  0  0
 92116  1  0  0  0  0
116117  1  0  0  0  0
117118  2  0  0  0  0
117119  1  0  0  0  0
119120  2  0  0  0  0
120121  1  0  0  0  0
121122  2  0  0  0  0
121123  1  0  0  0  0
123124  2  0  0  0  0
124125  1  0  0  0  0
125126  2  0  0  0  0
126127  1  0  0  0  0
127128  2  0  0  0  0
128129  1  0  0  0  0
129130  2  0  0  0  0
130131  1  0  0  0  0
131132  3  0  0  0  0
130133  1  0  0  0  0
133134  3  0  0  0  0
126135  1  0  0  0  0
135136  1  0  0  0  0
136137  1  0  0  0  0
137138  2  0  0  0  0
138139  1  0  0  0  0
139140  1  0  0  0  0
139141  1  0  0  0  0
 15  2  1  0  0  0  0
 28 21  2  0  0  0  0
 36 29  1  0  0  0  0
 44 37  1  0  0  0  0
 50 46  1  0  0  0  0
 59 52  1  0  0  0  0
 67 60  1  0  0  0  0
114 68  2  0  0  0  0
129120  1  0  0  0  0
141135  1  0  0  0  0
 14  5  1  0  0  0  0
 27 23  2  0  0  0  0
115 47  1  0  0  0  0
128123  1  0  0  0  0
140136  1  0  0  0  0
 51 24  1  0  0  0  0
113 70  2  0  0  0  0
141125  1  0  0  0  0
 95 71  1  0  0  0  0
104 97  1  0  0  0  0
112105  1  0  0  0  0
 93 73  2  0  0  0  0
 82 75  1  0  0  0  0
 90 83  1  0  0  0  0
118 91  1  0  0  0  0
  1142  1  0  0  0  0
 28143  1  0  0  0  0
 30144  1  0  0  0  0
 31145  1  0  0  0  0
 33146  1  0  0  0  0
 33147  1  0  0  0  0
 34148  1  0  0  0  0
 34149  1  0  0  0  0
 34150  1  0  0  0  0
 35151  1  0  0  0  0
 36152  1  0  0  0  0
 38153  1  0  0  0  0
 39154  1  0  0  0  0
 41155  1  0  0  0  0
 41156  1  0  0  0  0
 42157  1  0  0  0  0
 42158  1  0  0  0  0
 42159  1  0  0  0  0
 43160  1  0  0  0  0
 44161  1  0  0  0  0
 45162  1  0  0  0  0
 51163  1  0  0  0  0
 53164  1  0  0  0  0
 54165  1  0  0  0  0
 56166  1  0  0  0  0
 56167  1  0  0  0  0
 57168  1  0  0  0  0
 57169  1  0  0  0  0
 57170  1  0  0  0  0
 58171  1  0  0  0  0
 59172  1  0  0  0  0
 61173  1  0  0  0  0
 62174  1  0  0  0  0
 64175  1  0  0  0  0
 64176  1  0  0  0  0
 65177  1  0  0  0  0
 65178  1  0  0  0  0
 65179  1  0  0  0  0
 66180  1  0  0  0  0
 67181  1  0  0  0  0
 72182  1  0  0  0  0
 76183  1  0  0  0  0
 77184  1  0  0  0  0
 79185  1  0  0  0  0
 79186  1  0  0  0  0
 80187  1  0  0  0  0
 80188  1  0  0  0  0
 80189  1  0  0  0  0
 81190  1  0  0  0  0
 82191  1  0  0  0  0
 84192  1  0  0  0  0
 85193  1  0  0  0  0
 87194  1  0  0  0  0
 87195  1  0  0  0  0
 88196  1  0  0  0  0
 88197  1  0  0  0  0
 88198  1  0  0  0  0
 89199  1  0  0  0  0
 90200  1  0  0  0  0
 94201  1  0  0  0  0
 98202  1  0  0  0  0
 99203  1  0  0  0  0
101204  1  0  0  0  0
101205  1  0  0  0  0
102206  1  0  0  0  0
102207  1  0  0  0  0
102208  1  0  0  0  0
103209  1  0  0  0  0
104210  1  0  0  0  0
106211  1  0  0  0  0
107212  1  0  0  0  0
109213  1  0  0  0  0
109214  1  0  0  0  0
110215  1  0  0  0  0
110216  1  0  0  0  0
110217  1  0  0  0  0
111218  1  0  0  0  0
112219  1  0  0  0  0
118220  1  0  0  0  0
119221  1  0  0  0  0
124222  1  0  0  0  0
127223  1  0  0  0  0
135224  1  0  0  0  0
136225  1  0  0  0  0
137226  1  0  0  0  0
138227  1  0  0  0  0
139228  1  0  0  0  0
140229  1  0  0  0  0
140230  1  0  0  0  0
141231  1  0  0  0  0
M  END
