
  xtb     01272209113D
 energy: -251.080165210745 gnorm: 0.000174488806 xtb: 6.4.1 (unknown)
148162  0     0  0            999 V2000
    6.8658    3.0337   -2.4779 C   0  0  0  0  0  0  0  0  0  0  0  0
    7.4768    3.9415   -1.6438 C   0  0  0  0  0  0  0  0  0  0  0  0
    7.1365    4.1898   -0.2450 C   0  0  0  0  0  0  0  0  0  0  0  0
    6.3808    3.5539    0.4644 O   0  0  0  0  0  0  0  0  0  0  0  0
    7.8827    5.4100    0.1426 C   0  0  0  0  0  0  0  0  0  0  0  0
    7.8110    6.1269    1.3230 C   0  0  0  0  0  0  0  0  0  0  0  0
    6.8997    5.5665    2.6524 Cl  0  0  0  0  0  0  0  0  0  0  0  0
    8.5010    7.3451    1.4007 C   0  0  0  0  0  0  0  0  0  0  0  0
    8.4702    8.2519    2.8500 Cl  0  0  0  0  0  0  0  0  0  0  0  0
    9.1717    7.8396    0.2841 C   0  0  0  0  0  0  0  0  0  0  0  0
    9.9176    9.3769    0.3699 Cl  0  0  0  0  0  0  0  0  0  0  0  0
    9.2328    7.1097   -0.9149 C   0  0  0  0  0  0  0  0  0  0  0  0
    9.9166    7.8689   -2.2925 Cl  0  0  0  0  0  0  0  0  0  0  0  0
    8.6457    5.8518   -0.9574 C   0  0  0  0  0  0  0  0  0  0  0  0
    8.5512    4.8431   -2.0124 C   0  0  0  0  0  0  0  0  0  0  0  0
    9.4402    4.6547   -3.0393 C   0  0  0  0  0  0  0  0  0  0  0  0
    9.3098    3.6689   -4.0419 C   0  0  0  0  0  0  0  0  0  0  0  0
    9.2724    2.9124   -4.9053 N   0  0  0  0  0  0  0  0  0  0  0  0
   10.6985    5.2820   -3.1659 C   0  0  0  0  0  0  0  0  0  0  0  0
   11.7778    5.6485   -3.3007 N   0  0  0  0  0  0  0  0  0  0  0  0
    5.8315    2.1271   -2.2351 C   0  0  0  0  0  0  0  0  0  0  0  0
    5.0572    1.8094   -0.6857 S   0  0  0  0  0  0  0  0  0  0  0  0
    3.9979    0.7077   -1.4433 C   0  0  0  0  0  0  0  0  0  0  0  0
    2.8710   -0.0705   -1.0475 C   0  0  0  0  0  0  0  0  0  0  0  0
    2.3698   -0.7108   -2.2057 C   0  0  0  0  0  0  0  0  0  0  0  0
    3.2393   -0.4060   -3.4148 C   0  0  0  0  0  0  0  0  0  0  0  0
    2.3581    0.1658   -4.5074 C   0  0  0  0  0  0  0  0  0  0  0  0
    1.7383   -0.6827   -5.4164 C   0  0  0  0  0  0  0  0  0  0  0  0
    0.8835   -0.1773   -6.3771 C   0  0  0  0  0  0  0  0  0  0  0  0
    0.6214    1.1845   -6.4544 C   0  0  0  0  0  0  0  0  0  0  0  0
   -0.3458    1.7221   -7.4689 C   0  0  0  0  0  0  0  0  0  0  0  0
   -1.7727    1.6818   -6.9175 C   0  0  0  0  0  0  0  0  0  0  0  0
    1.2351    2.0266   -5.5371 C   0  0  0  0  0  0  0  0  0  0  0  0
    2.0900    1.5258   -4.5723 C   0  0  0  0  0  0  0  0  0  0  0  0
    4.0462   -1.5978   -3.9003 C   0  0  0  0  0  0  0  0  0  0  0  0
    4.1683   -2.7581   -3.1510 C   0  0  0  0  0  0  0  0  0  0  0  0
    4.9576   -3.8011   -3.6028 C   0  0  0  0  0  0  0  0  0  0  0  0
    5.6506   -3.7075   -4.8013 C   0  0  0  0  0  0  0  0  0  0  0  0
    6.4745   -4.8554   -5.3087 C   0  0  0  0  0  0  0  0  0  0  0  0
    5.6319   -5.7620   -6.2082 C   0  0  0  0  0  0  0  0  0  0  0  0
    5.5288   -2.5396   -5.5446 C   0  0  0  0  0  0  0  0  0  0  0  0
    4.7411   -1.4966   -5.1000 C   0  0  0  0  0  0  0  0  0  0  0  0
    4.2159    0.5782   -2.8200 C   0  0  0  0  0  0  0  0  0  0  0  0
    5.2561    1.3597   -3.2632 C   0  0  0  0  0  0  0  0  0  0  0  0
    1.1874   -1.4117   -2.1657 C   0  0  0  0  0  0  0  0  0  0  0  0
    0.5292   -1.4773   -0.9401 C   0  0  0  0  0  0  0  0  0  0  0  0
   -0.7723   -1.9572   -0.6046 C   0  0  0  0  0  0  0  0  0  0  0  0
   -1.0637   -1.7168    0.7309 C   0  0  0  0  0  0  0  0  0  0  0  0
    0.1564   -1.1580    1.4286 C   0  0  0  0  0  0  0  0  0  0  0  0
    1.0746   -0.9097    0.2357 C   0  0  0  0  0  0  0  0  0  0  0  0
    2.2433   -0.1914    0.1921 C   0  0  0  0  0  0  0  0  0  0  0  0
   -0.1595    0.1317    2.1594 C   0  0  0  0  0  0  0  0  0  0  0  0
   -0.5157    1.2478    1.4102 C   0  0  0  0  0  0  0  0  0  0  0  0
   -0.8298    2.4417    2.0295 C   0  0  0  0  0  0  0  0  0  0  0  0
   -0.8032    2.5562    3.4140 C   0  0  0  0  0  0  0  0  0  0  0  0
   -1.0897    3.8671    4.0856 C   0  0  0  0  0  0  0  0  0  0  0  0
    0.2048    4.6608    4.2744 C   0  0  0  0  0  0  0  0  0  0  0  0
   -0.4586    1.4374    4.1593 C   0  0  0  0  0  0  0  0  0  0  0  0
   -0.1457    0.2376    3.5444 C   0  0  0  0  0  0  0  0  0  0  0  0
    0.8417   -2.2070    2.2924 C   0  0  0  0  0  0  0  0  0  0  0  0
    0.3954   -3.5209    2.3397 C   0  0  0  0  0  0  0  0  0  0  0  0
    1.0581   -4.4658    3.1037 C   0  0  0  0  0  0  0  0  0  0  0  0
    2.1894   -4.1309    3.8333 C   0  0  0  0  0  0  0  0  0  0  0  0
    2.8789   -5.1467    4.6968 C   0  0  0  0  0  0  0  0  0  0  0  0
    2.2777   -5.1483    6.1039 C   0  0  0  0  0  0  0  0  0  0  0  0
    2.6412   -2.8185    3.7751 C   0  0  0  0  0  0  0  0  0  0  0  0
    1.9830   -1.8724    3.0139 C   0  0  0  0  0  0  0  0  0  0  0  0
   -2.3899   -2.0507    1.0250 C   0  0  0  0  0  0  0  0  0  0  0  0
   -3.0669   -2.5534   -0.1205 C   0  0  0  0  0  0  0  0  0  0  0  0
   -2.0730   -2.6193   -1.5370 S   0  0  0  0  0  0  0  0  0  0  0  0
   -4.3841   -2.7892    0.2571 C   0  0  0  0  0  0  0  0  0  0  0  0
   -5.8966   -3.2986   -0.3739 S   0  0  0  0  0  0  0  0  0  0  0  0
   -6.6777   -2.9282    1.1655 C   0  0  0  0  0  0  0  0  0  0  0  0
   -5.7742   -2.4969    2.1258 C   0  0  0  0  0  0  0  0  0  0  0  0
   -4.4818   -2.4186    1.6222 C   0  0  0  0  0  0  0  0  0  0  0  0
   -3.2659   -1.9843    2.0760 N   0  0  0  0  0  0  0  0  0  0  0  0
   -3.0073   -1.5267    3.4173 C   0  0  0  0  0  0  0  0  0  0  0  0
   -2.5271   -2.6600    4.3214 C   0  0  0  0  0  0  0  0  0  0  0  0
   -8.0705   -3.1092    1.2660 C   0  0  0  0  0  0  0  0  0  0  0  0
   -8.9504   -2.5714    2.1611 C   0  0  0  0  0  0  0  0  0  0  0  0
  -10.2871   -3.2065    2.3260 C   0  0  0  0  0  0  0  0  0  0  0  0
  -10.7733   -4.0590    1.6169 O   0  0  0  0  0  0  0  0  0  0  0  0
  -10.8528   -2.6094    3.5497 C   0  0  0  0  0  0  0  0  0  0  0  0
  -12.0314   -2.9035    4.2075 C   0  0  0  0  0  0  0  0  0  0  0  0
  -12.3374   -2.1968    5.3599 C   0  0  0  0  0  0  0  0  0  0  0  0
  -11.4818   -1.2169    5.8590 C   0  0  0  0  0  0  0  0  0  0  0  0
  -11.8231   -0.4883    7.1201 C   0  0  0  0  0  0  0  0  0  0  0  0
  -10.2947   -0.9245    5.1889 C   0  0  0  0  0  0  0  0  0  0  0  0
   -9.9834   -1.6139    4.0308 C   0  0  0  0  0  0  0  0  0  0  0  0
   -8.8626   -1.4776    3.0991 C   0  0  0  0  0  0  0  0  0  0  0  0
   -8.0649   -0.3644    3.0040 C   0  0  0  0  0  0  0  0  0  0  0  0
   -7.1898   -0.0934    1.9341 C   0  0  0  0  0  0  0  0  0  0  0  0
   -6.4888    0.2184    1.0795 N   0  0  0  0  0  0  0  0  0  0  0  0
   -8.0764    0.6977    3.9296 C   0  0  0  0  0  0  0  0  0  0  0  0
   -8.0081    1.5775    4.6650 N   0  0  0  0  0  0  0  0  0  0  0  0
    7.1908    3.0377   -3.5116 H   0  0  0  0  0  0  0  0  0  0  0  0
    1.9345   -1.7446   -5.3781 H   0  0  0  0  0  0  0  0  0  0  0  0
    0.4134   -0.8511   -7.0792 H   0  0  0  0  0  0  0  0  0  0  0  0
   -0.0857    2.7521   -7.7206 H   0  0  0  0  0  0  0  0  0  0  0  0
   -0.2961    1.1239   -8.3810 H   0  0  0  0  0  0  0  0  0  0  0  0
   -2.0550    0.6606   -6.6716 H   0  0  0  0  0  0  0  0  0  0  0  0
   -2.4753    2.0697   -7.6512 H   0  0  0  0  0  0  0  0  0  0  0  0
   -1.8461    2.2828   -6.0138 H   0  0  0  0  0  0  0  0  0  0  0  0
    1.0421    3.0892   -5.5766 H   0  0  0  0  0  0  0  0  0  0  0  0
    2.5518    2.2002   -3.8655 H   0  0  0  0  0  0  0  0  0  0  0  0
    3.6462   -2.8525   -2.2098 H   0  0  0  0  0  0  0  0  0  0  0  0
    5.0396   -4.6998   -3.0080 H   0  0  0  0  0  0  0  0  0  0  0  0
    6.8570   -5.4373   -4.4678 H   0  0  0  0  0  0  0  0  0  0  0  0
    7.3257   -4.4759   -5.8774 H   0  0  0  0  0  0  0  0  0  0  0  0
    4.7845   -6.1613   -5.6552 H   0  0  0  0  0  0  0  0  0  0  0  0
    6.2287   -6.5927   -6.5774 H   0  0  0  0  0  0  0  0  0  0  0  0
    5.2515   -5.2021   -7.0596 H   0  0  0  0  0  0  0  0  0  0  0  0
    6.0625   -2.4443   -6.4792 H   0  0  0  0  0  0  0  0  0  0  0  0
    4.6552   -0.5968   -5.6917 H   0  0  0  0  0  0  0  0  0  0  0  0
    5.6059    1.4196   -4.2782 H   0  0  0  0  0  0  0  0  0  0  0  0
    0.7588   -1.8619   -3.0477 H   0  0  0  0  0  0  0  0  0  0  0  0
    2.6495    0.3109    1.0557 H   0  0  0  0  0  0  0  0  0  0  0  0
   -0.5443    1.1775    0.3321 H   0  0  0  0  0  0  0  0  0  0  0  0
   -1.1020    3.2973    1.4289 H   0  0  0  0  0  0  0  0  0  0  0  0
   -1.5498    3.6916    5.0601 H   0  0  0  0  0  0  0  0  0  0  0  0
   -1.7853    4.4497    3.4789 H   0  0  0  0  0  0  0  0  0  0  0  0
    0.6742    4.8540    3.3125 H   0  0  0  0  0  0  0  0  0  0  0  0
    0.9059    4.1015    4.8900 H   0  0  0  0  0  0  0  0  0  0  0  0
   -0.0003    5.6124    4.7588 H   0  0  0  0  0  0  0  0  0  0  0  0
   -0.4384    1.5001    5.2381 H   0  0  0  0  0  0  0  0  0  0  0  0
    0.1113   -0.6172    4.1532 H   0  0  0  0  0  0  0  0  0  0  0  0
   -0.4726   -3.8224    1.7719 H   0  0  0  0  0  0  0  0  0  0  0  0
    0.6894   -5.4815    3.1260 H   0  0  0  0  0  0  0  0  0  0  0  0
    3.9439   -4.9157    4.7610 H   0  0  0  0  0  0  0  0  0  0  0  0
    2.7699   -6.1405    4.2582 H   0  0  0  0  0  0  0  0  0  0  0  0
    2.3880   -4.1687    6.5638 H   0  0  0  0  0  0  0  0  0  0  0  0
    2.7773   -5.8837    6.7298 H   0  0  0  0  0  0  0  0  0  0  0  0
    1.2177   -5.3898    6.0628 H   0  0  0  0  0  0  0  0  0  0  0  0
    3.5247   -2.5338    4.3284 H   0  0  0  0  0  0  0  0  0  0  0  0
    2.3581   -0.8610    2.9880 H   0  0  0  0  0  0  0  0  0  0  0  0
   -6.0580   -2.2878    3.1416 H   0  0  0  0  0  0  0  0  0  0  0  0
   -2.2567   -0.7351    3.3759 H   0  0  0  0  0  0  0  0  0  0  0  0
   -3.9356   -1.1007    3.8070 H   0  0  0  0  0  0  0  0  0  0  0  0
   -1.5824   -3.0597    3.9595 H   0  0  0  0  0  0  0  0  0  0  0  0
   -3.2598   -3.4637    4.3476 H   0  0  0  0  0  0  0  0  0  0  0  0
   -2.3824   -2.2869    5.3314 H   0  0  0  0  0  0  0  0  0  0  0  0
   -8.5125   -3.8080    0.5619 H   0  0  0  0  0  0  0  0  0  0  0  0
  -12.6931   -3.6625    3.8196 H   0  0  0  0  0  0  0  0  0  0  0  0
  -13.2579   -2.4058    5.8853 H   0  0  0  0  0  0  0  0  0  0  0  0
  -12.8977   -0.3472    7.2081 H   0  0  0  0  0  0  0  0  0  0  0  0
  -11.3320    0.4809    7.1530 H   0  0  0  0  0  0  0  0  0  0  0  0
  -11.4893   -1.0663    7.9826 H   0  0  0  0  0  0  0  0  0  0  0  0
   -9.6345   -0.1694    5.5856 H   0  0  0  0  0  0  0  0  0  0  0  0
  1  2  2  0  0  0  0
  2  3  1  0  0  0  0
  3  4  2  0  0  0  0
  3  5  1  0  0  0  0
  5  6  2  0  0  0  0
  6  7  1  0  0  0  0
  6  8  1  0  0  0  0
  8  9  1  0  0  0  0
  8 10  2  0  0  0  0
 10 11  1  0  0  0  0
 10 12  1  0  0  0  0
 12 13  1  0  0  0  0
 12 14  2  0  0  0  0
 14 15  1  0  0  0  0
 15 16  2  0  0  0  0
 16 17  1  0  0  0  0
 17 18  3  0  0  0  0
 16 19  1  0  0  0  0
 19 20  3  0  0  0  0
  1 21  1  0  0  0  0
 21 22  1  0  0  0  0
 22 23  1  0  0  0  0
 23 24  1  0  0  0  0
 24 25  2  0  0  0  0
 25 26  1  0  0  0  0
 26 27  1  0  0  0  0
 27 28  2  0  0  0  0
 28 29  1  0  0  0  0
 29 30  2  0  0  0  0
 30 31  1  0  0  0  0
 31 32  1  0  0  0  0
 30 33  1  0  0  0  0
 33 34  2  0  0  0  0
 26 35  1  0  0  0  0
 35 36  2  0  0  0  0
 36 37  1  0  0  0  0
 37 38  2  0  0  0  0
 38 39  1  0  0  0  0
 39 40  1  0  0  0  0
 38 41  1  0  0  0  0
 41 42  2  0  0  0  0
 26 43  1  0  0  0  0
 43 44  1  0  0  0  0
 25 45  1  0  0  0  0
 45 46  2  0  0  0  0
 46 47  1  0  0  0  0
 47 48  2  0  0  0  0
 48 49  1  0  0  0  0
 49 50  1  0  0  0  0
 50 51  2  0  0  0  0
 49 52  1  0  0  0  0
 52 53  2  0  0  0  0
 53 54  1  0  0  0  0
 54 55  2  0  0  0  0
 55 56  1  0  0  0  0
 56 57  1  0  0  0  0
 55 58  1  0  0  0  0
 58 59  2  0  0  0  0
 49 60  1  0  0  0  0
 60 61  2  0  0  0  0
 61 62  1  0  0  0  0
 62 63  2  0  0  0  0
 63 64  1  0  0  0  0
 64 65  1  0  0  0  0
 63 66  1  0  0  0  0
 66 67  2  0  0  0  0
 48 68  1  0  0  0  0
 68 69  2  0  0  0  0
 69 70  1  0  0  0  0
 69 71  1  0  0  0  0
 71 72  1  0  0  0  0
 72 73  1  0  0  0  0
 73 74  2  0  0  0  0
 74 75  1  0  0  0  0
 75 76  1  0  0  0  0
 76 77  1  0  0  0  0
 77 78  1  0  0  0  0
 73 79  1  0  0  0  0
 79 80  2  0  0  0  0
 80 81  1  0  0  0  0
 81 82  2  0  0  0  0
 81 83  1  0  0  0  0
 83 84  2  0  0  0  0
 84 85  1  0  0  0  0
 85 86  2  0  0  0  0
 86 87  1  0  0  0  0
 86 88  1  0  0  0  0
 88 89  2  0  0  0  0
 89 90  1  0  0  0  0
 90 91  2  0  0  0  0
 91 92  1  0  0  0  0
 92 93  3  0  0  0  0
 91 94  1  0  0  0  0
 94 95  3  0  0  0  0
 15  2  1  0  0  0  0
 44 21  2  0  0  0  0
 50 46  1  0  0  0  0
 59 52  1  0  0  0  0
 67 60  1  0  0  0  0
 76 68  1  0  0  0  0
 90 80  1  0  0  0  0
 14  5  1  0  0  0  0
 43 23  2  0  0  0  0
 70 47  1  0  0  0  0
 75 71  2  0  0  0  0
 89 83  1  0  0  0  0
 51 24  1  0  0  0  0
 34 27  1  0  0  0  0
 42 35  1  0  0  0  0
  1 96  1  0  0  0  0
 28 97  1  0  0  0  0
 29 98  1  0  0  0  0
 31 99  1  0  0  0  0
 31100  1  0  0  0  0
 32101  1  0  0  0  0
 32102  1  0  0  0  0
 32103  1  0  0  0  0
 33104  1  0  0  0  0
 34105  1  0  0  0  0
 36106  1  0  0  0  0
 37107  1  0  0  0  0
 39108  1  0  0  0  0
 39109  1  0  0  0  0
 40110  1  0  0  0  0
 40111  1  0  0  0  0
 40112  1  0  0  0  0
 41113  1  0  0  0  0
 42114  1  0  0  0  0
 44115  1  0  0  0  0
 45116  1  0  0  0  0
 51117  1  0  0  0  0
 53118  1  0  0  0  0
 54119  1  0  0  0  0
 56120  1  0  0  0  0
 56121  1  0  0  0  0
 57122  1  0  0  0  0
 57123  1  0  0  0  0
 57124  1  0  0  0  0
 58125  1  0  0  0  0
 59126  1  0  0  0  0
 61127  1  0  0  0  0
 62128  1  0  0  0  0
 64129  1  0  0  0  0
 64130  1  0  0  0  0
 65131  1  0  0  0  0
 65132  1  0  0  0  0
 65133  1  0  0  0  0
 66134  1  0  0  0  0
 67135  1  0  0  0  0
 74136  1  0  0  0  0
 77137  1  0  0  0  0
 77138  1  0  0  0  0
 78139  1  0  0  0  0
 78140  1  0  0  0  0
 78141  1  0  0  0  0
 79142  1  0  0  0  0
 84143  1  0  0  0  0
 85144  1  0  0  0  0
 87145  1  0  0  0  0
 87146  1  0  0  0  0
 87147  1  0  0  0  0
 88148  1  0  0  0  0
M  END
