148

C          6.86580        3.03370       -2.47790
C          7.47680        3.94150       -1.64380
C          7.13650        4.18980       -0.24500
O          6.38080        3.55390        0.46440
C          7.88270        5.41000        0.14260
C          7.81100        6.12690        1.32300
Cl         6.89970        5.56650        2.65240
C          8.50100        7.34510        1.40070
Cl         8.47020        8.25190        2.85000
C          9.17170        7.83960        0.28410
Cl         9.91760        9.37690        0.36990
C          9.23280        7.10970       -0.91490
Cl         9.91660        7.86890       -2.29250
C          8.64570        5.85180       -0.95740
C          8.55120        4.84310       -2.01240
C          9.44020        4.65470       -3.03930
C          9.30980        3.66890       -4.04190
N          9.27240        2.91240       -4.90530
C         10.69850        5.28200       -3.16590
N         11.77780        5.64850       -3.30070
C          5.83150        2.12710       -2.23510
S          5.05720        1.80940       -0.68570
C          3.99790        0.70770       -1.44330
C          2.87100       -0.07050       -1.04750
C          2.36980       -0.71080       -2.20570
C          3.23930       -0.40600       -3.41480
C          2.35810        0.16580       -4.50740
C          1.73830       -0.68270       -5.41640
C          0.88350       -0.17730       -6.37710
C          0.62140        1.18450       -6.45440
C         -0.34580        1.72210       -7.46890
C         -1.77270        1.68180       -6.91750
C          1.23510        2.02660       -5.53710
C          2.09000        1.52580       -4.57230
C          4.04620       -1.59780       -3.90030
C          4.16830       -2.75810       -3.15100
C          4.95760       -3.80110       -3.60280
C          5.65060       -3.70750       -4.80130
C          6.47450       -4.85540       -5.30870
C          5.63190       -5.76200       -6.20820
C          5.52880       -2.53960       -5.54460
C          4.74110       -1.49660       -5.10000
C          4.21590        0.57820       -2.82000
C          5.25610        1.35970       -3.26320
C          1.18740       -1.41170       -2.16570
C          0.52920       -1.47730       -0.94010
C         -0.77230       -1.95720       -0.60460
C         -1.06370       -1.71680        0.73090
C          0.15640       -1.15800        1.42860
C          1.07460       -0.90970        0.23570
C          2.24330       -0.19140        0.19210
C         -0.15950        0.13170        2.15940
C         -0.51570        1.24780        1.41020
C         -0.82980        2.44170        2.02950
C         -0.80320        2.55620        3.41400
C         -1.08970        3.86710        4.08560
C          0.20480        4.66080        4.27440
C         -0.45860        1.43740        4.15930
C         -0.14570        0.23760        3.54440
C          0.84170       -2.20700        2.29240
C          0.39540       -3.52090        2.33970
C          1.05810       -4.46580        3.10370
C          2.18940       -4.13090        3.83330
C          2.87890       -5.14670        4.69680
C          2.27770       -5.14830        6.10390
C          2.64120       -2.81850        3.77510
C          1.98300       -1.87240        3.01390
C         -2.38990       -2.05070        1.02500
C         -3.06690       -2.55340       -0.12050
S         -2.07300       -2.61930       -1.53700
C         -4.38410       -2.78920        0.25710
S         -5.89660       -3.29860       -0.37390
C         -6.67770       -2.92820        1.16550
C         -5.77420       -2.49690        2.12580
C         -4.48180       -2.41860        1.62220
N         -3.26590       -1.98430        2.07600
C         -3.00730       -1.52670        3.41730
C         -2.52710       -2.66000        4.32140
C         -8.07050       -3.10920        1.26600
C         -8.95040       -2.57140        2.16110
C        -10.28710       -3.20650        2.32600
O        -10.77330       -4.05900        1.61690
C        -10.85280       -2.60940        3.54970
C        -12.03140       -2.90350        4.20750
C        -12.33740       -2.19680        5.35990
C        -11.48180       -1.21690        5.85900
C        -11.82310       -0.48830        7.12010
C        -10.29470       -0.92450        5.18890
C         -9.98340       -1.61390        4.03080
C         -8.86260       -1.47760        3.09910
C         -8.06490       -0.36440        3.00400
C         -7.18980       -0.09340        1.93410
N         -6.48880        0.21840        1.07950
C         -8.07640        0.69770        3.92960
N         -8.00810        1.57750        4.66500
H          7.19080        3.03770       -3.51160
H          1.93450       -1.74460       -5.37810
H          0.41340       -0.85110       -7.07920
H         -0.08570        2.75210       -7.72060
H         -0.29610        1.12390       -8.38100
H         -2.05500        0.66060       -6.67160
H         -2.47530        2.06970       -7.65120
H         -1.84610        2.28280       -6.01380
H          1.04210        3.08920       -5.57660
H          2.55180        2.20020       -3.86550
H          3.64620       -2.85250       -2.20980
H          5.03960       -4.69980       -3.00800
H          6.85700       -5.43730       -4.46780
H          7.32570       -4.47590       -5.87740
H          4.78450       -6.16130       -5.65520
H          6.22870       -6.59270       -6.57740
H          5.25150       -5.20210       -7.05960
H          6.06250       -2.44430       -6.47920
H          4.65520       -0.59680       -5.69170
H          5.60590        1.41960       -4.27820
H          0.75880       -1.86190       -3.04770
H          2.64950        0.31090        1.05570
H         -0.54430        1.17750        0.33210
H         -1.10200        3.29730        1.42890
H         -1.54980        3.69160        5.06010
H         -1.78530        4.44970        3.47890
H          0.67420        4.85400        3.31250
H          0.90590        4.10150        4.89000
H         -0.00030        5.61240        4.75880
H         -0.43840        1.50010        5.23810
H          0.11130       -0.61720        4.15320
H         -0.47260       -3.82240        1.77190
H          0.68940       -5.48150        3.12600
H          3.94390       -4.91570        4.76100
H          2.76990       -6.14050        4.25820
H          2.38800       -4.16870        6.56380
H          2.77730       -5.88370        6.72980
H          1.21770       -5.38980        6.06280
H          3.52470       -2.53380        4.32840
H          2.35810       -0.86100        2.98800
H         -6.05800       -2.28780        3.14160
H         -2.25670       -0.73510        3.37590
H         -3.93560       -1.10070        3.80700
H         -1.58240       -3.05970        3.95950
H         -3.25980       -3.46370        4.34760
H         -2.38240       -2.28690        5.33140
H         -8.51250       -3.80800        0.56190
H        -12.69310       -3.66250        3.81960
H        -13.25790       -2.40580        5.88530
H        -12.89770       -0.34720        7.20810
H        -11.33200        0.48090        7.15300
H        -11.48930       -1.06630        7.98260
H         -9.63450       -0.16940        5.58560
