
  xtb     02012218183D
 energy: -198.774681029593 gnorm: 0.000252874884 xtb: 6.4.1 (unknown)
 97108  0     0  0            999 V2000
   -7.6464   -1.5879    2.5662 C   0  0  0  0  0  0  0  0  0  0  0  0
   -7.6430   -2.8308    3.1582 C   0  0  0  0  0  0  0  0  0  0  0  0
   -6.4811   -3.6888    3.3686 C   0  0  0  0  0  0  0  0  0  0  0  0
   -5.3092   -3.4211    3.1782 O   0  0  0  0  0  0  0  0  0  0  0  0
   -7.0131   -4.9890    3.8346 C   0  0  0  0  0  0  0  0  0  0  0  0
   -6.3280   -6.1669    4.0712 C   0  0  0  0  0  0  0  0  0  0  0  0
   -4.6248   -6.2364    4.0067 Cl  0  0  0  0  0  0  0  0  0  0  0  0
   -7.0729   -7.3195    4.3588 C   0  0  0  0  0  0  0  0  0  0  0  0
   -6.2709   -8.7921    4.6931 Cl  0  0  0  0  0  0  0  0  0  0  0  0
   -8.4654   -7.2764    4.3260 C   0  0  0  0  0  0  0  0  0  0  0  0
   -9.3521   -8.7178    4.5752 Cl  0  0  0  0  0  0  0  0  0  0  0  0
   -9.1547   -6.0774    4.0768 C   0  0  0  0  0  0  0  0  0  0  0  0
  -10.8558   -6.1471    3.8711 Cl  0  0  0  0  0  0  0  0  0  0  0  0
   -8.4189   -4.9119    3.9060 C   0  0  0  0  0  0  0  0  0  0  0  0
   -8.8104   -3.5221    3.6736 C   0  0  0  0  0  0  0  0  0  0  0  0
   -9.9809   -2.9317    4.0755 C   0  0  0  0  0  0  0  0  0  0  0  0
  -10.3137   -1.5780    3.8518 C   0  0  0  0  0  0  0  0  0  0  0  0
  -10.6659   -0.4950    3.7023 N   0  0  0  0  0  0  0  0  0  0  0  0
  -10.9506   -3.5106    4.9230 C   0  0  0  0  0  0  0  0  0  0  0  0
  -11.7387   -3.8409    5.6891 N   0  0  0  0  0  0  0  0  0  0  0  0
   -6.6004   -0.8132    2.0622 C   0  0  0  0  0  0  0  0  0  0  0  0
   -6.7933    0.4365    1.4407 C   0  0  0  0  0  0  0  0  0  0  0  0
   -8.1000    1.1382    1.2689 C   0  0  0  0  0  0  0  0  0  0  0  0
   -8.4760    1.9114    2.5360 C   0  0  0  0  0  0  0  0  0  0  0  0
   -5.5894    0.9876    1.0285 C   0  0  0  0  0  0  0  0  0  0  0  0
   -5.1961    2.4741    0.1820 S   0  0  0  0  0  0  0  0  0  0  0  0
   -3.5323    2.0018    0.1903 C   0  0  0  0  0  0  0  0  0  0  0  0
   -2.3016    2.4407   -0.3144 C   0  0  0  0  0  0  0  0  0  0  0  0
   -1.9849    3.5225   -1.1666 C   0  0  0  0  0  0  0  0  0  0  0  0
   -0.6562    3.6205   -1.6953 C   0  0  0  0  0  0  0  0  0  0  0  0
   -0.5188    4.6358   -2.5333 N   0  0  0  0  0  0  0  0  0  0  0  0
   -1.9382    5.4061   -2.6430 S   0  0  0  0  0  0  0  0  0  0  0  0
   -2.7837    4.4719   -1.6273 N   0  0  0  0  0  0  0  0  0  0  0  0
    0.3252    2.7094   -1.2456 C   0  0  0  0  0  0  0  0  0  0  0  0
    1.6996    2.6333   -1.5056 C   0  0  0  0  0  0  0  0  0  0  0  0
    2.8867    3.3933   -2.5040 S   0  0  0  0  0  0  0  0  0  0  0  0
    4.1089    2.3512   -1.8113 C   0  0  0  0  0  0  0  0  0  0  0  0
    5.4751    2.1840   -2.0756 C   0  0  0  0  0  0  0  0  0  0  0  0
    6.2488    3.0697   -3.0024 C   0  0  0  0  0  0  0  0  0  0  0  0
    5.6704    3.1125   -4.4168 C   0  0  0  0  0  0  0  0  0  0  0  0
    6.0238    1.2034   -1.2577 C   0  0  0  0  0  0  0  0  0  0  0  0
    4.8492    0.5375   -0.1280 S   0  0  0  0  0  0  0  0  0  0  0  0
    3.6008    1.4924   -0.8254 C   0  0  0  0  0  0  0  0  0  0  0  0
    2.2186    1.6335   -0.6750 C   0  0  0  0  0  0  0  0  0  0  0  0
    1.2135    1.0764    0.0675 N   0  0  0  0  0  0  0  0  0  0  0  0
    0.0297    1.6937   -0.2887 C   0  0  0  0  0  0  0  0  0  0  0  0
   -1.3244    1.4773    0.0788 C   0  0  0  0  0  0  0  0  0  0  0  0
   -1.9609    0.4699    0.7825 N   0  0  0  0  0  0  0  0  0  0  0  0
   -3.2948    0.7812    0.8344 C   0  0  0  0  0  0  0  0  0  0  0  0
   -4.4654    0.1895    1.3124 C   0  0  0  0  0  0  0  0  0  0  0  0
   -4.8946   -1.2703    2.1154 S   0  0  0  0  0  0  0  0  0  0  0  0
   -1.5839   -0.9161    0.9655 C   0  0  0  0  0  0  0  0  0  0  0  0
   -1.6333   -1.6706   -0.3611 C   0  0  0  0  0  0  0  0  0  0  0  0
    1.5428    0.2511    1.2079 C   0  0  0  0  0  0  0  0  0  0  0  0
    1.8975   -1.1791    0.8046 C   0  0  0  0  0  0  0  0  0  0  0  0
    7.3446    0.7038   -1.1550 C   0  0  0  0  0  0  0  0  0  0  0  0
    8.2625    0.4902   -2.1391 C   0  0  0  0  0  0  0  0  0  0  0  0
    9.6996    0.3421   -1.7964 C   0  0  0  0  0  0  0  0  0  0  0  0
   10.1768    0.2225   -0.6926 O   0  0  0  0  0  0  0  0  0  0  0  0
   10.4142    0.4243   -3.0924 C   0  0  0  0  0  0  0  0  0  0  0  0
   11.7741    0.4460   -3.3265 C   0  0  0  0  0  0  0  0  0  0  0  0
   12.2162    0.5545   -4.6402 C   0  0  0  0  0  0  0  0  0  0  0  0
   13.8970    0.5875   -5.0006 Cl  0  0  0  0  0  0  0  0  0  0  0  0
   11.2807    0.6388   -5.6748 C   0  0  0  0  0  0  0  0  0  0  0  0
   11.7144    0.7588   -6.9345 F   0  0  0  0  0  0  0  0  0  0  0  0
    9.9133    0.6057   -5.4497 C   0  0  0  0  0  0  0  0  0  0  0  0
    9.4774    0.4945   -4.1395 C   0  0  0  0  0  0  0  0  0  0  0  0
    8.1326    0.3971   -3.5770 C   0  0  0  0  0  0  0  0  0  0  0  0
    7.0145    0.0145   -4.2699 C   0  0  0  0  0  0  0  0  0  0  0  0
    5.7896   -0.3376   -3.6671 C   0  0  0  0  0  0  0  0  0  0  0  0
    4.7811   -0.6843   -3.2423 N   0  0  0  0  0  0  0  0  0  0  0  0
    6.9806   -0.1583   -5.6695 C   0  0  0  0  0  0  0  0  0  0  0  0
    6.8898   -0.2922   -6.8055 N   0  0  0  0  0  0  0  0  0  0  0  0
   -8.6195   -1.1336    2.4352 H   0  0  0  0  0  0  0  0  0  0  0  0
   -8.0000    1.8408    0.4389 H   0  0  0  0  0  0  0  0  0  0  0  0
   -8.8948    0.4320    1.0252 H   0  0  0  0  0  0  0  0  0  0  0  0
   -7.6919    2.6197    2.7927 H   0  0  0  0  0  0  0  0  0  0  0  0
   -9.4000    2.4577    2.3712 H   0  0  0  0  0  0  0  0  0  0  0  0
   -8.6260    1.2335    3.3723 H   0  0  0  0  0  0  0  0  0  0  0  0
    7.2920    2.7527   -3.0309 H   0  0  0  0  0  0  0  0  0  0  0  0
    6.2225    4.0835   -2.5899 H   0  0  0  0  0  0  0  0  0  0  0  0
    6.3268    3.6887   -5.0640 H   0  0  0  0  0  0  0  0  0  0  0  0
    4.6906    3.5816   -4.4155 H   0  0  0  0  0  0  0  0  0  0  0  0
    5.5642    2.1146   -4.8341 H   0  0  0  0  0  0  0  0  0  0  0  0
   -2.3074   -1.3493    1.6606 H   0  0  0  0  0  0  0  0  0  0  0  0
   -0.6000   -1.0006    1.4143 H   0  0  0  0  0  0  0  0  0  0  0  0
   -2.6368   -1.6317   -0.7782 H   0  0  0  0  0  0  0  0  0  0  0  0
   -1.3663   -2.7119   -0.2040 H   0  0  0  0  0  0  0  0  0  0  0  0
   -0.9450   -1.2315   -1.0809 H   0  0  0  0  0  0  0  0  0  0  0  0
    0.7185    0.2904    1.9215 H   0  0  0  0  0  0  0  0  0  0  0  0
    2.4162    0.7008    1.6944 H   0  0  0  0  0  0  0  0  0  0  0  0
    2.8009   -1.1824    0.2013 H   0  0  0  0  0  0  0  0  0  0  0  0
    2.0782   -1.7759    1.6943 H   0  0  0  0  0  0  0  0  0  0  0  0
    1.1054   -1.6410    0.2233 H   0  0  0  0  0  0  0  0  0  0  0  0
    7.6877    0.4727   -0.1503 H   0  0  0  0  0  0  0  0  0  0  0  0
   12.4740    0.3791   -2.5091 H   0  0  0  0  0  0  0  0  0  0  0  0
    9.2409    0.6763   -6.2894 H   0  0  0  0  0  0  0  0  0  0  0  0
  1  2  2  0  0  0  0
  2  3  1  0  0  0  0
  3  4  2  0  0  0  0
  3  5  1  0  0  0  0
  5  6  2  0  0  0  0
  6  7  1  0  0  0  0
  6  8  1  0  0  0  0
  8  9  1  0  0  0  0
  8 10  2  0  0  0  0
 10 11  1  0  0  0  0
 10 12  1  0  0  0  0
 12 13  1  0  0  0  0
 12 14  2  0  0  0  0
 14 15  1  0  0  0  0
 15 16  2  0  0  0  0
 16 17  1  0  0  0  0
 17 18  3  0  0  0  0
 16 19  1  0  0  0  0
 19 20  3  0  0  0  0
  1 21  1  0  0  0  0
 21 22  2  0  0  0  0
 22 23  1  0  0  0  0
 23 24  1  0  0  0  0
 22 25  1  0  0  0  0
 25 26  1  0  0  0  0
 26 27  1  0  0  0  0
 27 28  1  0  0  0  0
 28 29  1  0  0  0  0
 29 30  1  0  0  0  0
 30 31  2  0  0  0  0
 31 32  1  0  0  0  0
 32 33  1  0  0  0  0
 30 34  1  0  0  0  0
 34 35  1  0  0  0  0
 35 36  1  0  0  0  0
 36 37  1  0  0  0  0
 37 38  1  0  0  0  0
 38 39  1  0  0  0  0
 39 40  1  0  0  0  0
 38 41  2  0  0  0  0
 41 42  1  0  0  0  0
 42 43  1  0  0  0  0
 43 44  1  0  0  0  0
 44 45  1  0  0  0  0
 45 46  1  0  0  0  0
 46 47  1  0  0  0  0
 47 48  1  0  0  0  0
 48 49  1  0  0  0  0
 49 50  1  0  0  0  0
 50 51  1  0  0  0  0
 48 52  1  0  0  0  0
 52 53  1  0  0  0  0
 45 54  1  0  0  0  0
 54 55  1  0  0  0  0
 41 56  1  0  0  0  0
 56 57  2  0  0  0  0
 57 58  1  0  0  0  0
 58 59  2  0  0  0  0
 58 60  1  0  0  0  0
 60 61  2  0  0  0  0
 61 62  1  0  0  0  0
 62 63  1  0  0  0  0
 62 64  2  0  0  0  0
 64 65  1  0  0  0  0
 64 66  1  0  0  0  0
 66 67  2  0  0  0  0
 67 68  1  0  0  0  0
 68 69  2  0  0  0  0
 69 70  1  0  0  0  0
 70 71  3  0  0  0  0
 69 72  1  0  0  0  0
 72 73  3  0  0  0  0
 15  2  1  0  0  0  0
 51 21  1  0  0  0  0
 68 57  1  0  0  0  0
 14  5  1  0  0  0  0
 50 25  2  0  0  0  0
 67 60  1  0  0  0  0
 49 27  2  0  0  0  0
 47 28  2  0  0  0  0
 33 29  2  0  0  0  0
 46 34  2  0  0  0  0
 44 35  2  0  0  0  0
 43 37  2  0  0  0  0
  1 74  1  0  0  0  0
 23 75  1  0  0  0  0
 23 76  1  0  0  0  0
 24 77  1  0  0  0  0
 24 78  1  0  0  0  0
 24 79  1  0  0  0  0
 39 80  1  0  0  0  0
 39 81  1  0  0  0  0
 40 82  1  0  0  0  0
 40 83  1  0  0  0  0
 40 84  1  0  0  0  0
 52 85  1  0  0  0  0
 52 86  1  0  0  0  0
 53 87  1  0  0  0  0
 53 88  1  0  0  0  0
 53 89  1  0  0  0  0
 54 90  1  0  0  0  0
 54 91  1  0  0  0  0
 55 92  1  0  0  0  0
 55 93  1  0  0  0  0
 55 94  1  0  0  0  0
 56 95  1  0  0  0  0
 61 96  1  0  0  0  0
 66 97  1  0  0  0  0
M  END
