
  xtb     02022202563D
 energy: -215.829224440828 gnorm: 0.000209844247 xtb: 6.4.1 (unknown)
118130  0     0  0            999 V2000
    4.0543    4.5832   -6.0379 C   0  0  0  0  0  0  0  0  0  0  0  0
    3.4130    5.5969   -6.7079 C   0  0  0  0  0  0  0  0  0  0  0  0
    1.9877    5.6433   -7.0337 C   0  0  0  0  0  0  0  0  0  0  0  0
    1.1299    4.8305   -6.7481 O   0  0  0  0  0  0  0  0  0  0  0  0
    1.7927    6.8728   -7.8337 C   0  0  0  0  0  0  0  0  0  0  0  0
    0.6383    7.3318   -8.4422 C   0  0  0  0  0  0  0  0  0  0  0  0
   -0.8634    6.5632   -8.1955 Cl  0  0  0  0  0  0  0  0  0  0  0  0
    0.7319    8.4529   -9.2789 C   0  0  0  0  0  0  0  0  0  0  0  0
   -0.6732    9.0837  -10.0211 Cl  0  0  0  0  0  0  0  0  0  0  0  0
    1.9756    9.0244   -9.5422 C   0  0  0  0  0  0  0  0  0  0  0  0
    2.0804   10.3238  -10.6493 Cl  0  0  0  0  0  0  0  0  0  0  0  0
    3.1455    8.5469   -8.9274 C   0  0  0  0  0  0  0  0  0  0  0  0
    4.6514    9.1819   -9.4463 Cl  0  0  0  0  0  0  0  0  0  0  0  0
    3.0366    7.5140   -8.0047 C   0  0  0  0  0  0  0  0  0  0  0  0
    4.0214    6.8332   -7.1651 C   0  0  0  0  0  0  0  0  0  0  0  0
    5.1970    7.3687   -6.7050 C   0  0  0  0  0  0  0  0  0  0  0  0
    6.1342    6.6892   -5.8960 C   0  0  0  0  0  0  0  0  0  0  0  0
    6.9594    6.2104   -5.2565 N   0  0  0  0  0  0  0  0  0  0  0  0
    5.5808    8.7239   -6.8094 C   0  0  0  0  0  0  0  0  0  0  0  0
    5.9294    9.8147   -6.7352 N   0  0  0  0  0  0  0  0  0  0  0  0
    3.5465    3.4275   -5.4332 C   0  0  0  0  0  0  0  0  0  0  0  0
    4.3659    2.5677   -4.6921 C   0  0  0  0  0  0  0  0  0  0  0  0
    3.6512    1.5589   -4.0822 C   0  0  0  0  0  0  0  0  0  0  0  0
    4.0664    0.2862   -2.9630 S   0  0  0  0  0  0  0  0  0  0  0  0
    2.3910   -0.1414   -2.8681 C   0  0  0  0  0  0  0  0  0  0  0  0
    1.6133   -1.0173   -2.0497 C   0  0  0  0  0  0  0  0  0  0  0  0
    1.9971   -1.8803   -1.0250 C   0  0  0  0  0  0  0  0  0  0  0  0
    0.9952   -2.4576   -0.2831 C   0  0  0  0  0  0  0  0  0  0  0  0
    1.1316   -3.3371    0.9472 C   0  0  0  0  0  0  0  0  0  0  0  0
    1.9304   -2.6259    2.0273 C   0  0  0  0  0  0  0  0  0  0  0  0
    2.9031   -3.2500    2.7938 C   0  0  0  0  0  0  0  0  0  0  0  0
    3.5762   -2.5498    3.7799 C   0  0  0  0  0  0  0  0  0  0  0  0
    3.2970   -1.2149    4.0327 C   0  0  0  0  0  0  0  0  0  0  0  0
    4.0704   -0.4490    5.0660 C   0  0  0  0  0  0  0  0  0  0  0  0
    5.3295    0.1592    4.4443 C   0  0  0  0  0  0  0  0  0  0  0  0
    2.3159   -0.5945    3.2695 C   0  0  0  0  0  0  0  0  0  0  0  0
    1.6404   -1.2895    2.2867 C   0  0  0  0  0  0  0  0  0  0  0  0
    1.6864   -4.7252    0.5805 C   0  0  0  0  0  0  0  0  0  0  0  0
    0.9123   -5.3868   -0.5542 C   0  0  0  0  0  0  0  0  0  0  0  0
   -0.3054   -3.4266    1.3828 C   0  0  0  0  0  0  0  0  0  0  0  0
   -1.1363   -2.7835    0.4789 C   0  0  0  0  0  0  0  0  0  0  0  0
   -0.3648   -2.1813   -0.5640 C   0  0  0  0  0  0  0  0  0  0  0  0
   -0.7492   -1.3688   -1.6275 C   0  0  0  0  0  0  0  0  0  0  0  0
    0.2519   -0.7837   -2.3692 C   0  0  0  0  0  0  0  0  0  0  0  0
    0.1301    0.1842   -3.5306 C   0  0  0  0  0  0  0  0  0  0  0  0
   -0.2673   -0.6004   -4.8073 C   0  0  0  0  0  0  0  0  0  0  0  0
   -1.7134   -1.0745   -4.8083 C   0  0  0  0  0  0  0  0  0  0  0  0
   -0.7496    1.3922   -3.2783 C   0  0  0  0  0  0  0  0  0  0  0  0
   -1.1413    2.2109   -4.3319 C   0  0  0  0  0  0  0  0  0  0  0  0
   -1.9053    3.3390   -4.1050 C   0  0  0  0  0  0  0  0  0  0  0  0
   -2.2999    3.6891   -2.8209 C   0  0  0  0  0  0  0  0  0  0  0  0
   -3.1858    4.8781   -2.5876 C   0  0  0  0  0  0  0  0  0  0  0  0
   -4.6567    4.4777   -2.7212 C   0  0  0  0  0  0  0  0  0  0  0  0
   -1.8879    2.8848   -1.7678 C   0  0  0  0  0  0  0  0  0  0  0  0
   -1.1151    1.7594   -1.9897 C   0  0  0  0  0  0  0  0  0  0  0  0
    1.5646    0.6187   -3.6796 C   0  0  0  0  0  0  0  0  0  0  0  0
    2.2668    1.6019   -4.3682 C   0  0  0  0  0  0  0  0  0  0  0  0
    1.8595    2.9215   -5.3927 S   0  0  0  0  0  0  0  0  0  0  0  0
   -2.8056   -2.7718    0.9335 S   0  0  0  0  0  0  0  0  0  0  0  0
   -2.3906   -3.6124    2.4016 C   0  0  0  0  0  0  0  0  0  0  0  0
   -3.1194   -3.9960    3.5158 C   0  0  0  0  0  0  0  0  0  0  0  0
   -2.3172   -4.5818    4.4847 C   0  0  0  0  0  0  0  0  0  0  0  0
   -0.6267   -4.6864    3.9591 S   0  0  0  0  0  0  0  0  0  0  0  0
   -1.0103   -3.9005    2.4828 C   0  0  0  0  0  0  0  0  0  0  0  0
   -2.5842   -5.0682    5.7764 C   0  0  0  0  0  0  0  0  0  0  0  0
   -3.7019   -4.9868    6.5658 C   0  0  0  0  0  0  0  0  0  0  0  0
   -4.9640   -4.2569    6.3085 C   0  0  0  0  0  0  0  0  0  0  0  0
   -5.3577   -3.7474    5.2796 O   0  0  0  0  0  0  0  0  0  0  0  0
   -5.6910   -4.2547    7.5939 C   0  0  0  0  0  0  0  0  0  0  0  0
   -6.8900   -3.6366    7.8961 C   0  0  0  0  0  0  0  0  0  0  0  0
   -7.3845   -3.7498    9.1853 C   0  0  0  0  0  0  0  0  0  0  0  0
   -6.6632   -4.4757   10.1220 C   0  0  0  0  0  0  0  0  0  0  0  0
   -7.1515   -4.5683   11.3691 F   0  0  0  0  0  0  0  0  0  0  0  0
   -5.4610   -5.1100    9.8395 C   0  0  0  0  0  0  0  0  0  0  0  0
   -4.9731   -4.9936    8.5482 C   0  0  0  0  0  0  0  0  0  0  0  0
   -3.7634   -5.5203    7.9170 C   0  0  0  0  0  0  0  0  0  0  0  0
   -2.8967   -6.4045    8.5025 C   0  0  0  0  0  0  0  0  0  0  0  0
   -1.7749   -7.0008    7.8866 C   0  0  0  0  0  0  0  0  0  0  0  0
   -0.8576   -7.5481    7.4643 N   0  0  0  0  0  0  0  0  0  0  0  0
   -3.0313   -6.8840    9.8236 C   0  0  0  0  0  0  0  0  0  0  0  0
   -3.0759   -7.3094   10.8886 N   0  0  0  0  0  0  0  0  0  0  0  0
    5.1276    4.6802   -5.9283 H   0  0  0  0  0  0  0  0  0  0  0  0
    5.4257    2.7198   -4.5938 H   0  0  0  0  0  0  0  0  0  0  0  0
    3.0399   -2.0420   -0.7985 H   0  0  0  0  0  0  0  0  0  0  0  0
    3.1511   -4.2872    2.6367 H   0  0  0  0  0  0  0  0  0  0  0  0
    4.3306   -3.0560    4.3649 H   0  0  0  0  0  0  0  0  0  0  0  0
    4.3578   -1.1145    5.8823 H   0  0  0  0  0  0  0  0  0  0  0  0
    3.4500    0.3497    5.4772 H   0  0  0  0  0  0  0  0  0  0  0  0
    5.9683   -0.6234    4.0413 H   0  0  0  0  0  0  0  0  0  0  0  0
    5.0632    0.8340    3.6337 H   0  0  0  0  0  0  0  0  0  0  0  0
    5.8910    0.7163    5.1903 H   0  0  0  0  0  0  0  0  0  0  0  0
    2.0757    0.4437    3.4492 H   0  0  0  0  0  0  0  0  0  0  0  0
    0.8769   -0.7876    1.7086 H   0  0  0  0  0  0  0  0  0  0  0  0
    2.7324   -4.6152    0.2892 H   0  0  0  0  0  0  0  0  0  0  0  0
    1.6334   -5.3651    1.4632 H   0  0  0  0  0  0  0  0  0  0  0  0
   -0.1347   -5.5139   -0.2875 H   0  0  0  0  0  0  0  0  0  0  0  0
    0.9658   -4.7910   -1.4626 H   0  0  0  0  0  0  0  0  0  0  0  0
    1.3318   -6.3681   -0.7619 H   0  0  0  0  0  0  0  0  0  0  0  0
   -1.7926   -1.1652   -1.8119 H   0  0  0  0  0  0  0  0  0  0  0  0
    0.4006   -1.4615   -4.8931 H   0  0  0  0  0  0  0  0  0  0  0  0
   -0.0900    0.0373   -5.6741 H   0  0  0  0  0  0  0  0  0  0  0  0
   -2.3905   -0.2433   -4.6266 H   0  0  0  0  0  0  0  0  0  0  0  0
   -1.9542   -1.5101   -5.7753 H   0  0  0  0  0  0  0  0  0  0  0  0
   -1.8748   -1.8324   -4.0466 H   0  0  0  0  0  0  0  0  0  0  0  0
   -0.8499    1.9815   -5.3445 H   0  0  0  0  0  0  0  0  0  0  0  0
   -2.1915    3.9594   -4.9416 H   0  0  0  0  0  0  0  0  0  0  0  0
   -2.9576    5.6573   -3.3174 H   0  0  0  0  0  0  0  0  0  0  0  0
   -3.0116    5.2820   -1.5884 H   0  0  0  0  0  0  0  0  0  0  0  0
   -4.8527    4.0850   -3.7165 H   0  0  0  0  0  0  0  0  0  0  0  0
   -4.9067    3.7076   -1.9946 H   0  0  0  0  0  0  0  0  0  0  0  0
   -5.3022    5.3365   -2.5534 H   0  0  0  0  0  0  0  0  0  0  0  0
   -2.1683    3.1437   -0.7566 H   0  0  0  0  0  0  0  0  0  0  0  0
   -0.7937    1.1665   -1.1462 H   0  0  0  0  0  0  0  0  0  0  0  0
   -4.1754   -3.8478    3.6440 H   0  0  0  0  0  0  0  0  0  0  0  0
   -1.7218   -5.5443    6.2290 H   0  0  0  0  0  0  0  0  0  0  0  0
   -7.4174   -3.0794    7.1378 H   0  0  0  0  0  0  0  0  0  0  0  0
   -8.3131   -3.2855    9.4771 H   0  0  0  0  0  0  0  0  0  0  0  0
   -4.9534   -5.6548   10.6178 H   0  0  0  0  0  0  0  0  0  0  0  0
  1  2  2  0  0  0  0
  2  3  1  0  0  0  0
  3  4  2  0  0  0  0
  3  5  1  0  0  0  0
  5  6  2  0  0  0  0
  6  7  1  0  0  0  0
  6  8  1  0  0  0  0
  8  9  1  0  0  0  0
  8 10  2  0  0  0  0
 10 11  1  0  0  0  0
 10 12  1  0  0  0  0
 12 13  1  0  0  0  0
 12 14  2  0  0  0  0
 14 15  1  0  0  0  0
 15 16  2  0  0  0  0
 16 17  1  0  0  0  0
 17 18  3  0  0  0  0
 16 19  1  0  0  0  0
 19 20  3  0  0  0  0
  1 21  1  0  0  0  0
 21 22  2  0  0  0  0
 22 23  1  0  0  0  0
 23 24  1  0  0  0  0
 24 25  1  0  0  0  0
 25 26  1  0  0  0  0
 26 27  2  0  0  0  0
 27 28  1  0  0  0  0
 28 29  1  0  0  0  0
 29 30  1  0  0  0  0
 30 31  2  0  0  0  0
 31 32  1  0  0  0  0
 32 33  2  0  0  0  0
 33 34  1  0  0  0  0
 34 35  1  0  0  0  0
 33 36  1  0  0  0  0
 36 37  2  0  0  0  0
 29 38  1  0  0  0  0
 38 39  1  0  0  0  0
 29 40  1  0  0  0  0
 40 41  2  0  0  0  0
 41 42  1  0  0  0  0
 42 43  1  0  0  0  0
 43 44  2  0  0  0  0
 44 45  1  0  0  0  0
 45 46  1  0  0  0  0
 46 47  1  0  0  0  0
 45 48  1  0  0  0  0
 48 49  2  0  0  0  0
 49 50  1  0  0  0  0
 50 51  2  0  0  0  0
 51 52  1  0  0  0  0
 52 53  1  0  0  0  0
 51 54  1  0  0  0  0
 54 55  2  0  0  0  0
 45 56  1  0  0  0  0
 56 57  1  0  0  0  0
 57 58  1  0  0  0  0
 41 59  1  0  0  0  0
 59 60  1  0  0  0  0
 60 61  1  0  0  0  0
 61 62  2  0  0  0  0
 62 63  1  0  0  0  0
 63 64  1  0  0  0  0
 62 65  1  0  0  0  0
 65 66  2  0  0  0  0
 66 67  1  0  0  0  0
 67 68  2  0  0  0  0
 67 69  1  0  0  0  0
 69 70  2  0  0  0  0
 70 71  1  0  0  0  0
 71 72  2  0  0  0  0
 72 73  1  0  0  0  0
 72 74  1  0  0  0  0
 74 75  2  0  0  0  0
 75 76  1  0  0  0  0
 76 77  2  0  0  0  0
 77 78  1  0  0  0  0
 78 79  3  0  0  0  0
 77 80  1  0  0  0  0
 80 81  3  0  0  0  0
 15  2  1  0  0  0  0
 58 21  1  0  0  0  0
 64 60  2  0  0  0  0
 76 66  1  0  0  0  0
 14  5  1  0  0  0  0
 57 23  2  0  0  0  0
 75 69  1  0  0  0  0
 56 25  2  0  0  0  0
 44 26  1  0  0  0  0
 55 48  1  0  0  0  0
 42 28  2  0  0  0  0
 37 30  1  0  0  0  0
 64 40  1  0  0  0  0
  1 82  1  0  0  0  0
 22 83  1  0  0  0  0
 27 84  1  0  0  0  0
 31 85  1  0  0  0  0
 32 86  1  0  0  0  0
 34 87  1  0  0  0  0
 34 88  1  0  0  0  0
 35 89  1  0  0  0  0
 35 90  1  0  0  0  0
 35 91  1  0  0  0  0
 36 92  1  0  0  0  0
 37 93  1  0  0  0  0
 38 94  1  0  0  0  0
 38 95  1  0  0  0  0
 39 96  1  0  0  0  0
 39 97  1  0  0  0  0
 39 98  1  0  0  0  0
 43 99  1  0  0  0  0
 46100  1  0  0  0  0
 46101  1  0  0  0  0
 47102  1  0  0  0  0
 47103  1  0  0  0  0
 47104  1  0  0  0  0
 49105  1  0  0  0  0
 50106  1  0  0  0  0
 52107  1  0  0  0  0
 52108  1  0  0  0  0
 53109  1  0  0  0  0
 53110  1  0  0  0  0
 53111  1  0  0  0  0
 54112  1  0  0  0  0
 55113  1  0  0  0  0
 61114  1  0  0  0  0
 65115  1  0  0  0  0
 70116  1  0  0  0  0
 71117  1  0  0  0  0
 74118  1  0  0  0  0
M  END
