
  xtb     02022216373D
 energy: -229.629796100898 gnorm: 0.000267525590 xtb: 6.4.1 (unknown)
131146  0     0  0            999 V2000
   -1.8482   -6.6061    7.1117 C   0  0  0  0  0  0  0  0  0  0  0  0
   -1.3340   -7.8548    7.3465 C   0  0  0  0  0  0  0  0  0  0  0  0
   -0.1525   -8.5018    6.7464 C   0  0  0  0  0  0  0  0  0  0  0  0
    0.7515   -8.0008    6.1150 O   0  0  0  0  0  0  0  0  0  0  0  0
   -0.2967   -9.9465    7.0556 C   0  0  0  0  0  0  0  0  0  0  0  0
    0.4665  -11.0050    6.5949 C   0  0  0  0  0  0  0  0  0  0  0  0
    1.8735  -10.7540    5.6633 Cl  0  0  0  0  0  0  0  0  0  0  0  0
    0.0467  -12.3073    6.9026 C   0  0  0  0  0  0  0  0  0  0  0  0
    0.9711  -13.6465    6.3785 Cl  0  0  0  0  0  0  0  0  0  0  0  0
   -1.1455  -12.5137    7.5947 C   0  0  0  0  0  0  0  0  0  0  0  0
   -1.6893  -14.1123    7.8672 Cl  0  0  0  0  0  0  0  0  0  0  0  0
   -1.9158  -11.4350    8.0584 C   0  0  0  0  0  0  0  0  0  0  0  0
   -3.4521  -11.7639    8.7461 Cl  0  0  0  0  0  0  0  0  0  0  0  0
   -1.4461  -10.1456    7.8452 C   0  0  0  0  0  0  0  0  0  0  0  0
   -1.9711   -8.8344    8.2146 C   0  0  0  0  0  0  0  0  0  0  0  0
   -2.7321   -8.5433    9.3148 C   0  0  0  0  0  0  0  0  0  0  0  0
   -3.1657   -7.2445    9.6659 C   0  0  0  0  0  0  0  0  0  0  0  0
   -3.5618   -6.2269   10.0201 N   0  0  0  0  0  0  0  0  0  0  0  0
   -3.0449   -9.4416   10.3589 C   0  0  0  0  0  0  0  0  0  0  0  0
   -3.2647  -10.0606   11.2996 N   0  0  0  0  0  0  0  0  0  0  0  0
   -1.3892   -5.5467    6.3128 C   0  0  0  0  0  0  0  0  0  0  0  0
   -0.2101   -5.3380    5.6100 C   0  0  0  0  0  0  0  0  0  0  0  0
   -0.2217   -4.1372    4.9208 C   0  0  0  0  0  0  0  0  0  0  0  0
    0.9123   -3.3697    3.8449 S   0  0  0  0  0  0  0  0  0  0  0  0
   -0.2160   -2.0808    3.6105 C   0  0  0  0  0  0  0  0  0  0  0  0
   -0.2573   -0.9076    2.7976 C   0  0  0  0  0  0  0  0  0  0  0  0
    0.6685   -0.4097    1.8836 C   0  0  0  0  0  0  0  0  0  0  0  0
    0.3186    0.7219    1.1854 C   0  0  0  0  0  0  0  0  0  0  0  0
    1.1035    1.4448    0.1096 C   0  0  0  0  0  0  0  0  0  0  0  0
    1.3746    0.5941   -1.1222 C   0  0  0  0  0  0  0  0  0  0  0  0
    0.7590   -0.6373   -1.3052 C   0  0  0  0  0  0  0  0  0  0  0  0
    0.9961   -1.3847   -2.4449 C   0  0  0  0  0  0  0  0  0  0  0  0
    1.8369   -0.9186   -3.4449 C   0  0  0  0  0  0  0  0  0  0  0  0
    2.1360   -1.7492   -4.6590 C   0  0  0  0  0  0  0  0  0  0  0  0
    3.4209   -2.5532   -4.4492 C   0  0  0  0  0  0  0  0  0  0  0  0
    2.4309    0.3244   -3.2719 C   0  0  0  0  0  0  0  0  0  0  0  0
    2.2048    1.0693   -2.1312 C   0  0  0  0  0  0  0  0  0  0  0  0
    2.4145    2.0084    0.7012 C   0  0  0  0  0  0  0  0  0  0  0  0
    2.1892    2.8473    1.9535 C   0  0  0  0  0  0  0  0  0  0  0  0
    0.1392    2.5428   -0.2536 C   0  0  0  0  0  0  0  0  0  0  0  0
   -0.9894    2.4828    0.5464 C   0  0  0  0  0  0  0  0  0  0  0  0
   -0.9137    1.3693    1.4394 C   0  0  0  0  0  0  0  0  0  0  0  0
   -1.8237    0.8902    2.3785 C   0  0  0  0  0  0  0  0  0  0  0  0
   -1.5016   -0.2744    3.0390 C   0  0  0  0  0  0  0  0  0  0  0  0
   -2.3312   -1.0687    4.0317 C   0  0  0  0  0  0  0  0  0  0  0  0
   -3.5981   -1.6489    3.3567 C   0  0  0  0  0  0  0  0  0  0  0  0
   -4.7006   -0.6307    3.1003 C   0  0  0  0  0  0  0  0  0  0  0  0
   -2.6380   -0.3256    5.3195 C   0  0  0  0  0  0  0  0  0  0  0  0
   -3.5028   -0.8782    6.2577 C   0  0  0  0  0  0  0  0  0  0  0  0
   -3.7560   -0.2331    7.4525 C   0  0  0  0  0  0  0  0  0  0  0  0
   -3.1527    0.9815    7.7513 C   0  0  0  0  0  0  0  0  0  0  0  0
   -3.3991    1.6572    9.0687 C   0  0  0  0  0  0  0  0  0  0  0  0
   -2.4345    1.1241   10.1301 C   0  0  0  0  0  0  0  0  0  0  0  0
   -2.2763    1.5225    6.8216 C   0  0  0  0  0  0  0  0  0  0  0  0
   -2.0176    0.8785    5.6250 C   0  0  0  0  0  0  0  0  0  0  0  0
   -1.3925   -2.2106    4.3307 C   0  0  0  0  0  0  0  0  0  0  0  0
   -1.4061   -3.3821    5.0794 C   0  0  0  0  0  0  0  0  0  0  0  0
   -2.5070   -4.1857    6.1235 S   0  0  0  0  0  0  0  0  0  0  0  0
   -2.1751    3.6960    0.1975 S   0  0  0  0  0  0  0  0  0  0  0  0
   -1.1550    4.2839   -1.0883 C   0  0  0  0  0  0  0  0  0  0  0  0
   -1.2949    5.2718   -2.0442 C   0  0  0  0  0  0  0  0  0  0  0  0
   -0.2189    5.3061   -2.9324 C   0  0  0  0  0  0  0  0  0  0  0  0
    1.0008    4.1055   -2.5304 S   0  0  0  0  0  0  0  0  0  0  0  0
    0.0514    3.5606   -1.2016 C   0  0  0  0  0  0  0  0  0  0  0  0
   -0.1937    6.1812   -4.0317 C   0  0  0  0  0  0  0  0  0  0  0  0
    0.6747    6.2487   -5.0876 C   0  0  0  0  0  0  0  0  0  0  0  0
    1.8210    5.3598   -5.3230 C   0  0  0  0  0  0  0  0  0  0  0  0
    2.3001    4.5457   -4.5530 O   0  0  0  0  0  0  0  0  0  0  0  0
    2.2863    5.6405   -6.6904 C   0  0  0  0  0  0  0  0  0  0  0  0
    3.2990    4.9804   -7.3822 C   0  0  0  0  0  0  0  0  0  0  0  0
    3.4852    5.4329   -8.6660 C   0  0  0  0  0  0  0  0  0  0  0  0
    2.7247    6.4719   -9.2192 C   0  0  0  0  0  0  0  0  0  0  0  0
    1.7313    7.1398   -8.5429 C   0  0  0  0  0  0  0  0  0  0  0  0
    1.5203    6.6906   -7.2363 C   0  0  0  0  0  0  0  0  0  0  0  0
    0.5504    7.1298   -6.2348 C   0  0  0  0  0  0  0  0  0  0  0  0
   -0.2918    8.2033   -6.3625 C   0  0  0  0  0  0  0  0  0  0  0  0
   -0.3577    9.0358   -7.4998 C   0  0  0  0  0  0  0  0  0  0  0  0
   -0.4699    9.7541   -8.3884 N   0  0  0  0  0  0  0  0  0  0  0  0
   -1.1950    8.6595   -5.3792 C   0  0  0  0  0  0  0  0  0  0  0  0
   -1.9490    9.1009   -4.6332 N   0  0  0  0  0  0  0  0  0  0  0  0
    3.4275    6.3844  -10.5504 C   0  0  0  0  0  0  0  0  0  0  0  0
    2.6818    5.6813  -11.7120 C   0  0  0  0  0  0  0  0  0  0  0  0
    1.7286    4.6985  -11.0787 C   0  0  0  0  0  0  0  0  0  0  0  0
    2.4489    3.7157  -10.5549 C   0  0  0  0  0  0  0  0  0  0  0  0
    3.9027    4.0164  -10.8246 C   0  0  0  0  0  0  0  0  0  0  0  0
    3.7850    4.7213  -12.1854 C   0  0  0  0  0  0  0  0  0  0  0  0
    4.2756    5.2277   -9.9337 C   0  0  0  0  0  0  0  0  0  0  0  0
   -2.8087   -6.4021    7.5717 H   0  0  0  0  0  0  0  0  0  0  0  0
    0.5993   -6.0439    5.6062 H   0  0  0  0  0  0  0  0  0  0  0  0
    1.6068   -0.9171    1.7184 H   0  0  0  0  0  0  0  0  0  0  0  0
    0.0849   -1.0241   -0.5557 H   0  0  0  0  0  0  0  0  0  0  0  0
    0.5114   -2.3442   -2.5583 H   0  0  0  0  0  0  0  0  0  0  0  0
    2.2559   -1.1008   -5.5294 H   0  0  0  0  0  0  0  0  0  0  0  0
    1.3091   -2.4349   -4.8537 H   0  0  0  0  0  0  0  0  0  0  0  0
    4.2597   -1.8848   -4.2681 H   0  0  0  0  0  0  0  0  0  0  0  0
    3.3179   -3.2123   -3.5900 H   0  0  0  0  0  0  0  0  0  0  0  0
    3.6404   -3.1573   -5.3264 H   0  0  0  0  0  0  0  0  0  0  0  0
    3.0753    0.7228   -4.0418 H   0  0  0  0  0  0  0  0  0  0  0  0
    2.6786    2.0343   -2.0456 H   0  0  0  0  0  0  0  0  0  0  0  0
    3.0711    1.1675    0.9326 H   0  0  0  0  0  0  0  0  0  0  0  0
    2.9060    2.6261   -0.0499 H   0  0  0  0  0  0  0  0  0  0  0  0
    3.1398    3.2343    2.3126 H   0  0  0  0  0  0  0  0  0  0  0  0
    1.7380    2.2563    2.7474 H   0  0  0  0  0  0  0  0  0  0  0  0
    1.5366    3.6911    1.7396 H   0  0  0  0  0  0  0  0  0  0  0  0
   -2.7399    1.4258    2.5696 H   0  0  0  0  0  0  0  0  0  0  0  0
   -3.9862   -2.4441    3.9956 H   0  0  0  0  0  0  0  0  0  0  0  0
   -3.2953   -2.1082    2.4121 H   0  0  0  0  0  0  0  0  0  0  0  0
   -4.4264    0.0532    2.3027 H   0  0  0  0  0  0  0  0  0  0  0  0
   -5.6092   -1.1477    2.8001 H   0  0  0  0  0  0  0  0  0  0  0  0
   -4.9123   -0.0576    3.9999 H   0  0  0  0  0  0  0  0  0  0  0  0
   -3.9872   -1.8229    6.0640 H   0  0  0  0  0  0  0  0  0  0  0  0
   -4.4338   -0.6822    8.1640 H   0  0  0  0  0  0  0  0  0  0  0  0
   -4.4256    1.4734    9.3921 H   0  0  0  0  0  0  0  0  0  0  0  0
   -3.2606    2.7352    8.9641 H   0  0  0  0  0  0  0  0  0  0  0  0
   -2.5676    0.0524   10.2585 H   0  0  0  0  0  0  0  0  0  0  0  0
   -1.4046    1.3073    9.8314 H   0  0  0  0  0  0  0  0  0  0  0  0
   -2.6118    1.6133   11.0849 H   0  0  0  0  0  0  0  0  0  0  0  0
   -1.7862    2.4621    7.0336 H   0  0  0  0  0  0  0  0  0  0  0  0
   -1.3237    1.3226    4.9270 H   0  0  0  0  0  0  0  0  0  0  0  0
   -2.1386    5.9330   -2.1279 H   0  0  0  0  0  0  0  0  0  0  0  0
   -1.0368    6.8617   -4.0470 H   0  0  0  0  0  0  0  0  0  0  0  0
    3.8593    4.1840   -6.9177 H   0  0  0  0  0  0  0  0  0  0  0  0
    1.1549    7.9350   -8.9851 H   0  0  0  0  0  0  0  0  0  0  0  0
    3.9485    7.2825  -10.8756 H   0  0  0  0  0  0  0  0  0  0  0  0
    2.2552    6.3569  -12.4484 H   0  0  0  0  0  0  0  0  0  0  0  0
    0.6652    4.8428  -11.0288 H   0  0  0  0  0  0  0  0  0  0  0  0
    2.1073    2.8752   -9.9795 H   0  0  0  0  0  0  0  0  0  0  0  0
    4.5879    3.1757  -10.7539 H   0  0  0  0  0  0  0  0  0  0  0  0
    4.6989    5.2278  -12.4925 H   0  0  0  0  0  0  0  0  0  0  0  0
    3.4503    4.0535  -12.9777 H   0  0  0  0  0  0  0  0  0  0  0  0
    5.3517    5.3699   -9.8557 H   0  0  0  0  0  0  0  0  0  0  0  0
  1  2  2  0  0  0  0
  2  3  1  0  0  0  0
  3  4  2  0  0  0  0
  3  5  1  0  0  0  0
  5  6  2  0  0  0  0
  6  7  1  0  0  0  0
  6  8  1  0  0  0  0
  8  9  1  0  0  0  0
  8 10  2  0  0  0  0
 10 11  1  0  0  0  0
 10 12  1  0  0  0  0
 12 13  1  0  0  0  0
 12 14  2  0  0  0  0
 14 15  1  0  0  0  0
 15 16  2  0  0  0  0
 16 17  1  0  0  0  0
 17 18  3  0  0  0  0
 16 19  1  0  0  0  0
 19 20  3  0  0  0  0
  1 21  1  0  0  0  0
 21 22  2  0  0  0  0
 22 23  1  0  0  0  0
 23 24  1  0  0  0  0
 24 25  1  0  0  0  0
 25 26  1  0  0  0  0
 26 27  2  0  0  0  0
 27 28  1  0  0  0  0
 28 29  1  0  0  0  0
 29 30  1  0  0  0  0
 30 31  2  0  0  0  0
 31 32  1  0  0  0  0
 32 33  2  0  0  0  0
 33 34  1  0  0  0  0
 34 35  1  0  0  0  0
 33 36  1  0  0  0  0
 36 37  2  0  0  0  0
 29 38  1  0  0  0  0
 38 39  1  0  0  0  0
 29 40  1  0  0  0  0
 40 41  2  0  0  0  0
 41 42  1  0  0  0  0
 42 43  1  0  0  0  0
 43 44  2  0  0  0  0
 44 45  1  0  0  0  0
 45 46  1  0  0  0  0
 46 47  1  0  0  0  0
 45 48  1  0  0  0  0
 48 49  2  0  0  0  0
 49 50  1  0  0  0  0
 50 51  2  0  0  0  0
 51 52  1  0  0  0  0
 52 53  1  0  0  0  0
 51 54  1  0  0  0  0
 54 55  2  0  0  0  0
 45 56  1  0  0  0  0
 56 57  1  0  0  0  0
 57 58  1  0  0  0  0
 41 59  1  0  0  0  0
 59 60  1  0  0  0  0
 60 61  1  0  0  0  0
 61 62  2  0  0  0  0
 62 63  1  0  0  0  0
 63 64  1  0  0  0  0
 62 65  1  0  0  0  0
 65 66  2  0  0  0  0
 66 67  1  0  0  0  0
 67 68  2  0  0  0  0
 67 69  1  0  0  0  0
 69 70  2  0  0  0  0
 70 71  1  0  0  0  0
 71 72  2  0  0  0  0
 72 73  1  0  0  0  0
 73 74  2  0  0  0  0
 74 75  1  0  0  0  0
 75 76  2  0  0  0  0
 76 77  1  0  0  0  0
 77 78  3  0  0  0  0
 76 79  1  0  0  0  0
 79 80  3  0  0  0  0
 72 81  1  0  0  0  0
 81 82  1  0  0  0  0
 82 83  1  0  0  0  0
 83 84  2  0  0  0  0
 84 85  1  0  0  0  0
 85 86  1  0  0  0  0
 85 87  1  0  0  0  0
 15  2  1  0  0  0  0
 58 21  1  0  0  0  0
 64 60  2  0  0  0  0
 75 66  1  0  0  0  0
 87 81  1  0  0  0  0
 14  5  1  0  0  0  0
 57 23  2  0  0  0  0
 74 69  1  0  0  0  0
 86 82  1  0  0  0  0
 56 25  2  0  0  0  0
 87 71  1  0  0  0  0
 44 26  1  0  0  0  0
 55 48  1  0  0  0  0
 42 28  2  0  0  0  0
 37 30  1  0  0  0  0
 64 40  1  0  0  0  0
  1 88  1  0  0  0  0
 22 89  1  0  0  0  0
 27 90  1  0  0  0  0
 31 91  1  0  0  0  0
 32 92  1  0  0  0  0
 34 93  1  0  0  0  0
 34 94  1  0  0  0  0
 35 95  1  0  0  0  0
 35 96  1  0  0  0  0
 35 97  1  0  0  0  0
 36 98  1  0  0  0  0
 37 99  1  0  0  0  0
 38100  1  0  0  0  0
 38101  1  0  0  0  0
 39102  1  0  0  0  0
 39103  1  0  0  0  0
 39104  1  0  0  0  0
 43105  1  0  0  0  0
 46106  1  0  0  0  0
 46107  1  0  0  0  0
 47108  1  0  0  0  0
 47109  1  0  0  0  0
 47110  1  0  0  0  0
 49111  1  0  0  0  0
 50112  1  0  0  0  0
 52113  1  0  0  0  0
 52114  1  0  0  0  0
 53115  1  0  0  0  0
 53116  1  0  0  0  0
 53117  1  0  0  0  0
 54118  1  0  0  0  0
 55119  1  0  0  0  0
 61120  1  0  0  0  0
 65121  1  0  0  0  0
 70122  1  0  0  0  0
 73123  1  0  0  0  0
 81124  1  0  0  0  0
 82125  1  0  0  0  0
 83126  1  0  0  0  0
 84127  1  0  0  0  0
 85128  1  0  0  0  0
 86129  1  0  0  0  0
 86130  1  0  0  0  0
 87131  1  0  0  0  0
M  END
