
  xtb     02102217493D
 energy: -284.455913843733 gnorm: 0.000638204280 xtb: 6.4.1 (unknown)
155171  0     0  0            999 V2000
   -1.6469    1.7294   -8.4867 C   0  0  0  0  0  0  0  0  0  0  0  0
   -0.5639    2.1597   -9.1996 C   0  0  0  0  0  0  0  0  0  0  0  0
   -0.6273    2.3265  -10.6685 C   0  0  0  0  0  0  0  0  0  0  0  0
   -1.6177    2.3707  -11.3569 O   0  0  0  0  0  0  0  0  0  0  0  0
    0.7936    2.3445  -11.1107 C   0  0  0  0  0  0  0  0  0  0  0  0
    1.3105    2.3048  -12.3941 C   0  0  0  0  0  0  0  0  0  0  0  0
    0.2975    2.4047  -13.7631 Cl  0  0  0  0  0  0  0  0  0  0  0  0
    2.6992    2.1697  -12.5471 C   0  0  0  0  0  0  0  0  0  0  0  0
    3.3826    2.1438  -14.1140 Cl  0  0  0  0  0  0  0  0  0  0  0  0
    3.5196    2.0140  -11.4303 C   0  0  0  0  0  0  0  0  0  0  0  0
    5.1954    1.7493  -11.6474 Cl  0  0  0  0  0  0  0  0  0  0  0  0
    2.9902    2.0578  -10.1317 C   0  0  0  0  0  0  0  0  0  0  0  0
    4.0110    1.6930   -8.8016 Cl  0  0  0  0  0  0  0  0  0  0  0  0
    1.6320    2.2888   -9.9786 C   0  0  0  0  0  0  0  0  0  0  0  0
    0.7981    2.4437   -8.7883 C   0  0  0  0  0  0  0  0  0  0  0  0
    1.1592    3.0841   -7.6332 C   0  0  0  0  0  0  0  0  0  0  0  0
    0.2366    3.4021   -6.6107 C   0  0  0  0  0  0  0  0  0  0  0  0
   -0.4664    3.7215   -5.7622 N   0  0  0  0  0  0  0  0  0  0  0  0
    2.4226    3.6443   -7.3523 C   0  0  0  0  0  0  0  0  0  0  0  0
    3.3971    4.1708   -7.0513 N   0  0  0  0  0  0  0  0  0  0  0  0
   -1.6014    1.1814   -7.1911 C   0  0  0  0  0  0  0  0  0  0  0  0
   -3.0478    1.1179   -6.1835 S   0  0  0  0  0  0  0  0  0  0  0  0
   -2.1263    0.5034   -4.8708 C   0  0  0  0  0  0  0  0  0  0  0  0
   -2.2167    0.1754   -3.5186 C   0  0  0  0  0  0  0  0  0  0  0  0
   -3.3686    0.2124   -2.2248 S   0  0  0  0  0  0  0  0  0  0  0  0
   -2.1044   -0.2422   -1.1303 C   0  0  0  0  0  0  0  0  0  0  0  0
   -1.9905   -0.2927    0.2932 C   0  0  0  0  0  0  0  0  0  0  0  0
   -2.9282   -0.0337    1.2881 C   0  0  0  0  0  0  0  0  0  0  0  0
   -2.4744    0.0035    2.5864 C   0  0  0  0  0  0  0  0  0  0  0  0
   -3.2643    0.3012    3.8491 C   0  0  0  0  0  0  0  0  0  0  0  0
   -4.0016    1.6136    3.6627 C   0  0  0  0  0  0  0  0  0  0  0  0
   -3.4122    2.8229    4.0024 C   0  0  0  0  0  0  0  0  0  0  0  0
   -4.0791    4.0136    3.7797 C   0  0  0  0  0  0  0  0  0  0  0  0
   -5.3434    4.0286    3.2066 C   0  0  0  0  0  0  0  0  0  0  0  0
   -6.0449    5.3252    2.9227 C   0  0  0  0  0  0  0  0  0  0  0  0
   -5.6873    5.8298    1.5231 C   0  0  0  0  0  0  0  0  0  0  0  0
   -5.9231    2.8158    2.8570 C   0  0  0  0  0  0  0  0  0  0  0  0
   -5.2628    1.6227    3.0803 C   0  0  0  0  0  0  0  0  0  0  0  0
   -4.2082   -0.8183    4.2571 C   0  0  0  0  0  0  0  0  0  0  0  0
   -4.1633   -2.0724    3.6672 C   0  0  0  0  0  0  0  0  0  0  0  0
   -5.0077   -3.0786    4.1025 C   0  0  0  0  0  0  0  0  0  0  0  0
   -5.9037   -2.8624    5.1399 C   0  0  0  0  0  0  0  0  0  0  0  0
   -6.8465   -3.9450    5.5794 C   0  0  0  0  0  0  0  0  0  0  0  0
   -8.1376   -3.8938    4.7599 C   0  0  0  0  0  0  0  0  0  0  0  0
   -5.9374   -1.6056    5.7317 C   0  0  0  0  0  0  0  0  0  0  0  0
   -5.0993   -0.5965    5.3006 C   0  0  0  0  0  0  0  0  0  0  0  0
   -2.1607    0.3462    4.8748 C   0  0  0  0  0  0  0  0  0  0  0  0
   -0.9380    0.0371    4.2756 C   0  0  0  0  0  0  0  0  0  0  0  0
   -1.1000   -0.1693    2.8744 C   0  0  0  0  0  0  0  0  0  0  0  0
   -0.1649   -0.4532    1.8790 C   0  0  0  0  0  0  0  0  0  0  0  0
   -0.6287   -0.5492    0.5902 C   0  0  0  0  0  0  0  0  0  0  0  0
    0.1451   -0.8647   -0.6847 C   0  0  0  0  0  0  0  0  0  0  0  0
    1.4243   -0.0558   -0.7968 C   0  0  0  0  0  0  0  0  0  0  0  0
    2.6827   -0.5950   -0.5871 C   0  0  0  0  0  0  0  0  0  0  0  0
    3.8202    0.1838   -0.7245 C   0  0  0  0  0  0  0  0  0  0  0  0
    3.7347    1.5183   -1.0890 C   0  0  0  0  0  0  0  0  0  0  0  0
    4.9353    2.4004   -1.3045 C   0  0  0  0  0  0  0  0  0  0  0  0
    6.2716    1.7935   -0.8989 C   0  0  0  0  0  0  0  0  0  0  0  0
    2.4662    2.0599   -1.2807 C   0  0  0  0  0  0  0  0  0  0  0  0
    1.3306    1.2927   -1.1281 C   0  0  0  0  0  0  0  0  0  0  0  0
    0.3785   -2.3730   -0.7501 C   0  0  0  0  0  0  0  0  0  0  0  0
    0.0770   -3.1024   -1.8940 C   0  0  0  0  0  0  0  0  0  0  0  0
    0.3162   -4.4638   -1.9543 C   0  0  0  0  0  0  0  0  0  0  0  0
    0.8585   -5.1450   -0.8743 C   0  0  0  0  0  0  0  0  0  0  0  0
    1.0790   -6.6283   -0.9291 C   0  0  0  0  0  0  0  0  0  0  0  0
   -0.1828   -7.3724   -0.4872 C   0  0  0  0  0  0  0  0  0  0  0  0
    1.1393   -4.4207    0.2762 C   0  0  0  0  0  0  0  0  0  0  0  0
    0.9028   -3.0603    0.3393 C   0  0  0  0  0  0  0  0  0  0  0  0
   -0.8698   -0.4594   -1.7232 C   0  0  0  0  0  0  0  0  0  0  0  0
   -0.9172   -0.2081   -3.0928 C   0  0  0  0  0  0  0  0  0  0  0  0
   -0.0434   -0.1449   -4.1600 N   0  0  0  0  0  0  0  0  0  0  0  0
   -0.7728    0.3091   -5.2379 C   0  0  0  0  0  0  0  0  0  0  0  0
   -0.4851    0.6719   -6.5408 C   0  0  0  0  0  0  0  0  0  0  0  0
    1.3455   -0.1390   -4.1442 C   0  0  0  0  0  0  0  0  0  0  0  0
    2.2065   -1.0804   -3.6692 C   0  0  0  0  0  0  0  0  0  0  0  0
    3.5432   -0.6793   -3.8580 C   0  0  0  0  0  0  0  0  0  0  0  0
    5.0846   -1.3818   -3.5276 S   0  0  0  0  0  0  0  0  0  0  0  0
    5.9019   -0.0045   -4.2420 C   0  0  0  0  0  0  0  0  0  0  0  0
    7.3926   -0.0097   -4.3016 C   0  0  0  0  0  0  0  0  0  0  0  0
    7.9829    1.3611   -4.6112 C   0  0  0  0  0  0  0  0  0  0  0  0
    5.0301    0.9343   -4.6980 C   0  0  0  0  0  0  0  0  0  0  0  0
    3.6920    0.5519   -4.4774 C   0  0  0  0  0  0  0  0  0  0  0  0
    2.1623    1.2690   -4.8216 S   0  0  0  0  0  0  0  0  0  0  0  0
    0.3538    0.0310    5.3880 S   0  0  0  0  0  0  0  0  0  0  0  0
   -0.7574    0.4538    6.6993 C   0  0  0  0  0  0  0  0  0  0  0  0
   -2.0657    0.5770    6.2335 C   0  0  0  0  0  0  0  0  0  0  0  0
   -0.1735    0.6389    7.9605 C   0  0  0  0  0  0  0  0  0  0  0  0
   -0.7201    0.9165    9.1886 C   0  0  0  0  0  0  0  0  0  0  0  0
   -2.1381    0.9808    9.5844 C   0  0  0  0  0  0  0  0  0  0  0  0
   -3.1271    0.9960    8.8846 O   0  0  0  0  0  0  0  0  0  0  0  0
   -2.1328    0.9958   11.0695 C   0  0  0  0  0  0  0  0  0  0  0  0
   -3.2105    0.9269   11.9350 C   0  0  0  0  0  0  0  0  0  0  0  0
   -4.8179    0.9672   11.3657 Cl  0  0  0  0  0  0  0  0  0  0  0  0
   -2.9511    0.8128   13.3083 C   0  0  0  0  0  0  0  0  0  0  0  0
   -4.2498    0.7593   14.4196 Cl  0  0  0  0  0  0  0  0  0  0  0  0
   -1.6397    0.6983   13.7660 C   0  0  0  0  0  0  0  0  0  0  0  0
   -1.3532    0.4572   15.4353 Cl  0  0  0  0  0  0  0  0  0  0  0  0
   -0.5506    0.7632   12.8820 C   0  0  0  0  0  0  0  0  0  0  0  0
    1.0180    0.4357   13.4927 Cl  0  0  0  0  0  0  0  0  0  0  0  0
   -0.8038    0.9876   11.5350 C   0  0  0  0  0  0  0  0  0  0  0  0
    0.0771    1.1532   10.3823 C   0  0  0  0  0  0  0  0  0  0  0  0
    1.3420    1.6784   10.4017 C   0  0  0  0  0  0  0  0  0  0  0  0
    2.1428    1.8921    9.2568 C   0  0  0  0  0  0  0  0  0  0  0  0
    2.8615    2.0994    8.3857 N   0  0  0  0  0  0  0  0  0  0  0  0
    1.9717    2.2631   11.5227 C   0  0  0  0  0  0  0  0  0  0  0  0
    2.5253    2.8511   12.3379 N   0  0  0  0  0  0  0  0  0  0  0  0
   -2.6055    1.7672   -8.9899 H   0  0  0  0  0  0  0  0  0  0  0  0
   -3.9613    0.1524    1.0391 H   0  0  0  0  0  0  0  0  0  0  0  0
   -2.4281    2.8382    4.4479 H   0  0  0  0  0  0  0  0  0  0  0  0
   -3.6088    4.9459    4.0580 H   0  0  0  0  0  0  0  0  0  0  0  0
   -7.1255    5.1839    2.9888 H   0  0  0  0  0  0  0  0  0  0  0  0
   -5.7520    6.0742    3.6610 H   0  0  0  0  0  0  0  0  0  0  0  0
   -5.9820    5.1014    0.7710 H   0  0  0  0  0  0  0  0  0  0  0  0
   -4.6146    5.9899    1.4412 H   0  0  0  0  0  0  0  0  0  0  0  0
   -6.1957    6.7685    1.3160 H   0  0  0  0  0  0  0  0  0  0  0  0
   -6.9058    2.8043    2.4073 H   0  0  0  0  0  0  0  0  0  0  0  0
   -5.7368    0.6893    2.8125 H   0  0  0  0  0  0  0  0  0  0  0  0
   -3.4690   -2.2699    2.8632 H   0  0  0  0  0  0  0  0  0  0  0  0
   -4.9630   -4.0496    3.6297 H   0  0  0  0  0  0  0  0  0  0  0  0
   -7.0865   -3.8193    6.6369 H   0  0  0  0  0  0  0  0  0  0  0  0
   -6.3760   -4.9217    5.4489 H   0  0  0  0  0  0  0  0  0  0  0  0
   -8.8216   -4.6772    5.0778 H   0  0  0  0  0  0  0  0  0  0  0  0
   -7.9202   -4.0299    3.7028 H   0  0  0  0  0  0  0  0  0  0  0  0
   -8.6280   -2.9314    4.8871 H   0  0  0  0  0  0  0  0  0  0  0  0
   -6.6236   -1.4163    6.5444 H   0  0  0  0  0  0  0  0  0  0  0  0
   -5.1393    0.3738    5.7727 H   0  0  0  0  0  0  0  0  0  0  0  0
    0.8818   -0.5453    2.1263 H   0  0  0  0  0  0  0  0  0  0  0  0
    2.7941   -1.6378   -0.3309 H   0  0  0  0  0  0  0  0  0  0  0  0
    4.7799   -0.2774   -0.5550 H   0  0  0  0  0  0  0  0  0  0  0  0
    4.7808    3.3304   -0.7498 H   0  0  0  0  0  0  0  0  0  0  0  0
    4.9701    2.6671   -2.3662 H   0  0  0  0  0  0  0  0  0  0  0  0
    6.2661    1.5167    0.1529 H   0  0  0  0  0  0  0  0  0  0  0  0
    7.0676    2.5184   -1.0553 H   0  0  0  0  0  0  0  0  0  0  0  0
    6.4945    0.9115   -1.4941 H   0  0  0  0  0  0  0  0  0  0  0  0
    2.3703    3.0994   -1.5604 H   0  0  0  0  0  0  0  0  0  0  0  0
    0.3595    1.7435   -1.2773 H   0  0  0  0  0  0  0  0  0  0  0  0
   -0.3577   -2.6178   -2.7551 H   0  0  0  0  0  0  0  0  0  0  0  0
    0.0770   -5.0023   -2.8604 H   0  0  0  0  0  0  0  0  0  0  0  0
    1.3345   -6.9269   -1.9477 H   0  0  0  0  0  0  0  0  0  0  0  0
    1.9074   -6.9036   -0.2736 H   0  0  0  0  0  0  0  0  0  0  0  0
   -1.0180   -7.1212   -1.1373 H   0  0  0  0  0  0  0  0  0  0  0  0
   -0.4476   -7.0969    0.5312 H   0  0  0  0  0  0  0  0  0  0  0  0
   -0.0231   -8.4472   -0.5263 H   0  0  0  0  0  0  0  0  0  0  0  0
    1.5520   -4.9265    1.1374 H   0  0  0  0  0  0  0  0  0  0  0  0
    1.1286   -2.5358    1.2535 H   0  0  0  0  0  0  0  0  0  0  0  0
    0.4702    0.5507   -7.0166 H   0  0  0  0  0  0  0  0  0  0  0  0
    1.9072   -2.0083   -3.2194 H   0  0  0  0  0  0  0  0  0  0  0  0
    7.7844   -0.3741   -3.3477 H   0  0  0  0  0  0  0  0  0  0  0  0
    7.7117   -0.7248   -5.0675 H   0  0  0  0  0  0  0  0  0  0  0  0
    7.6837    1.6954   -5.6009 H   0  0  0  0  0  0  0  0  0  0  0  0
    9.0683    1.3098   -4.5817 H   0  0  0  0  0  0  0  0  0  0  0  0
    7.6510    2.0940   -3.8802 H   0  0  0  0  0  0  0  0  0  0  0  0
    5.3121    1.8552   -5.1723 H   0  0  0  0  0  0  0  0  0  0  0  0
   -2.8819    0.8328    6.8823 H   0  0  0  0  0  0  0  0  0  0  0  0
    0.9035    0.5140    7.9503 H   0  0  0  0  0  0  0  0  0  0  0  0
  1  2  2  0  0  0  0
  2  3  1  0  0  0  0
  3  4  2  0  0  0  0
  3  5  1  0  0  0  0
  5  6  2  0  0  0  0
  6  7  1  0  0  0  0
  6  8  1  0  0  0  0
  8  9  1  0  0  0  0
  8 10  2  0  0  0  0
 10 11  1  0  0  0  0
 10 12  1  0  0  0  0
 12 13  1  0  0  0  0
 12 14  2  0  0  0  0
 14 15  1  0  0  0  0
 15 16  2  0  0  0  0
 16 17  1  0  0  0  0
 17 18  3  0  0  0  0
 16 19  1  0  0  0  0
 19 20  3  0  0  0  0
  1 21  1  0  0  0  0
 21 22  1  0  0  0  0
 22 23  1  0  0  0  0
 23 24  1  0  0  0  0
 24 25  1  0  0  0  0
 25 26  1  0  0  0  0
 26 27  1  0  0  0  0
 27 28  2  0  0  0  0
 28 29  1  0  0  0  0
 29 30  1  0  0  0  0
 30 31  1  0  0  0  0
 31 32  2  0  0  0  0
 32 33  1  0  0  0  0
 33 34  2  0  0  0  0
 34 35  1  0  0  0  0
 35 36  1  0  0  0  0
 34 37  1  0  0  0  0
 37 38  2  0  0  0  0
 30 39  1  0  0  0  0
 39 40  2  0  0  0  0
 40 41  1  0  0  0  0
 41 42  2  0  0  0  0
 42 43  1  0  0  0  0
 43 44  1  0  0  0  0
 42 45  1  0  0  0  0
 45 46  2  0  0  0  0
 30 47  1  0  0  0  0
 47 48  2  0  0  0  0
 48 49  1  0  0  0  0
 49 50  1  0  0  0  0
 50 51  2  0  0  0  0
 51 52  1  0  0  0  0
 52 53  1  0  0  0  0
 53 54  2  0  0  0  0
 54 55  1  0  0  0  0
 55 56  2  0  0  0  0
 56 57  1  0  0  0  0
 57 58  1  0  0  0  0
 56 59  1  0  0  0  0
 59 60  2  0  0  0  0
 52 61  1  0  0  0  0
 61 62  2  0  0  0  0
 62 63  1  0  0  0  0
 63 64  2  0  0  0  0
 64 65  1  0  0  0  0
 65 66  1  0  0  0  0
 64 67  1  0  0  0  0
 67 68  2  0  0  0  0
 52 69  1  0  0  0  0
 69 70  1  0  0  0  0
 70 71  1  0  0  0  0
 71 72  1  0  0  0  0
 72 73  1  0  0  0  0
 71 74  1  0  0  0  0
 74 75  2  0  0  0  0
 75 76  1  0  0  0  0
 76 77  1  0  0  0  0
 77 78  1  0  0  0  0
 78 79  1  0  0  0  0
 79 80  1  0  0  0  0
 78 81  2  0  0  0  0
 81 82  1  0  0  0  0
 82 83  1  0  0  0  0
 48 84  1  0  0  0  0
 84 85  1  0  0  0  0
 85 86  2  0  0  0  0
 85 87  1  0  0  0  0
 87 88  2  0  0  0  0
 88 89  1  0  0  0  0
 89 90  2  0  0  0  0
 89 91  1  0  0  0  0
 91 92  2  0  0  0  0
 92 93  1  0  0  0  0
 92 94  1  0  0  0  0
 94 95  1  0  0  0  0
 94 96  2  0  0  0  0
 96 97  1  0  0  0  0
 96 98  1  0  0  0  0
 98 99  1  0  0  0  0
 98100  2  0  0  0  0
100101  1  0  0  0  0
101102  2  0  0  0  0
102103  1  0  0  0  0
103104  3  0  0  0  0
102105  1  0  0  0  0
105106  3  0  0  0  0
 15  2  1  0  0  0  0
 73 21  2  0  0  0  0
 83 74  1  0  0  0  0
101 88  1  0  0  0  0
 14  5  1  0  0  0  0
 72 23  2  0  0  0  0
 82 76  2  0  0  0  0
100 91  1  0  0  0  0
 70 24  2  0  0  0  0
 69 26  2  0  0  0  0
 51 27  1  0  0  0  0
 60 53  1  0  0  0  0
 68 61  1  0  0  0  0
 49 29  2  0  0  0  0
 38 31  1  0  0  0  0
 46 39  1  0  0  0  0
 86 47  1  0  0  0  0
  1107  1  0  0  0  0
 28108  1  0  0  0  0
 32109  1  0  0  0  0
 33110  1  0  0  0  0
 35111  1  0  0  0  0
 35112  1  0  0  0  0
 36113  1  0  0  0  0
 36114  1  0  0  0  0
 36115  1  0  0  0  0
 37116  1  0  0  0  0
 38117  1  0  0  0  0
 40118  1  0  0  0  0
 41119  1  0  0  0  0
 43120  1  0  0  0  0
 43121  1  0  0  0  0
 44122  1  0  0  0  0
 44123  1  0  0  0  0
 44124  1  0  0  0  0
 45125  1  0  0  0  0
 46126  1  0  0  0  0
 50127  1  0  0  0  0
 54128  1  0  0  0  0
 55129  1  0  0  0  0
 57130  1  0  0  0  0
 57131  1  0  0  0  0
 58132  1  0  0  0  0
 58133  1  0  0  0  0
 58134  1  0  0  0  0
 59135  1  0  0  0  0
 60136  1  0  0  0  0
 62137  1  0  0  0  0
 63138  1  0  0  0  0
 65139  1  0  0  0  0
 65140  1  0  0  0  0
 66141  1  0  0  0  0
 66142  1  0  0  0  0
 66143  1  0  0  0  0
 67144  1  0  0  0  0
 68145  1  0  0  0  0
 73146  1  0  0  0  0
 75147  1  0  0  0  0
 79148  1  0  0  0  0
 79149  1  0  0  0  0
 80150  1  0  0  0  0
 80151  1  0  0  0  0
 80152  1  0  0  0  0
 81153  1  0  0  0  0
 86154  1  0  0  0  0
 87155  1  0  0  0  0
M  END
