158

C         -8.95260        2.54220       -1.70420
C        -10.05110        1.89990       -1.18070
C        -10.02160        0.79540       -0.22600
O         -9.05430        0.33720        0.35220
C        -11.41770        0.31240       -0.12030
C        -11.90330       -0.78340        0.56990
Cl       -10.90160       -1.70330        1.60040
C        -13.25000       -1.13290        0.39370
Cl       -13.90640       -2.45770        1.25200
C        -14.04010       -0.43170       -0.51480
Cl       -15.64910       -0.94220       -0.79210
C        -13.53720        0.67520       -1.21910
Cl       -14.51250        1.36400       -2.45030
C        -12.23860        1.09360       -0.95920
C        -11.43710        2.19930       -1.48270
C        -11.91590        3.38950       -1.96830
C        -11.11160        4.42880       -2.48400
N        -10.53670        5.31240       -2.94040
C        -13.25110        3.83790       -1.87360
N        -14.27510        4.33980       -1.74340
C         -7.59010        2.36020       -1.46100
C         -6.60960        3.08870       -2.15890
C         -5.33240        2.75710       -1.78300
C         -3.92150        3.15960       -2.16900
C         -3.73800        2.91120       -3.65110
C         -4.36150        3.75170       -4.56730
C         -4.23080        3.53500       -5.92500
C         -3.48150        2.46940       -6.40890
C         -3.37000        2.21690       -7.88460
C         -4.55150        1.37650       -8.37320
C         -2.88460        1.61730       -5.49100
C         -3.01410        1.82970       -4.12950
C         -3.63540        4.59320       -1.73750
C         -2.93090        5.48480       -2.53130
C         -2.67550        6.76900       -2.08500
C         -3.11390        7.19760       -0.84020
C         -2.80520        8.58070       -0.34440
C         -1.50850        8.58170        0.46760
C         -3.80750        6.29610       -0.04290
C         -4.06190        5.01170       -0.48220
C         -3.12340        2.23330       -1.27800
C         -3.96660        1.47570       -0.47760
C         -5.31450        1.77140       -0.77960
S         -6.86720        1.24800       -0.30160
S         -3.13520        0.40320        0.58560
C         -1.61150        0.94410       -0.07430
C         -0.36260        0.40730        0.27950
C          0.75630        0.89450       -0.44080
C          0.61670        1.91480       -1.40830
C         -0.60420        2.45660       -1.71330
O         -0.84360        3.44910       -2.59560
C          0.21200        3.95950       -3.38710
C          0.54120        3.05040       -4.56620
C         -1.76260        1.93910       -1.05610
C          1.98810        0.27980       -0.16370
C          2.13570       -0.73690        0.79630
C          1.00080       -1.14660        1.56060
C         -0.21630       -0.58450        1.27480
O          1.23530       -2.06660        2.51870
C          0.18310       -2.39090        3.40900
C          0.74570       -3.27190        4.51180
C          3.45670       -1.22750        0.82140
C          4.27290       -0.59990       -0.10860
S          3.47590        0.63760       -1.00780
C          5.53070       -1.23980       -0.13880
S          6.98670       -1.13880       -1.01700
C          7.60090       -2.57590       -0.18030
C          6.67380       -3.05360        0.74770
C          5.51680       -2.30670        0.77510
C          4.19060       -2.35500        1.51100
C          3.46230       -3.65970        1.21330
C          3.16290       -3.95700       -0.11150
C          2.47270       -5.10770       -0.43900
C          2.06770       -5.99860        0.54610
C          1.26500       -7.22060        0.20500
C         -0.22960       -6.93940        0.37440
C          2.38040       -5.70290        1.86520
C          3.06700       -4.54930        2.19870
C          4.43180       -2.10590        2.98790
C          3.89070       -1.01030        3.64400
C          4.12240       -0.81340        4.99400
C          4.90610       -1.69600        5.72340
C          5.18610       -1.45800        7.17900
C          6.42860       -0.58130        7.34780
C          5.46730       -2.77800        5.05720
C          5.23680       -2.98090        3.71030
C          8.86410       -3.02450       -0.58180
C          9.61060       -4.12410       -0.22170
C          9.27360       -5.18810        0.74180
O          8.32590       -5.26680        1.49620
C         10.36100       -6.18800        0.62980
C         11.31700       -5.74460       -0.29960
C         12.42460       -6.52920       -0.57980
C         12.56120       -7.74470        0.07440
C         11.61740       -8.17540        0.99350
Br        11.86010       -9.84240        1.85060
C         10.49260       -7.39860        1.29050
Cl         9.32550       -7.93150        2.42340
C         10.89390       -4.44310       -0.81670
C         11.62950       -3.68480       -1.69290
C         12.87740       -4.07390       -2.22440
N         13.89200       -4.32000       -2.70230
C         11.29470       -2.40750       -2.19090
N         11.12110       -1.36760       -2.64780
H         -9.15060        3.29700       -2.45560
H         -6.87530        3.81890       -2.90160
H         -4.94270        4.59060       -4.21390
H         -4.71490        4.20520       -6.62090
H         -3.35850        3.16690       -8.42290
H         -2.43900        1.68920       -8.10180
H         -5.48920        1.89160       -8.17730
H         -4.47200        1.19350       -9.44210
H         -4.57350        0.41920       -7.85700
H         -2.30770        0.77350       -5.84350
H         -2.54100        1.14410       -3.44310
H         -2.58120        5.17990       -3.50430
H         -2.12900        7.45210       -2.72030
H         -2.70090        9.26290       -1.19030
H         -3.62300        8.93850        0.28430
H         -1.28560        9.58340        0.82730
H         -1.59750        7.91660        1.32370
H         -0.67780        8.23920       -0.14570
H         -4.15610        6.60420        0.93240
H         -4.60260        4.32960        0.15850
H          1.51780        2.24460       -1.90060
H         -0.16320        4.91960       -3.75060
H          1.10010        4.14840       -2.77270
H         -0.35260        2.89270       -5.16540
H          1.30680        3.51300       -5.18250
H          0.90180        2.08380       -4.22290
H         -1.10890       -0.88990        1.79690
H         -0.23080       -1.46840        3.83870
H         -0.61600       -2.91630        2.86900
H          1.60480       -2.78660        4.96820
H          1.05920       -4.22710        4.10340
H         -0.01560       -3.43950        5.26830
H          6.87590       -3.92650        1.33860
H          3.46900       -3.28070       -0.89770
H          2.24570       -5.31630       -1.47490
H          1.46130       -7.51820       -0.82670
H          1.55140       -8.04650        0.85940
H         -0.44810       -6.65820        1.40230
H         -0.53670       -6.12300       -0.27580
H         -0.81400       -7.82170        0.12430
H          2.08260       -6.38780        2.64730
H          3.28810       -4.34380        3.23350
H          3.28030       -0.30040        3.10820
H          3.68350        0.04240        5.48770
H          4.33120       -0.96360        7.64530
H          5.34800       -2.41160        7.68540
H          6.28270        0.38010        6.86020
H          7.29480       -1.06320        6.90010
H          6.63250       -0.40910        8.40200
H          6.09110       -3.47380        5.59970
H          5.68250       -3.83310        3.22150
H          9.30990       -2.39260       -1.34070
H         13.17490       -6.22500       -1.28950
H         13.41490       -8.37140       -0.13250
