155

C         -1.64690        1.72940       -8.48670
C         -0.56390        2.15970       -9.19960
C         -0.62730        2.32650      -10.66850
O         -1.61770        2.37070      -11.35690
C          0.79360        2.34450      -11.11070
C          1.31050        2.30480      -12.39410
Cl         0.29750        2.40470      -13.76310
C          2.69920        2.16970      -12.54710
Cl         3.38260        2.14380      -14.11400
C          3.51960        2.01400      -11.43030
Cl         5.19540        1.74930      -11.64740
C          2.99020        2.05780      -10.13170
Cl         4.01100        1.69300       -8.80160
C          1.63200        2.28880       -9.97860
C          0.79810        2.44370       -8.78830
C          1.15920        3.08410       -7.63320
C          0.23660        3.40210       -6.61070
N         -0.46640        3.72150       -5.76220
C          2.42260        3.64430       -7.35230
N          3.39710        4.17080       -7.05130
C         -1.60140        1.18140       -7.19110
S         -3.04780        1.11790       -6.18350
C         -2.12630        0.50340       -4.87080
C         -2.21670        0.17540       -3.51860
S         -3.36860        0.21240       -2.22480
C         -2.10440       -0.24220       -1.13030
C         -1.99050       -0.29270        0.29320
C         -2.92820       -0.03370        1.28810
C         -2.47440        0.00350        2.58640
C         -3.26430        0.30120        3.84910
C         -4.00160        1.61360        3.66270
C         -3.41220        2.82290        4.00240
C         -4.07910        4.01360        3.77970
C         -5.34340        4.02860        3.20660
C         -6.04490        5.32520        2.92270
C         -5.68730        5.82980        1.52310
C         -5.92310        2.81580        2.85700
C         -5.26280        1.62270        3.08030
C         -4.20820       -0.81830        4.25710
C         -4.16330       -2.07240        3.66720
C         -5.00770       -3.07860        4.10250
C         -5.90370       -2.86240        5.13990
C         -6.84650       -3.94500        5.57940
C         -8.13760       -3.89380        4.75990
C         -5.93740       -1.60560        5.73170
C         -5.09930       -0.59650        5.30060
C         -2.16070        0.34620        4.87480
C         -0.93800        0.03710        4.27560
C         -1.10000       -0.16930        2.87440
C         -0.16490       -0.45320        1.87900
C         -0.62870       -0.54920        0.59020
C          0.14510       -0.86470       -0.68470
C          1.42430       -0.05580       -0.79680
C          2.68270       -0.59500       -0.58710
C          3.82020        0.18380       -0.72450
C          3.73470        1.51830       -1.08900
C          4.93530        2.40040       -1.30450
C          6.27160        1.79350       -0.89890
C          2.46620        2.05990       -1.28070
C          1.33060        1.29270       -1.12810
C          0.37850       -2.37300       -0.75010
C          0.07700       -3.10240       -1.89400
C          0.31620       -4.46380       -1.95430
C          0.85850       -5.14500       -0.87430
C          1.07900       -6.62830       -0.92910
C         -0.18280       -7.37240       -0.48720
C          1.13930       -4.42070        0.27620
C          0.90280       -3.06030        0.33930
C         -0.86980       -0.45940       -1.72320
C         -0.91720       -0.20810       -3.09280
N         -0.04340       -0.14490       -4.16000
C         -0.77280        0.30910       -5.23790
C         -0.48510        0.67190       -6.54080
C          1.34550       -0.13900       -4.14420
C          2.20650       -1.08040       -3.66920
C          3.54320       -0.67930       -3.85800
S          5.08460       -1.38180       -3.52760
C          5.90190       -0.00450       -4.24200
C          7.39260       -0.00970       -4.30160
C          7.98290        1.36110       -4.61120
C          5.03010        0.93430       -4.69800
C          3.69200        0.55190       -4.47740
S          2.16230        1.26900       -4.82160
S          0.35380        0.03100        5.38800
C         -0.75740        0.45380        6.69930
C         -2.06570        0.57700        6.23350
C         -0.17350        0.63890        7.96050
C         -0.72010        0.91650        9.18860
C         -2.13810        0.98080        9.58440
O         -3.12710        0.99600        8.88460
C         -2.13280        0.99580       11.06950
C         -3.21050        0.92690       11.93500
Cl        -4.81790        0.96720       11.36570
C         -2.95110        0.81280       13.30830
Cl        -4.24980        0.75930       14.41960
C         -1.63970        0.69830       13.76600
Cl        -1.35320        0.45720       15.43530
C         -0.55060        0.76320       12.88200
Cl         1.01800        0.43570       13.49270
C         -0.80380        0.98760       11.53500
C          0.07710        1.15320       10.38230
C          1.34200        1.67840       10.40170
C          2.14280        1.89210        9.25680
N          2.86150        2.09940        8.38570
C          1.97170        2.26310       11.52270
N          2.52530        2.85110       12.33790
H         -2.60550        1.76720       -8.98990
H         -3.96130        0.15240        1.03910
H         -2.42810        2.83820        4.44790
H         -3.60880        4.94590        4.05800
H         -7.12550        5.18390        2.98880
H         -5.75200        6.07420        3.66100
H         -5.98200        5.10140        0.77100
H         -4.61460        5.98990        1.44120
H         -6.19570        6.76850        1.31600
H         -6.90580        2.80430        2.40730
H         -5.73680        0.68930        2.81250
H         -3.46900       -2.26990        2.86320
H         -4.96300       -4.04960        3.62970
H         -7.08650       -3.81930        6.63690
H         -6.37600       -4.92170        5.44890
H         -8.82160       -4.67720        5.07780
H         -7.92020       -4.02990        3.70280
H         -8.62800       -2.93140        4.88710
H         -6.62360       -1.41630        6.54440
H         -5.13930        0.37380        5.77270
H          0.88180       -0.54530        2.12630
H          2.79410       -1.63780       -0.33090
H          4.77990       -0.27740       -0.55500
H          4.78080        3.33040       -0.74980
H          4.97010        2.66710       -2.36620
H          6.26610        1.51670        0.15290
H          7.06760        2.51840       -1.05530
H          6.49450        0.91150       -1.49410
H          2.37030        3.09940       -1.56040
H          0.35950        1.74350       -1.27730
H         -0.35770       -2.61780       -2.75510
H          0.07700       -5.00230       -2.86040
H          1.33450       -6.92690       -1.94770
H          1.90740       -6.90360       -0.27360
H         -1.01800       -7.12120       -1.13730
H         -0.44760       -7.09690        0.53120
H         -0.02310       -8.44720       -0.52630
H          1.55200       -4.92650        1.13740
H          1.12860       -2.53580        1.25350
H          0.47020        0.55070       -7.01660
H          1.90720       -2.00830       -3.21940
H          7.78440       -0.37410       -3.34770
H          7.71170       -0.72480       -5.06750
H          7.68370        1.69540       -5.60090
H          9.06830        1.30980       -4.58170
H          7.65100        2.09400       -3.88020
H          5.31210        1.85520       -5.17230
H         -2.88190        0.83280        6.88230
H          0.90350        0.51400        7.95030
