163

C          6.72200       -6.93000        0.87320
C          6.93640       -8.12350        0.22450
C          6.29670       -8.55080       -1.01770
O          5.55930       -7.90490       -1.73660
C          6.70400       -9.96070       -1.21950
C          6.28630      -10.84840       -2.19440
Cl         5.29050      -10.34900       -3.48680
C          6.69600      -12.18560       -2.09040
Cl         6.23690      -13.31360       -3.29000
C          7.43590      -12.60490       -0.98680
Cl         7.83340      -14.26120       -0.82730
C          7.84810      -11.69880        0.00460
Cl         8.59060      -12.32610        1.41780
C          7.54350      -10.35330       -0.15710
C          7.84460       -9.17060        0.64910
C          8.91840       -9.01320        1.48850
C         10.02430       -9.88560        1.58320
N         11.01450      -10.46210        1.65080
C          9.17210       -7.86240        2.26570
N          9.44620       -6.97960        2.94780
C          5.91260       -5.84120        0.53900
S          4.92100       -5.67800       -0.91510
C          4.39390       -4.13280       -0.38140
C          3.55290       -3.08350       -0.74570
S          2.41340       -2.68330       -1.98870
C          2.04270       -1.22700       -1.12940
C          1.04670       -0.21460       -1.28110
C          0.05270       -0.06150       -2.24340
C         -0.86120        0.94720       -2.04780
C         -2.05340        1.31780       -2.91340
C         -3.11170        0.23490       -3.01730
C         -3.13770       -0.85500       -2.16030
C         -4.14880       -1.79490       -2.25540
C         -5.15880       -1.66570       -3.19780
C         -6.28290       -2.65900       -3.26470
C         -7.44160       -2.20930       -2.37240
C         -5.13540       -0.56340       -4.04340
C         -4.12800        0.37630       -3.95500
C         -1.52880        1.72460       -4.27890
C         -1.19900        3.04300       -4.55900
C         -0.67800        3.38830       -5.79240
C         -0.46220        2.42790       -6.77120
C          0.05880        2.81420       -8.12540
C         -1.09840        3.17680       -9.05840
C         -0.78550        1.10840       -6.48230
C         -1.30840        0.75830       -5.25230
C         -2.63920        2.45950       -2.12230
C         -1.86990        2.70070       -0.98700
C         -0.76730        1.79620       -0.92040
C          0.24300        1.65710        0.02930
C          1.15200        0.64460       -0.16160
C          2.33860        0.24950        0.71400
C          1.91610       -0.07630        2.13670
C          0.89450       -1.00420        2.31400
C          0.51100       -1.40000        3.57950
C          1.13380       -0.88020        4.70780
C          0.76010       -1.35800        6.08050
C          1.53130       -2.63310        6.42670
C          2.14450        0.05180        4.52740
C          2.53470        0.44880        3.26050
C          3.37840        1.35060        0.59600
C          3.16840        2.58610        1.19880
C          4.10810        3.59350        1.09380
C          5.28170        3.40630        0.37520
C          6.28280        4.51480        0.23130
C          5.94350        5.38220       -0.98270
C          5.47560        2.18450       -0.25250
C          4.53850        1.17190       -0.14700
C          2.77350       -1.02670        0.03310
C          3.63780       -2.09500        0.26860
N          4.52060       -2.51480        1.23990
C          4.97010       -3.76500        0.86360
C          5.81900       -4.72050        1.37650
C          4.83610       -1.88020        2.43080
C          5.37040       -0.63890        2.59530
C          5.53710       -0.34000        3.96010
S          6.11100        1.02940        4.83870
C          5.82590        0.20740        6.35630
C          6.18580        0.88150        7.63450
C          7.70120        0.88360        7.84850
C          5.32040       -1.04420        6.18410
C          5.14590       -1.35540        4.82070
S          4.53260       -2.71450        3.94880
S         -2.49900        3.96560       -0.02840
C         -3.85110        4.15930       -1.15050
C         -3.75690        3.27180       -2.21620
C         -4.78440        5.16080       -0.82190
C         -6.00900        5.46470       -1.35110
C         -6.80410        4.70690       -2.34790
O         -6.45930        3.78590       -3.06290
C         -8.15120        5.29310       -2.29610
C         -9.28520        4.89320       -2.97520
C        -10.48480        5.56970       -2.77940
O        -11.63970        5.22670       -3.42010
C        -11.62230        4.13990       -4.31580
C        -10.52190        6.66440       -1.87820
O        -11.59510        7.42080       -1.56250
C        -12.88400        7.17920       -2.08470
C         -9.35870        7.05890       -1.21010
C         -8.17250        6.38080       -1.41220
C         -6.83500        6.56030       -0.86460
C         -6.43160        7.62010       -0.09500
C         -5.11520        7.86630        0.34830
N         -4.07160        8.15760        0.73070
C         -7.29090        8.65730        0.32550
N         -7.93020        9.53070        0.70780
H          7.23700       -6.79770        1.81700
H         -0.00330       -0.72990       -3.08850
H         -2.36640       -0.97580       -1.41350
H         -4.15050       -2.64210       -1.58420
H         -5.93340       -3.63950       -2.93510
H         -6.63610       -2.74990       -4.29400
H         -8.26200       -2.92160       -2.42350
H         -7.80520       -1.23440       -2.68940
H         -7.11310       -2.13010       -1.33840
H         -5.91620       -0.43920       -4.77980
H         -4.12480        1.22520       -4.62250
H         -1.35190        3.80880       -3.81260
H         -0.43210        4.42100       -5.99500
H          0.72890        3.67130       -8.03370
H          0.62200        1.98400       -8.55630
H         -1.77340        2.33100       -9.16960
H         -1.66300        4.01340       -8.65290
H         -0.72330        3.45400      -10.04080
H         -0.62330        0.34410       -7.22910
H         -1.56000       -0.27300       -5.05110
H          0.27360        2.31060        0.88640
H          0.39920       -1.42180        1.44830
H         -0.28240       -2.12470        3.69430
H         -0.31160       -1.56260        6.12330
H          0.99120       -0.58560        6.81670
H          1.26760       -2.97950        7.42320
H          1.30300       -3.42060        5.71220
H          2.60210       -2.44640        6.39340
H          2.64230        0.47330        5.38960
H          3.33250        1.16770        3.15960
H          2.26800        2.76390        1.76610
H          3.92760        4.54060        1.58160
H          7.28370        4.09680        0.10700
H          6.28010        5.13520        1.12960
H          5.95610        4.78340       -1.89080
H          4.95160        5.81480       -0.87310
H          6.66530        6.18860       -1.08770
H          6.37420        2.01630       -0.82930
H          4.72150        0.23460       -0.65230
H          6.35950       -4.64620        2.30280
H          5.62530        0.02030        1.78670
H          5.69870        0.35750        8.45930
H          5.82530        1.91270        7.61980
H          7.94720        1.37290        8.78720
H          8.19510        1.41510        7.03840
H          8.08060       -0.13510        7.87620
H          5.08190       -1.70890        6.99410
H         -4.48830        3.23880       -3.00140
H         -4.47460        5.76260        0.02510
H         -9.21250        4.05510       -3.64890
H        -11.35190        3.20730       -3.81170
H        -10.93770        4.31780       -5.15040
H        -12.64030        4.06340       -4.69440
H        -13.25160        6.18870       -1.81000
H        -12.90910        7.28840       -3.17020
H        -13.51570        7.94060       -1.62800
H         -9.44320        7.89660       -0.53810
