
  xtb     02022223203D
 energy: -215.086076759533 gnorm: 0.000826586260 xtb: 6.4.1 (unknown)
106117  0     0  0            999 V2000
    7.0322    3.4439   -2.2179 C   0  0  0  0  0  0  0  0  0  0  0  0
    7.4098    4.3370   -1.2408 C   0  0  0  0  0  0  0  0  0  0  0  0
    6.6638    4.6637   -0.0295 C   0  0  0  0  0  0  0  0  0  0  0  0
    5.6497    4.1366    0.3888 O   0  0  0  0  0  0  0  0  0  0  0  0
    7.3701    5.8085    0.5881 C   0  0  0  0  0  0  0  0  0  0  0  0
    7.0062    6.5517    1.6964 C   0  0  0  0  0  0  0  0  0  0  0  0
    5.6765    6.1095    2.6692 Cl  0  0  0  0  0  0  0  0  0  0  0  0
    7.7575    7.6956    2.0020 C   0  0  0  0  0  0  0  0  0  0  0  0
    7.3695    8.6273    3.3822 Cl  0  0  0  0  0  0  0  0  0  0  0  0
    8.7887    8.0994    1.1563 C   0  0  0  0  0  0  0  0  0  0  0  0
    9.6212    9.5562    1.4898 Cl  0  0  0  0  0  0  0  0  0  0  0  0
    9.1481    7.3432    0.0278 C   0  0  0  0  0  0  0  0  0  0  0  0
   10.3001    8.0029   -1.0578 Cl  0  0  0  0  0  0  0  0  0  0  0  0
    8.4810    6.1487   -0.2105 C   0  0  0  0  0  0  0  0  0  0  0  0
    8.6277    5.1257   -1.2453 C   0  0  0  0  0  0  0  0  0  0  0  0
    9.7778    4.8243   -1.9286 C   0  0  0  0  0  0  0  0  0  0  0  0
    9.8878    3.8125   -2.9072 C   0  0  0  0  0  0  0  0  0  0  0  0
   10.0599    3.0188   -3.7198 N   0  0  0  0  0  0  0  0  0  0  0  0
   11.0645    5.3336   -1.6483 C   0  0  0  0  0  0  0  0  0  0  0  0
   12.1612    5.5956   -1.4335 N   0  0  0  0  0  0  0  0  0  0  0  0
    5.9219    2.6034   -2.3098 C   0  0  0  0  0  0  0  0  0  0  0  0
    5.6822    1.7598   -3.4122 C   0  0  0  0  0  0  0  0  0  0  0  0
    6.5663    1.6013   -4.6051 C   0  0  0  0  0  0  0  0  0  0  0  0
    7.6860    0.5957   -4.3225 C   0  0  0  0  0  0  0  0  0  0  0  0
    4.5218    1.0202   -3.2417 C   0  0  0  0  0  0  0  0  0  0  0  0
    3.8487    1.2765   -2.0318 C   0  0  0  0  0  0  0  0  0  0  0  0
    4.6664    2.4520   -1.0757 S   0  0  0  0  0  0  0  0  0  0  0  0
    2.6839    0.5118   -1.9347 C   0  0  0  0  0  0  0  0  0  0  0  0
    2.4843   -0.3047   -3.0541 C   0  0  0  0  0  0  0  0  0  0  0  0
    3.7207   -0.1687   -4.2529 S   0  0  0  0  0  0  0  0  0  0  0  0
    1.2808   -0.9896   -2.8527 C   0  0  0  0  0  0  0  0  0  0  0  0
    0.6089   -1.8792   -3.7302 C   0  0  0  0  0  0  0  0  0  0  0  0
    1.1365   -2.2101   -4.9150 N   0  0  0  0  0  0  0  0  0  0  0  0
    0.4410   -3.0115   -5.6940 C   0  0  0  0  0  0  0  0  0  0  0  0
    1.0451   -3.3687   -7.0109 C   0  0  0  0  0  0  0  0  0  0  0  0
   -0.8264   -3.5088   -5.2954 C   0  0  0  0  0  0  0  0  0  0  0  0
   -1.6260   -4.4127   -6.1730 C   0  0  0  0  0  0  0  0  0  0  0  0
   -1.3483   -3.1925   -4.1289 N   0  0  0  0  0  0  0  0  0  0  0  0
   -0.6448   -2.3803   -3.3308 C   0  0  0  0  0  0  0  0  0  0  0  0
   -1.1272   -2.0190   -2.0464 C   0  0  0  0  0  0  0  0  0  0  0  0
   -2.3019   -2.4317   -1.4059 C   0  0  0  0  0  0  0  0  0  0  0  0
   -3.6861   -3.4097   -1.7307 S   0  0  0  0  0  0  0  0  0  0  0  0
   -4.2782   -3.0554   -0.1236 C   0  0  0  0  0  0  0  0  0  0  0  0
   -5.4332   -3.4399    0.5581 C   0  0  0  0  0  0  0  0  0  0  0  0
   -6.4630   -4.3496   -0.0249 C   0  0  0  0  0  0  0  0  0  0  0  0
   -6.1048   -5.8117    0.2562 C   0  0  0  0  0  0  0  0  0  0  0  0
   -5.4839   -2.8811    1.8327 C   0  0  0  0  0  0  0  0  0  0  0  0
   -4.0577   -1.8985    2.1800 S   0  0  0  0  0  0  0  0  0  0  0  0
   -3.4215   -2.2200    0.6113 C   0  0  0  0  0  0  0  0  0  0  0  0
   -2.2933   -1.8609   -0.1274 C   0  0  0  0  0  0  0  0  0  0  0  0
   -1.1727   -1.0919    0.0337 N   0  0  0  0  0  0  0  0  0  0  0  0
   -0.8185   -0.6285    1.3556 C   0  0  0  0  0  0  0  0  0  0  0  0
    0.2854   -1.4875    1.9693 C   0  0  0  0  0  0  0  0  0  0  0  0
   -0.4328   -1.1693   -1.1356 C   0  0  0  0  0  0  0  0  0  0  0  0
    0.7783   -0.5818   -1.5799 C   0  0  0  0  0  0  0  0  0  0  0  0
    1.6624    0.3361   -1.0401 N   0  0  0  0  0  0  0  0  0  0  0  0
    1.5184    1.2720    0.0523 C   0  0  0  0  0  0  0  0  0  0  0  0
    0.4397    2.3115   -0.2443 C   0  0  0  0  0  0  0  0  0  0  0  0
   -6.4725   -3.1032    2.8080 C   0  0  0  0  0  0  0  0  0  0  0  0
   -6.6801   -2.4276    3.9753 C   0  0  0  0  0  0  0  0  0  0  0  0
   -7.4420   -3.0528    5.0782 C   0  0  0  0  0  0  0  0  0  0  0  0
   -8.1316   -4.0427    5.0169 O   0  0  0  0  0  0  0  0  0  0  0  0
   -7.1082   -2.2423    6.2785 C   0  0  0  0  0  0  0  0  0  0  0  0
   -7.4195   -2.4809    7.6057 C   0  0  0  0  0  0  0  0  0  0  0  0
   -8.4377   -3.7720    8.0611 Cl  0  0  0  0  0  0  0  0  0  0  0  0
   -6.8689   -1.6345    8.5798 C   0  0  0  0  0  0  0  0  0  0  0  0
   -7.2461   -1.8783   10.2297 Cl  0  0  0  0  0  0  0  0  0  0  0  0
   -5.9871   -0.6189    8.2123 C   0  0  0  0  0  0  0  0  0  0  0  0
   -5.2586    0.3416    9.4257 Cl  0  0  0  0  0  0  0  0  0  0  0  0
   -5.6782   -0.3788    6.8643 C   0  0  0  0  0  0  0  0  0  0  0  0
   -4.4774    0.7841    6.4811 Cl  0  0  0  0  0  0  0  0  0  0  0  0
   -6.2882   -1.1605    5.8956 C   0  0  0  0  0  0  0  0  0  0  0  0
   -6.2301   -1.1306    4.4350 C   0  0  0  0  0  0  0  0  0  0  0  0
   -6.1622   -0.0147    3.6438 C   0  0  0  0  0  0  0  0  0  0  0  0
   -6.4012   -0.0687    2.2517 C   0  0  0  0  0  0  0  0  0  0  0  0
   -6.6271   -0.0665    1.1266 N   0  0  0  0  0  0  0  0  0  0  0  0
   -6.0490    1.3194    4.0856 C   0  0  0  0  0  0  0  0  0  0  0  0
   -6.0153    2.4376    4.3414 N   0  0  0  0  0  0  0  0  0  0  0  0
    7.6846    3.3886   -3.0792 H   0  0  0  0  0  0  0  0  0  0  0  0
    5.9556    1.2320   -5.4316 H   0  0  0  0  0  0  0  0  0  0  0  0
    7.0019    2.5563   -4.9012 H   0  0  0  0  0  0  0  0  0  0  0  0
    7.2664   -0.3634   -4.0286 H   0  0  0  0  0  0  0  0  0  0  0  0
    8.3356    0.9543   -3.5283 H   0  0  0  0  0  0  0  0  0  0  0  0
    8.2872    0.4556   -5.2160 H   0  0  0  0  0  0  0  0  0  0  0  0
    0.3965   -3.0507   -7.8257 H   0  0  0  0  0  0  0  0  0  0  0  0
    2.0097   -2.8783   -7.1051 H   0  0  0  0  0  0  0  0  0  0  0  0
    1.1783   -4.4467   -7.0887 H   0  0  0  0  0  0  0  0  0  0  0  0
   -1.8511   -3.9226   -7.1190 H   0  0  0  0  0  0  0  0  0  0  0  0
   -1.0689   -5.3229   -6.3906 H   0  0  0  0  0  0  0  0  0  0  0  0
   -2.5539   -4.6690   -5.6700 H   0  0  0  0  0  0  0  0  0  0  0  0
   -7.4466   -4.1209    0.3847 H   0  0  0  0  0  0  0  0  0  0  0  0
   -6.4926   -4.1899   -1.1043 H   0  0  0  0  0  0  0  0  0  0  0  0
   -6.8505   -6.4675   -0.1846 H   0  0  0  0  0  0  0  0  0  0  0  0
   -5.1347   -6.0516   -0.1725 H   0  0  0  0  0  0  0  0  0  0  0  0
   -6.0665   -6.0000    1.3268 H   0  0  0  0  0  0  0  0  0  0  0  0
   -0.5458    0.4253    1.3314 H   0  0  0  0  0  0  0  0  0  0  0  0
   -1.7207   -0.7120    1.9670 H   0  0  0  0  0  0  0  0  0  0  0  0
    1.1689   -1.5037    1.3346 H   0  0  0  0  0  0  0  0  0  0  0  0
    0.5589   -1.0996    2.9466 H   0  0  0  0  0  0  0  0  0  0  0  0
   -0.0636   -2.5106    2.0889 H   0  0  0  0  0  0  0  0  0  0  0  0
    1.3282    0.7439    0.9853 H   0  0  0  0  0  0  0  0  0  0  0  0
    2.4816    1.7770    0.1591 H   0  0  0  0  0  0  0  0  0  0  0  0
   -0.5197    1.8403   -0.4479 H   0  0  0  0  0  0  0  0  0  0  0  0
    0.7208    2.8968   -1.1165 H   0  0  0  0  0  0  0  0  0  0  0  0
    0.3311    2.9851    0.6012 H   0  0  0  0  0  0  0  0  0  0  0  0
   -7.0943   -3.9808    2.6682 H   0  0  0  0  0  0  0  0  0  0  0  0
  1  2  2  0  0  0  0
  2  3  1  0  0  0  0
  3  4  2  0  0  0  0
  3  5  1  0  0  0  0
  5  6  2  0  0  0  0
  6  7  1  0  0  0  0
  6  8  1  0  0  0  0
  8  9  1  0  0  0  0
  8 10  2  0  0  0  0
 10 11  1  0  0  0  0
 10 12  1  0  0  0  0
 12 13  1  0  0  0  0
 12 14  2  0  0  0  0
 14 15  1  0  0  0  0
 15 16  2  0  0  0  0
 16 17  1  0  0  0  0
 17 18  3  0  0  0  0
 16 19  1  0  0  0  0
 19 20  3  0  0  0  0
  1 21  1  0  0  0  0
 21 22  2  0  0  0  0
 22 23  1  0  0  0  0
 23 24  1  0  0  0  0
 22 25  1  0  0  0  0
 25 26  2  0  0  0  0
 26 27  1  0  0  0  0
 26 28  1  0  0  0  0
 28 29  2  0  0  0  0
 29 30  1  0  0  0  0
 29 31  1  0  0  0  0
 31 32  2  0  0  0  0
 32 33  1  0  0  0  0
 33 34  2  0  0  0  0
 34 35  1  0  0  0  0
 34 36  1  0  0  0  0
 36 37  1  0  0  0  0
 36 38  2  0  0  0  0
 38 39  1  0  0  0  0
 39 40  2  0  0  0  0
 40 41  1  0  0  0  0
 41 42  1  0  0  0  0
 42 43  1  0  0  0  0
 43 44  1  0  0  0  0
 44 45  1  0  0  0  0
 45 46  1  0  0  0  0
 44 47  2  0  0  0  0
 47 48  1  0  0  0  0
 48 49  1  0  0  0  0
 49 50  1  0  0  0  0
 50 51  1  0  0  0  0
 51 52  1  0  0  0  0
 52 53  1  0  0  0  0
 51 54  1  0  0  0  0
 54 55  2  0  0  0  0
 55 56  1  0  0  0  0
 56 57  1  0  0  0  0
 57 58  1  0  0  0  0
 47 59  1  0  0  0  0
 59 60  2  0  0  0  0
 60 61  1  0  0  0  0
 61 62  2  0  0  0  0
 61 63  1  0  0  0  0
 63 64  2  0  0  0  0
 64 65  1  0  0  0  0
 64 66  1  0  0  0  0
 66 67  1  0  0  0  0
 66 68  2  0  0  0  0
 68 69  1  0  0  0  0
 68 70  1  0  0  0  0
 70 71  1  0  0  0  0
 70 72  2  0  0  0  0
 72 73  1  0  0  0  0
 73 74  2  0  0  0  0
 74 75  1  0  0  0  0
 75 76  3  0  0  0  0
 74 77  1  0  0  0  0
 77 78  3  0  0  0  0
 15  2  1  0  0  0  0
 27 21  1  0  0  0  0
 56 28  1  0  0  0  0
 73 60  1  0  0  0  0
 14  5  1  0  0  0  0
 30 25  1  0  0  0  0
 55 31  1  0  0  0  0
 72 63  1  0  0  0  0
 39 32  1  0  0  0  0
 54 40  1  0  0  0  0
 50 41  2  0  0  0  0
 49 43  2  0  0  0  0
  1 79  1  0  0  0  0
 23 80  1  0  0  0  0
 23 81  1  0  0  0  0
 24 82  1  0  0  0  0
 24 83  1  0  0  0  0
 24 84  1  0  0  0  0
 35 85  1  0  0  0  0
 35 86  1  0  0  0  0
 35 87  1  0  0  0  0
 37 88  1  0  0  0  0
 37 89  1  0  0  0  0
 37 90  1  0  0  0  0
 45 91  1  0  0  0  0
 45 92  1  0  0  0  0
 46 93  1  0  0  0  0
 46 94  1  0  0  0  0
 46 95  1  0  0  0  0
 52 96  1  0  0  0  0
 52 97  1  0  0  0  0
 53 98  1  0  0  0  0
 53 99  1  0  0  0  0
 53100  1  0  0  0  0
 57101  1  0  0  0  0
 57102  1  0  0  0  0
 58103  1  0  0  0  0
 58104  1  0  0  0  0
 58105  1  0  0  0  0
 59106  1  0  0  0  0
M  END
