130

C          8.99810        2.42040        0.84760
C         10.07080        3.04100        0.25170
C         10.02830        3.74450       -1.03940
O          9.06840        3.92640       -1.75710
C         11.37130        4.34770       -1.20560
C         11.84840        5.10580       -2.25830
Cl        10.94540        5.29010       -3.69350
C         13.10660        5.70900       -2.12430
Cl        13.75950        6.61880       -3.41600
C         13.80480        5.60370       -0.92260
Cl        15.28390        6.44330       -0.73800
C         13.31510        4.82840        0.14160
Cl        14.14670        4.88350        1.64060
C         12.12690        4.13160       -0.03610
C         11.39530        3.18870        0.80860
C         11.92400        2.36190        1.76860
C         11.16190        1.40010        2.46740
N         10.60780        0.59170        3.06600
C         13.29010        2.19240        2.07580
N         14.36910        1.90090        2.33740
C          7.83310        1.95170        0.22130
C          7.60580        1.52410       -1.09180
C          8.63830        1.40340       -2.11480
C          9.87470        0.83370       -1.81720
C         10.86470        0.80750       -2.77840
C         10.63400        1.34270       -4.03670
C          9.39860        1.88620       -4.35790
C          9.11490        2.41780       -5.73220
C          8.36580        1.37390       -6.56260
C          8.40280        1.90410       -3.39080
C          6.27540        1.13840       -1.27870
S          5.41780        0.50950       -2.66750
C          3.99750        0.36970       -1.69180
C          2.68120       -0.09490       -1.79650
C          2.02480       -0.72480       -2.87610
C          0.69920       -1.22500       -2.67740
N          0.22010       -1.83250       -3.75180
S          1.34360       -1.77500       -4.91510
N          2.48510       -0.97420       -4.09210
C          0.06390       -0.99140       -1.43850
C         -1.24110       -1.28770       -1.02520
S         -2.66230       -2.06630       -1.62900
C         -3.49430       -1.63190       -0.15340
C         -4.79800       -1.87380        0.30290
C         -5.77830       -2.69030       -0.40640
C         -5.99550       -2.50030       -1.76750
C         -6.99300       -3.21240       -2.40850
C         -7.77710       -4.10710       -1.70460
C         -7.55280       -4.33060       -0.34970
C         -8.36920       -5.33740        0.40880
C         -7.72340       -6.72200        0.33110
C         -6.53990       -3.63060        0.28280
C         -5.00820       -1.30540        1.55840
S         -3.54900       -0.55030        2.19560
C         -2.68730       -0.92850        0.75190
C         -1.39440       -0.74000        0.25210
N         -0.23230       -0.13520        0.64370
C          0.69900       -0.29050       -0.36830
C          2.06300        0.08910       -0.52140
N          3.01230        0.61830        0.33360
C          4.17270        0.79400       -0.36970
C          5.47860        1.22380       -0.12470
S          6.39020        1.78630        1.22470
C          3.02500        0.86350        1.75690
C          2.91390        2.35440        2.07690
C         -0.22780        0.62480        1.87210
C         -0.09010       -0.27700        3.09920
C         -6.14920       -1.28600        2.39080
C         -7.45760       -1.34180        1.99760
C         -7.95920       -1.02630        0.63980
O         -7.32840       -0.56980       -0.29140
C         -9.41490       -1.24490        0.68870
C        -10.30890       -1.14180       -0.37340
C        -11.61420       -1.40200       -0.03250
C        -12.00300       -1.73510        1.27220
C        -11.13090       -1.83770        2.32930
C         -9.79620       -1.57820        2.00330
C         -8.60080       -1.61420        2.84310
C         -8.57450       -1.93360        4.17760
C         -7.41070       -2.05930        4.96360
N         -6.51310       -2.20450        5.66600
C         -9.71730       -2.19270        4.96190
N        -10.59820       -2.40640        5.66710
C        -13.45910       -1.84730        0.89550
C        -14.39570       -0.67670        1.28420
C        -13.53050        0.55650        1.36340
C        -13.16170        0.87230        0.12920
C        -13.77150       -0.14160       -0.80710
C        -15.08640       -0.43640       -0.06770
C        -13.02600       -1.47630       -0.55800
H          9.01850        2.29960        1.92480
H         10.05060        0.40950       -0.83900
H         11.82480        0.36960       -2.54690
H         11.42340        1.33510       -4.77450
H         10.05100        2.67570       -6.23090
H          8.50730        3.32150       -5.65540
H          7.42440        1.11280       -6.08470
H          8.15630        1.75970       -7.55730
H          8.96230        0.46930       -6.65940
H          7.44880        2.35630       -3.61410
H         -5.41540       -1.76810       -2.30600
H         -7.16900       -3.05410       -3.46200
H         -8.57250       -4.64030       -2.20550
H         -9.37700       -5.38340       -0.00930
H         -8.44990       -5.03530        1.45570
H         -8.31690       -7.44970        0.87930
H         -6.72340       -6.69650        0.75810
H         -7.64480       -7.04500       -0.70450
H         -6.34280       -3.81030        1.33100
H          2.23900        0.28650        2.23400
H          3.98340        0.49680        2.14010
H          3.80410        2.87690        1.73750
H          2.82210        2.49470        3.15010
H          2.05390        2.80590        1.58640
H          0.55280        1.37870        1.83170
H         -1.18860        1.14750        1.93270
H          0.76890       -0.93970        3.01580
H          0.01810        0.33110        3.99280
H         -0.97720       -0.89420        3.21110
H         -5.93280       -1.20650        3.44980
H         -9.96310       -0.88490       -1.36230
H        -11.44750       -2.09340        3.32660
H        -13.92070       -2.81920        1.05810
H        -15.03080       -0.87350        2.14370
H        -13.23740        1.02380        2.28520
H        -12.49820        1.65600       -0.18650
H        -13.83900        0.14960       -1.85210
H        -15.76030        0.41870       -0.05010
H        -15.61190       -1.31120       -0.44840
H        -13.20630       -2.20530       -1.34580
