
  xtb     02022209563D
 energy: -196.614087098501 gnorm: 0.000836270479 xtb: 6.4.1 (unknown)
100111  0     0  0            999 V2000
   -8.0474   -0.0522   -0.0047 C   0  0  0  0  0  0  0  0  0  0  0  0
   -8.4082   -0.7702   -1.1226 C   0  0  0  0  0  0  0  0  0  0  0  0
   -7.5078   -1.3029   -2.1403 C   0  0  0  0  0  0  0  0  0  0  0  0
   -6.2909   -1.3221   -2.1265 O   0  0  0  0  0  0  0  0  0  0  0  0
   -8.3754   -1.7929   -3.2355 C   0  0  0  0  0  0  0  0  0  0  0  0
   -8.0075   -2.2917   -4.4719 C   0  0  0  0  0  0  0  0  0  0  0  0
   -6.3727   -2.5740   -4.8690 Cl  0  0  0  0  0  0  0  0  0  0  0  0
   -9.0183   -2.5550   -5.4072 C   0  0  0  0  0  0  0  0  0  0  0  0
   -8.6172   -3.2080   -6.9360 Cl  0  0  0  0  0  0  0  0  0  0  0  0
  -10.3432   -2.2419   -5.1097 C   0  0  0  0  0  0  0  0  0  0  0  0
  -11.5456   -2.4735   -6.3041 Cl  0  0  0  0  0  0  0  0  0  0  0  0
  -10.7085   -1.7258   -3.8549 C   0  0  0  0  0  0  0  0  0  0  0  0
  -12.3243   -1.1945   -3.6347 Cl  0  0  0  0  0  0  0  0  0  0  0  0
   -9.7238   -1.5740   -2.8874 C   0  0  0  0  0  0  0  0  0  0  0  0
   -9.7663   -1.1143   -1.4999 C   0  0  0  0  0  0  0  0  0  0  0  0
  -10.8356   -1.2093   -0.6468 C   0  0  0  0  0  0  0  0  0  0  0  0
  -12.0370   -1.9064   -0.9002 C   0  0  0  0  0  0  0  0  0  0  0  0
  -12.9966   -2.5331   -0.9594 N   0  0  0  0  0  0  0  0  0  0  0  0
  -10.8276   -0.7789    0.6978 C   0  0  0  0  0  0  0  0  0  0  0  0
  -10.9096   -0.4463    1.7942 N   0  0  0  0  0  0  0  0  0  0  0  0
   -6.7906    0.2947    0.4929 C   0  0  0  0  0  0  0  0  0  0  0  0
   -6.6062    1.0749    1.6516 C   0  0  0  0  0  0  0  0  0  0  0  0
   -7.6877    1.6226    2.5233 C   0  0  0  0  0  0  0  0  0  0  0  0
   -8.1422    0.5803    3.5490 C   0  0  0  0  0  0  0  0  0  0  0  0
   -5.2604    1.2439    1.9398 C   0  0  0  0  0  0  0  0  0  0  0  0
   -4.4243    2.0975    3.2253 S   0  0  0  0  0  0  0  0  0  0  0  0
   -2.9215    1.6195    2.5198 C   0  0  0  0  0  0  0  0  0  0  0  0
   -1.5489    1.7457    2.7646 C   0  0  0  0  0  0  0  0  0  0  0  0
   -0.9001    2.3733    3.8598 C   0  0  0  0  0  0  0  0  0  0  0  0
    0.5111    2.3076    3.9193 C   0  0  0  0  0  0  0  0  0  0  0  0
    1.1871    2.8442    4.9413 N   0  0  0  0  0  0  0  0  0  0  0  0
    0.4734    3.4355    5.8752 C   0  0  0  0  0  0  0  0  0  0  0  0
   -0.9229    3.5104    5.8103 C   0  0  0  0  0  0  0  0  0  0  0  0
   -1.6068    2.9855    4.8164 N   0  0  0  0  0  0  0  0  0  0  0  0
    1.1928    1.6787    2.8450 C   0  0  0  0  0  0  0  0  0  0  0  0
    2.5726    1.5669    2.6334 C   0  0  0  0  0  0  0  0  0  0  0  0
    4.0548    2.0008    3.4086 S   0  0  0  0  0  0  0  0  0  0  0  0
    4.9271    1.3390    2.0364 C   0  0  0  0  0  0  0  0  0  0  0  0
    6.2804    1.2401    1.7463 C   0  0  0  0  0  0  0  0  0  0  0  0
    7.3424    1.7850    2.6439 C   0  0  0  0  0  0  0  0  0  0  0  0
    7.7506    3.1953    2.2083 C   0  0  0  0  0  0  0  0  0  0  0  0
    6.4945    0.6321    0.4948 C   0  0  0  0  0  0  0  0  0  0  0  0
    4.9813    0.1800   -0.2932 S   0  0  0  0  0  0  0  0  0  0  0  0
    4.0887    0.8102    1.0382 C   0  0  0  0  0  0  0  0  0  0  0  0
    2.7442    0.9417    1.3935 C   0  0  0  0  0  0  0  0  0  0  0  0
    1.5254    0.6611    0.8401 N   0  0  0  0  0  0  0  0  0  0  0  0
    0.5476    1.0834    1.7176 C   0  0  0  0  0  0  0  0  0  0  0  0
   -0.8718    1.0582    1.7108 C   0  0  0  0  0  0  0  0  0  0  0  0
   -1.8246    0.5003    0.8829 N   0  0  0  0  0  0  0  0  0  0  0  0
   -3.0591    0.8477    1.3603 C   0  0  0  0  0  0  0  0  0  0  0  0
   -4.3941    0.6178    1.0231 C   0  0  0  0  0  0  0  0  0  0  0  0
   -5.2534   -0.2017   -0.2227 S   0  0  0  0  0  0  0  0  0  0  0  0
   -1.7470   -0.3998   -0.2445 C   0  0  0  0  0  0  0  0  0  0  0  0
   -1.9434    0.3326   -1.5716 C   0  0  0  0  0  0  0  0  0  0  0  0
    1.4848    0.0943   -0.4878 C   0  0  0  0  0  0  0  0  0  0  0  0
    1.7122   -1.4170   -0.4641 C   0  0  0  0  0  0  0  0  0  0  0  0
    7.7676    0.4324   -0.0443 C   0  0  0  0  0  0  0  0  0  0  0  0
    8.1659   -0.1102   -1.2437 C   0  0  0  0  0  0  0  0  0  0  0  0
    7.2885   -0.6518   -2.2840 C   0  0  0  0  0  0  0  0  0  0  0  0
    6.0713   -0.7304   -2.2678 O   0  0  0  0  0  0  0  0  0  0  0  0
    8.1733   -1.0988   -3.3739 C   0  0  0  0  0  0  0  0  0  0  0  0
    7.8388   -1.6767   -4.5834 C   0  0  0  0  0  0  0  0  0  0  0  0
    8.8572   -2.0113   -5.4615 C   0  0  0  0  0  0  0  0  0  0  0  0
   10.1794   -1.7621   -5.1122 C   0  0  0  0  0  0  0  0  0  0  0  0
   11.4320   -2.1821   -6.2175 Cl  0  0  0  0  0  0  0  0  0  0  0  0
   10.5289   -1.1823   -3.8956 C   0  0  0  0  0  0  0  0  0  0  0  0
    9.5105   -0.8493   -3.0195 C   0  0  0  0  0  0  0  0  0  0  0  0
    9.5384   -0.2371   -1.6887 C   0  0  0  0  0  0  0  0  0  0  0  0
   10.6749    0.1342   -1.0170 C   0  0  0  0  0  0  0  0  0  0  0  0
   10.7237    0.7252    0.2628 C   0  0  0  0  0  0  0  0  0  0  0  0
   10.8565    1.2070    1.2978 N   0  0  0  0  0  0  0  0  0  0  0  0
   11.9829   -0.0250   -1.5223 C   0  0  0  0  0  0  0  0  0  0  0  0
   13.0727   -0.1279   -1.8681 N   0  0  0  0  0  0  0  0  0  0  0  0
   -8.8660    0.3359    0.5869 H   0  0  0  0  0  0  0  0  0  0  0  0
   -8.5436    1.9469    1.9302 H   0  0  0  0  0  0  0  0  0  0  0  0
   -7.2879    2.4908    3.0515 H   0  0  0  0  0  0  0  0  0  0  0  0
   -7.2980    0.2476    4.1480 H   0  0  0  0  0  0  0  0  0  0  0  0
   -8.8880    1.0155    4.2076 H   0  0  0  0  0  0  0  0  0  0  0  0
   -8.5855   -0.2804    3.0551 H   0  0  0  0  0  0  0  0  0  0  0  0
    1.0256    3.8646    6.6996 H   0  0  0  0  0  0  0  0  0  0  0  0
   -1.4997    4.0042    6.5799 H   0  0  0  0  0  0  0  0  0  0  0  0
    6.9413    1.8285    3.6583 H   0  0  0  0  0  0  0  0  0  0  0  0
    8.2219    1.1396    2.6508 H   0  0  0  0  0  0  0  0  0  0  0  0
    8.1545    3.1857    1.1987 H   0  0  0  0  0  0  0  0  0  0  0  0
    8.5128    3.5807    2.8791 H   0  0  0  0  0  0  0  0  0  0  0  0
    6.8918    3.8620    2.2332 H   0  0  0  0  0  0  0  0  0  0  0  0
   -2.5560   -1.1286   -0.1305 H   0  0  0  0  0  0  0  0  0  0  0  0
   -0.8070   -0.9435   -0.2144 H   0  0  0  0  0  0  0  0  0  0  0  0
   -1.2673    1.1804   -1.6649 H   0  0  0  0  0  0  0  0  0  0  0  0
   -2.9622    0.7030   -1.6445 H   0  0  0  0  0  0  0  0  0  0  0  0
   -1.7709   -0.3514   -2.3975 H   0  0  0  0  0  0  0  0  0  0  0  0
    0.5492    0.3583   -0.9721 H   0  0  0  0  0  0  0  0  0  0  0  0
    2.2968    0.5557   -1.0591 H   0  0  0  0  0  0  0  0  0  0  0  0
    2.7260   -1.6341   -0.1387 H   0  0  0  0  0  0  0  0  0  0  0  0
    1.0242   -1.9144    0.2171 H   0  0  0  0  0  0  0  0  0  0  0  0
    1.5800   -1.8247   -1.4620 H   0  0  0  0  0  0  0  0  0  0  0  0
    8.5626    0.7770    0.6025 H   0  0  0  0  0  0  0  0  0  0  0  0
    6.8042   -1.8583   -4.8296 H   0  0  0  0  0  0  0  0  0  0  0  0
    8.6349   -2.4632   -6.4151 H   0  0  0  0  0  0  0  0  0  0  0  0
   11.5668   -1.0075   -3.6663 H   0  0  0  0  0  0  0  0  0  0  0  0
  1  2  2  0  0  0  0
  2  3  1  0  0  0  0
  3  4  2  0  0  0  0
  3  5  1  0  0  0  0
  5  6  2  0  0  0  0
  6  7  1  0  0  0  0
  6  8  1  0  0  0  0
  8  9  1  0  0  0  0
  8 10  2  0  0  0  0
 10 11  1  0  0  0  0
 10 12  1  0  0  0  0
 12 13  1  0  0  0  0
 12 14  2  0  0  0  0
 14 15  1  0  0  0  0
 15 16  2  0  0  0  0
 16 17  1  0  0  0  0
 17 18  3  0  0  0  0
 16 19  1  0  0  0  0
 19 20  3  0  0  0  0
  1 21  1  0  0  0  0
 21 22  2  0  0  0  0
 22 23  1  0  0  0  0
 23 24  1  0  0  0  0
 22 25  1  0  0  0  0
 25 26  1  0  0  0  0
 26 27  1  0  0  0  0
 27 28  1  0  0  0  0
 28 29  2  0  0  0  0
 29 30  1  0  0  0  0
 30 31  1  0  0  0  0
 31 32  2  0  0  0  0
 32 33  1  0  0  0  0
 33 34  2  0  0  0  0
 30 35  2  0  0  0  0
 35 36  1  0  0  0  0
 36 37  1  0  0  0  0
 37 38  1  0  0  0  0
 38 39  1  0  0  0  0
 39 40  1  0  0  0  0
 40 41  1  0  0  0  0
 39 42  2  0  0  0  0
 42 43  1  0  0  0  0
 43 44  1  0  0  0  0
 44 45  1  0  0  0  0
 45 46  1  0  0  0  0
 46 47  1  0  0  0  0
 47 48  2  0  0  0  0
 48 49  1  0  0  0  0
 49 50  1  0  0  0  0
 50 51  1  0  0  0  0
 51 52  1  0  0  0  0
 49 53  1  0  0  0  0
 53 54  1  0  0  0  0
 46 55  1  0  0  0  0
 55 56  1  0  0  0  0
 42 57  1  0  0  0  0
 57 58  2  0  0  0  0
 58 59  1  0  0  0  0
 59 60  2  0  0  0  0
 59 61  1  0  0  0  0
 61 62  2  0  0  0  0
 62 63  1  0  0  0  0
 63 64  2  0  0  0  0
 64 65  1  0  0  0  0
 64 66  1  0  0  0  0
 66 67  2  0  0  0  0
 67 68  1  0  0  0  0
 68 69  2  0  0  0  0
 69 70  1  0  0  0  0
 70 71  3  0  0  0  0
 69 72  1  0  0  0  0
 72 73  3  0  0  0  0
 15  2  1  0  0  0  0
 52 21  1  0  0  0  0
 68 58  1  0  0  0  0
 14  5  1  0  0  0  0
 51 25  2  0  0  0  0
 67 61  1  0  0  0  0
 50 27  2  0  0  0  0
 48 28  1  0  0  0  0
 34 29  1  0  0  0  0
 47 35  1  0  0  0  0
 45 36  2  0  0  0  0
 44 38  2  0  0  0  0
  1 74  1  0  0  0  0
 23 75  1  0  0  0  0
 23 76  1  0  0  0  0
 24 77  1  0  0  0  0
 24 78  1  0  0  0  0
 24 79  1  0  0  0  0
 32 80  1  0  0  0  0
 33 81  1  0  0  0  0
 40 82  1  0  0  0  0
 40 83  1  0  0  0  0
 41 84  1  0  0  0  0
 41 85  1  0  0  0  0
 41 86  1  0  0  0  0
 53 87  1  0  0  0  0
 53 88  1  0  0  0  0
 54 89  1  0  0  0  0
 54 90  1  0  0  0  0
 54 91  1  0  0  0  0
 55 92  1  0  0  0  0
 55 93  1  0  0  0  0
 56 94  1  0  0  0  0
 56 95  1  0  0  0  0
 56 96  1  0  0  0  0
 57 97  1  0  0  0  0
 62 98  1  0  0  0  0
 63 99  1  0  0  0  0
 66100  1  0  0  0  0
M  END
