121

C          7.08210       -4.24480       -1.28270
C          7.95350       -3.77930       -0.32050
C          7.70370       -2.68380        0.61000
O          6.75960       -1.91500        0.62540
C          8.83310       -2.69190        1.56750
C          9.01080       -1.92170        2.70210
Cl         7.94730       -0.64500        3.08930
C         10.09080       -2.22310        3.54380
Cl        10.37460       -1.27690        4.93970
C         10.90320       -3.32130        3.27000
Cl        12.14860       -3.73440        4.36810
C         10.71050       -4.10520        2.12000
Cl        11.62840       -5.54510        1.95710
C          9.71550       -3.73560        1.22440
C          9.28380       -4.29290       -0.05750
C         10.07600       -4.98700       -0.93540
C          9.64940       -5.50880       -2.17450
N          9.40090       -5.98000       -3.19190
C         11.47760       -5.13000       -0.84100
N         12.62010       -5.20370       -0.92220
C          5.77710       -3.85330       -1.58400
C          4.98520       -4.51740       -2.54700
C          5.45290       -5.54380       -3.47670
C          4.72670       -6.72470       -3.61990
C          5.13340       -7.67360       -4.53700
C          6.24360       -7.44500       -5.33190
C          6.96950       -6.26630       -5.21630
C          8.13040       -5.98300       -6.12250
C          7.67760       -5.15740       -7.32810
C          6.56920       -5.32500       -4.27930
C          3.67640       -4.05000       -2.54310
S          2.26270       -4.46900       -3.49200
C          1.37710       -3.23580       -2.66260
C          0.09660       -2.66140       -2.66910
C         -1.02940       -2.82030       -3.51110
C         -2.14380       -1.91900       -3.37100
N         -3.08170       -2.13640       -4.27830
S         -2.61700       -3.36800       -5.21940
N         -1.19430       -3.67220       -4.50960
C         -2.15640       -0.99670       -2.29840
C         -3.11190       -0.08250       -1.82560
S         -4.65050        0.56070       -2.28710
C         -4.63930        1.54580       -0.83690
C         -5.51610        2.50950       -0.34460
C         -6.74130        2.90210       -1.03800
C         -7.61190        1.91790       -1.50120
C         -8.76680        2.27920       -2.16710
C         -9.05690        3.61400       -2.38710
C         -8.19110        4.60910       -1.95050
C         -8.47820        6.05240       -2.24170
C         -7.92970        6.44110       -3.61580
C         -7.03410        4.24160       -1.28180
C         -5.05580        3.05380        0.87060
S         -3.49940        2.38120        1.35370
C         -3.49730        1.36530       -0.04130
C         -2.62570        0.43660       -0.61630
N         -1.39650       -0.10390       -0.33190
C         -1.07780       -0.95160       -1.37380
C          0.10860       -1.65820       -1.66130
N          1.36760       -1.57830       -1.10250
C          2.13640       -2.54380       -1.70540
C          3.45210       -3.00100       -1.63300
S          4.86770       -2.59570       -0.73860
C          1.99320       -0.39660       -0.54120
C          2.79990        0.35420       -1.59980
C         -0.94310       -0.21650        1.04090
C         -1.96380       -0.96520        1.89730
C         -5.81360        3.96220        1.61990
C         -5.53100        4.60340        2.80090
C         -4.29670        4.46270        3.58660
O         -3.33700        3.75950        3.32040
C         -4.45850        5.33360        4.75780
C         -3.57120        5.55480        5.81500
O         -2.39940        4.90050        5.79340
C         -1.48010        5.10030        6.84130
C         -3.98040        6.44530        6.81540
C         -5.21250        7.06910        6.74690
C         -6.09480        6.84760        5.69740
C         -5.70910        5.97160        4.69780
C         -6.40080        5.53630        3.48250
C         -7.64180        5.96780        3.08830
C         -8.42950        6.89220        3.80630
N         -9.12780        7.64000        4.32760
C         -8.32830        5.58220        1.91810
N         -8.96740        5.34490        0.99290
H          7.42300       -5.08600       -1.87530
H          3.86160       -6.89960       -2.99810
H          4.57750       -8.59400       -4.63690
H          6.54880       -8.18850       -6.05370
H          8.56380       -6.92210       -6.46890
H          8.89670       -5.43730       -5.57160
H          6.92460       -5.69760       -7.89820
H          7.24600       -4.21310       -7.00310
H          8.52130       -4.94610       -7.98080
H          7.11330       -4.39520       -4.19330
H         -7.39070        0.87770       -1.31520
H         -9.44550        1.51420       -2.51390
H         -9.96470        3.88920       -2.90370
H         -9.55560        6.22090       -2.21970
H         -8.02240        6.68080       -1.47500
H         -6.85220        6.29430       -3.65010
H         -8.14470        7.48550       -3.82940
H         -8.38180        5.82750       -4.39200
H         -6.33720        5.00540       -0.96500
H          2.65250       -0.70760        0.27470
H          1.22440        0.27100       -0.15890
H          3.21170        1.25980       -1.16400
H          3.62130       -0.25310       -1.96850
H          2.16020        0.62730       -2.43670
H         -0.79080        0.78890        1.44530
H         -0.00610       -0.77060        1.06140
H         -1.56520       -1.09950        2.89880
H         -2.17040       -1.94370        1.46810
H         -2.89380       -0.40920        1.96990
H         -6.78060        4.17030        1.17780
H         -0.62590        4.46930        6.60270
H         -1.15490        6.14390        6.89680
H         -1.89730        4.79510        7.80600
H         -3.33610        6.65510        7.65430
H         -5.49650        7.74960        7.53550
H         -7.04600        7.35070        5.67990
