
  xtb     02022212413D
 energy: -227.525120447314 gnorm: 0.000679627336 xtb: 6.4.1 (unknown)
121134  0     0  0            999 V2000
    7.0821   -4.2448   -1.2827 C   0  0  0  0  0  0  0  0  0  0  0  0
    7.9535   -3.7793   -0.3205 C   0  0  0  0  0  0  0  0  0  0  0  0
    7.7037   -2.6838    0.6100 C   0  0  0  0  0  0  0  0  0  0  0  0
    6.7596   -1.9150    0.6254 O   0  0  0  0  0  0  0  0  0  0  0  0
    8.8331   -2.6919    1.5675 C   0  0  0  0  0  0  0  0  0  0  0  0
    9.0108   -1.9217    2.7021 C   0  0  0  0  0  0  0  0  0  0  0  0
    7.9473   -0.6450    3.0893 Cl  0  0  0  0  0  0  0  0  0  0  0  0
   10.0908   -2.2231    3.5438 C   0  0  0  0  0  0  0  0  0  0  0  0
   10.3746   -1.2769    4.9397 Cl  0  0  0  0  0  0  0  0  0  0  0  0
   10.9032   -3.3213    3.2700 C   0  0  0  0  0  0  0  0  0  0  0  0
   12.1486   -3.7344    4.3681 Cl  0  0  0  0  0  0  0  0  0  0  0  0
   10.7105   -4.1052    2.1200 C   0  0  0  0  0  0  0  0  0  0  0  0
   11.6284   -5.5451    1.9571 Cl  0  0  0  0  0  0  0  0  0  0  0  0
    9.7155   -3.7356    1.2244 C   0  0  0  0  0  0  0  0  0  0  0  0
    9.2838   -4.2929   -0.0575 C   0  0  0  0  0  0  0  0  0  0  0  0
   10.0760   -4.9870   -0.9354 C   0  0  0  0  0  0  0  0  0  0  0  0
    9.6494   -5.5088   -2.1745 C   0  0  0  0  0  0  0  0  0  0  0  0
    9.4009   -5.9800   -3.1919 N   0  0  0  0  0  0  0  0  0  0  0  0
   11.4776   -5.1300   -0.8410 C   0  0  0  0  0  0  0  0  0  0  0  0
   12.6201   -5.2037   -0.9222 N   0  0  0  0  0  0  0  0  0  0  0  0
    5.7771   -3.8533   -1.5840 C   0  0  0  0  0  0  0  0  0  0  0  0
    4.9852   -4.5174   -2.5470 C   0  0  0  0  0  0  0  0  0  0  0  0
    5.4529   -5.5438   -3.4767 C   0  0  0  0  0  0  0  0  0  0  0  0
    4.7267   -6.7247   -3.6199 C   0  0  0  0  0  0  0  0  0  0  0  0
    5.1334   -7.6736   -4.5370 C   0  0  0  0  0  0  0  0  0  0  0  0
    6.2436   -7.4450   -5.3319 C   0  0  0  0  0  0  0  0  0  0  0  0
    6.9695   -6.2663   -5.2163 C   0  0  0  0  0  0  0  0  0  0  0  0
    8.1304   -5.9830   -6.1225 C   0  0  0  0  0  0  0  0  0  0  0  0
    7.6776   -5.1574   -7.3281 C   0  0  0  0  0  0  0  0  0  0  0  0
    6.5692   -5.3250   -4.2793 C   0  0  0  0  0  0  0  0  0  0  0  0
    3.6764   -4.0500   -2.5431 C   0  0  0  0  0  0  0  0  0  0  0  0
    2.2627   -4.4690   -3.4920 S   0  0  0  0  0  0  0  0  0  0  0  0
    1.3771   -3.2358   -2.6626 C   0  0  0  0  0  0  0  0  0  0  0  0
    0.0966   -2.6614   -2.6691 C   0  0  0  0  0  0  0  0  0  0  0  0
   -1.0294   -2.8203   -3.5111 C   0  0  0  0  0  0  0  0  0  0  0  0
   -2.1438   -1.9190   -3.3710 C   0  0  0  0  0  0  0  0  0  0  0  0
   -3.0817   -2.1364   -4.2783 N   0  0  0  0  0  0  0  0  0  0  0  0
   -2.6170   -3.3680   -5.2194 S   0  0  0  0  0  0  0  0  0  0  0  0
   -1.1943   -3.6722   -4.5096 N   0  0  0  0  0  0  0  0  0  0  0  0
   -2.1564   -0.9967   -2.2984 C   0  0  0  0  0  0  0  0  0  0  0  0
   -3.1119   -0.0825   -1.8256 C   0  0  0  0  0  0  0  0  0  0  0  0
   -4.6505    0.5607   -2.2871 S   0  0  0  0  0  0  0  0  0  0  0  0
   -4.6393    1.5458   -0.8369 C   0  0  0  0  0  0  0  0  0  0  0  0
   -5.5161    2.5095   -0.3446 C   0  0  0  0  0  0  0  0  0  0  0  0
   -6.7413    2.9021   -1.0380 C   0  0  0  0  0  0  0  0  0  0  0  0
   -7.6119    1.9179   -1.5012 C   0  0  0  0  0  0  0  0  0  0  0  0
   -8.7668    2.2792   -2.1671 C   0  0  0  0  0  0  0  0  0  0  0  0
   -9.0569    3.6140   -2.3871 C   0  0  0  0  0  0  0  0  0  0  0  0
   -8.1911    4.6091   -1.9505 C   0  0  0  0  0  0  0  0  0  0  0  0
   -8.4782    6.0524   -2.2417 C   0  0  0  0  0  0  0  0  0  0  0  0
   -7.9297    6.4411   -3.6158 C   0  0  0  0  0  0  0  0  0  0  0  0
   -7.0341    4.2416   -1.2818 C   0  0  0  0  0  0  0  0  0  0  0  0
   -5.0558    3.0538    0.8706 C   0  0  0  0  0  0  0  0  0  0  0  0
   -3.4994    2.3812    1.3537 S   0  0  0  0  0  0  0  0  0  0  0  0
   -3.4973    1.3653   -0.0413 C   0  0  0  0  0  0  0  0  0  0  0  0
   -2.6257    0.4366   -0.6163 C   0  0  0  0  0  0  0  0  0  0  0  0
   -1.3965   -0.1039   -0.3319 N   0  0  0  0  0  0  0  0  0  0  0  0
   -1.0778   -0.9516   -1.3738 C   0  0  0  0  0  0  0  0  0  0  0  0
    0.1086   -1.6582   -1.6613 C   0  0  0  0  0  0  0  0  0  0  0  0
    1.3676   -1.5783   -1.1025 N   0  0  0  0  0  0  0  0  0  0  0  0
    2.1364   -2.5438   -1.7054 C   0  0  0  0  0  0  0  0  0  0  0  0
    3.4521   -3.0010   -1.6330 C   0  0  0  0  0  0  0  0  0  0  0  0
    4.8677   -2.5957   -0.7386 S   0  0  0  0  0  0  0  0  0  0  0  0
    1.9932   -0.3966   -0.5412 C   0  0  0  0  0  0  0  0  0  0  0  0
    2.7999    0.3542   -1.5998 C   0  0  0  0  0  0  0  0  0  0  0  0
   -0.9431   -0.2165    1.0409 C   0  0  0  0  0  0  0  0  0  0  0  0
   -1.9638   -0.9652    1.8973 C   0  0  0  0  0  0  0  0  0  0  0  0
   -5.8136    3.9622    1.6199 C   0  0  0  0  0  0  0  0  0  0  0  0
   -5.5310    4.6034    2.8009 C   0  0  0  0  0  0  0  0  0  0  0  0
   -4.2967    4.4627    3.5866 C   0  0  0  0  0  0  0  0  0  0  0  0
   -3.3370    3.7595    3.3204 O   0  0  0  0  0  0  0  0  0  0  0  0
   -4.4585    5.3336    4.7578 C   0  0  0  0  0  0  0  0  0  0  0  0
   -3.5712    5.5548    5.8150 C   0  0  0  0  0  0  0  0  0  0  0  0
   -2.3994    4.9005    5.7934 O   0  0  0  0  0  0  0  0  0  0  0  0
   -1.4801    5.1003    6.8413 C   0  0  0  0  0  0  0  0  0  0  0  0
   -3.9804    6.4453    6.8154 C   0  0  0  0  0  0  0  0  0  0  0  0
   -5.2125    7.0691    6.7469 C   0  0  0  0  0  0  0  0  0  0  0  0
   -6.0948    6.8476    5.6974 C   0  0  0  0  0  0  0  0  0  0  0  0
   -5.7091    5.9716    4.6978 C   0  0  0  0  0  0  0  0  0  0  0  0
   -6.4008    5.5363    3.4825 C   0  0  0  0  0  0  0  0  0  0  0  0
   -7.6418    5.9678    3.0883 C   0  0  0  0  0  0  0  0  0  0  0  0
   -8.4295    6.8922    3.8063 C   0  0  0  0  0  0  0  0  0  0  0  0
   -9.1278    7.6400    4.3276 N   0  0  0  0  0  0  0  0  0  0  0  0
   -8.3283    5.5822    1.9181 C   0  0  0  0  0  0  0  0  0  0  0  0
   -8.9674    5.3449    0.9929 N   0  0  0  0  0  0  0  0  0  0  0  0
    7.4230   -5.0860   -1.8753 H   0  0  0  0  0  0  0  0  0  0  0  0
    3.8616   -6.8996   -2.9981 H   0  0  0  0  0  0  0  0  0  0  0  0
    4.5775   -8.5940   -4.6369 H   0  0  0  0  0  0  0  0  0  0  0  0
    6.5488   -8.1885   -6.0537 H   0  0  0  0  0  0  0  0  0  0  0  0
    8.5638   -6.9221   -6.4689 H   0  0  0  0  0  0  0  0  0  0  0  0
    8.8967   -5.4373   -5.5716 H   0  0  0  0  0  0  0  0  0  0  0  0
    6.9246   -5.6976   -7.8982 H   0  0  0  0  0  0  0  0  0  0  0  0
    7.2460   -4.2131   -7.0031 H   0  0  0  0  0  0  0  0  0  0  0  0
    8.5213   -4.9461   -7.9808 H   0  0  0  0  0  0  0  0  0  0  0  0
    7.1133   -4.3952   -4.1933 H   0  0  0  0  0  0  0  0  0  0  0  0
   -7.3907    0.8777   -1.3152 H   0  0  0  0  0  0  0  0  0  0  0  0
   -9.4455    1.5142   -2.5139 H   0  0  0  0  0  0  0  0  0  0  0  0
   -9.9647    3.8892   -2.9037 H   0  0  0  0  0  0  0  0  0  0  0  0
   -9.5556    6.2209   -2.2197 H   0  0  0  0  0  0  0  0  0  0  0  0
   -8.0224    6.6808   -1.4750 H   0  0  0  0  0  0  0  0  0  0  0  0
   -6.8522    6.2943   -3.6501 H   0  0  0  0  0  0  0  0  0  0  0  0
   -8.1447    7.4855   -3.8294 H   0  0  0  0  0  0  0  0  0  0  0  0
   -8.3818    5.8275   -4.3920 H   0  0  0  0  0  0  0  0  0  0  0  0
   -6.3372    5.0054   -0.9650 H   0  0  0  0  0  0  0  0  0  0  0  0
    2.6525   -0.7076    0.2747 H   0  0  0  0  0  0  0  0  0  0  0  0
    1.2244    0.2710   -0.1589 H   0  0  0  0  0  0  0  0  0  0  0  0
    3.2117    1.2598   -1.1640 H   0  0  0  0  0  0  0  0  0  0  0  0
    3.6213   -0.2531   -1.9685 H   0  0  0  0  0  0  0  0  0  0  0  0
    2.1602    0.6273   -2.4367 H   0  0  0  0  0  0  0  0  0  0  0  0
   -0.7908    0.7889    1.4453 H   0  0  0  0  0  0  0  0  0  0  0  0
   -0.0061   -0.7706    1.0614 H   0  0  0  0  0  0  0  0  0  0  0  0
   -1.5652   -1.0995    2.8988 H   0  0  0  0  0  0  0  0  0  0  0  0
   -2.1704   -1.9437    1.4681 H   0  0  0  0  0  0  0  0  0  0  0  0
   -2.8938   -0.4092    1.9699 H   0  0  0  0  0  0  0  0  0  0  0  0
   -6.7806    4.1703    1.1778 H   0  0  0  0  0  0  0  0  0  0  0  0
   -0.6259    4.4693    6.6027 H   0  0  0  0  0  0  0  0  0  0  0  0
   -1.1549    6.1439    6.8968 H   0  0  0  0  0  0  0  0  0  0  0  0
   -1.8973    4.7951    7.8060 H   0  0  0  0  0  0  0  0  0  0  0  0
   -3.3361    6.6551    7.6543 H   0  0  0  0  0  0  0  0  0  0  0  0
   -5.4965    7.7496    7.5355 H   0  0  0  0  0  0  0  0  0  0  0  0
   -7.0460    7.3507    5.6799 H   0  0  0  0  0  0  0  0  0  0  0  0
  1  2  2  0  0  0  0
  2  3  1  0  0  0  0
  3  4  2  0  0  0  0
  3  5  1  0  0  0  0
  5  6  2  0  0  0  0
  6  7  1  0  0  0  0
  6  8  1  0  0  0  0
  8  9  1  0  0  0  0
  8 10  2  0  0  0  0
 10 11  1  0  0  0  0
 10 12  1  0  0  0  0
 12 13  1  0  0  0  0
 12 14  2  0  0  0  0
 14 15  1  0  0  0  0
 15 16  2  0  0  0  0
 16 17  1  0  0  0  0
 17 18  3  0  0  0  0
 16 19  1  0  0  0  0
 19 20  3  0  0  0  0
  1 21  1  0  0  0  0
 21 22  2  0  0  0  0
 22 23  1  0  0  0  0
 23 24  2  0  0  0  0
 24 25  1  0  0  0  0
 25 26  2  0  0  0  0
 26 27  1  0  0  0  0
 27 28  1  0  0  0  0
 28 29  1  0  0  0  0
 27 30  2  0  0  0  0
 22 31  1  0  0  0  0
 31 32  1  0  0  0  0
 32 33  1  0  0  0  0
 33 34  1  0  0  0  0
 34 35  1  0  0  0  0
 35 36  1  0  0  0  0
 36 37  2  0  0  0  0
 37 38  1  0  0  0  0
 38 39  1  0  0  0  0
 36 40  1  0  0  0  0
 40 41  1  0  0  0  0
 41 42  1  0  0  0  0
 42 43  1  0  0  0  0
 43 44  1  0  0  0  0
 44 45  1  0  0  0  0
 45 46  2  0  0  0  0
 46 47  1  0  0  0  0
 47 48  2  0  0  0  0
 48 49  1  0  0  0  0
 49 50  1  0  0  0  0
 50 51  1  0  0  0  0
 49 52  2  0  0  0  0
 44 53  2  0  0  0  0
 53 54  1  0  0  0  0
 54 55  1  0  0  0  0
 55 56  1  0  0  0  0
 56 57  1  0  0  0  0
 57 58  1  0  0  0  0
 58 59  1  0  0  0  0
 59 60  1  0  0  0  0
 60 61  1  0  0  0  0
 61 62  1  0  0  0  0
 62 63  1  0  0  0  0
 60 64  1  0  0  0  0
 64 65  1  0  0  0  0
 57 66  1  0  0  0  0
 66 67  1  0  0  0  0
 53 68  1  0  0  0  0
 68 69  2  0  0  0  0
 69 70  1  0  0  0  0
 70 71  2  0  0  0  0
 70 72  1  0  0  0  0
 72 73  2  0  0  0  0
 73 74  1  0  0  0  0
 74 75  1  0  0  0  0
 73 76  1  0  0  0  0
 76 77  2  0  0  0  0
 77 78  1  0  0  0  0
 78 79  2  0  0  0  0
 79 80  1  0  0  0  0
 80 81  2  0  0  0  0
 81 82  1  0  0  0  0
 82 83  3  0  0  0  0
 81 84  1  0  0  0  0
 84 85  3  0  0  0  0
 15  2  1  0  0  0  0
 63 21  1  0  0  0  0
 80 69  1  0  0  0  0
 14  5  1  0  0  0  0
 30 23  1  0  0  0  0
 62 31  2  0  0  0  0
 79 72  1  0  0  0  0
 61 33  2  0  0  0  0
 59 34  2  0  0  0  0
 39 35  2  0  0  0  0
 58 40  2  0  0  0  0
 56 41  2  0  0  0  0
 55 43  2  0  0  0  0
 52 45  1  0  0  0  0
  1 86  1  0  0  0  0
 24 87  1  0  0  0  0
 25 88  1  0  0  0  0
 26 89  1  0  0  0  0
 28 90  1  0  0  0  0
 28 91  1  0  0  0  0
 29 92  1  0  0  0  0
 29 93  1  0  0  0  0
 29 94  1  0  0  0  0
 30 95  1  0  0  0  0
 46 96  1  0  0  0  0
 47 97  1  0  0  0  0
 48 98  1  0  0  0  0
 50 99  1  0  0  0  0
 50100  1  0  0  0  0
 51101  1  0  0  0  0
 51102  1  0  0  0  0
 51103  1  0  0  0  0
 52104  1  0  0  0  0
 64105  1  0  0  0  0
 64106  1  0  0  0  0
 65107  1  0  0  0  0
 65108  1  0  0  0  0
 65109  1  0  0  0  0
 66110  1  0  0  0  0
 66111  1  0  0  0  0
 67112  1  0  0  0  0
 67113  1  0  0  0  0
 67114  1  0  0  0  0
 68115  1  0  0  0  0
 75116  1  0  0  0  0
 75117  1  0  0  0  0
 75118  1  0  0  0  0
 76119  1  0  0  0  0
 77120  1  0  0  0  0
 78121  1  0  0  0  0
M  END
