120

C          0.31390       -3.91870       -7.20130
C         -0.14310       -5.18400       -6.91210
C         -0.45550       -5.70670       -5.58670
O         -0.48600       -5.09770       -4.53290
C         -0.70720       -7.15410       -5.77040
C         -0.94850       -8.11830       -4.80870
Cl        -1.16210       -7.70620       -3.16710
C         -1.00540       -9.45910       -5.21520
Cl        -1.33920      -10.68430       -4.07010
C         -0.74370       -9.79760       -6.54140
Cl        -0.71090      -11.44770       -6.99210
C         -0.49180       -8.81300       -7.51150
Cl         0.00260       -9.32060       -9.07350
C         -0.55360       -7.47770       -7.13450
C         -0.38890       -6.23200       -7.88320
C         -0.63390       -6.04530       -9.21970
C         -0.47140       -4.82250       -9.90790
N         -0.35150       -3.88130      -10.55540
C         -1.24910       -6.97810      -10.08270
N         -1.83680       -7.61770      -10.83280
C          0.54580       -2.82340       -6.36930
C          1.07310       -1.60580       -6.85090
C          1.55540       -1.40630       -8.21490
C          1.12320       -0.30350       -8.94830
C          1.55000       -0.13660      -10.25070
C          2.41430       -1.05180      -10.82700
C          2.88190       -2.13920      -10.10070
C          3.80790       -3.14740      -10.71790
C          3.05940       -4.44200      -11.04050
C          2.44650       -2.30540       -8.79460
C          1.07520       -0.62580       -5.86540
S          1.62870        1.03720       -5.84780
C          1.20820        1.12520       -4.17200
C          1.30850        2.02280       -3.10130
C          1.94870        3.27820       -2.99100
C          2.09260        3.87240       -1.69230
N          2.78290        5.00100       -1.72690
S          3.20820        5.29670       -3.26040
N          2.53180        3.99250       -3.94000
C          1.46800        3.25620       -0.58460
C          1.35660        3.64570        0.75940
S          1.92680        4.88810        1.82060
C          0.99030        4.17960        3.11830
C          0.83470        4.50500        4.47320
C          1.51670        5.60750        5.14400
C          1.61690        6.85100        4.52270
C          2.24850        7.89470        5.17060
C          2.78220        7.71430        6.43540
C          2.71150        6.47620        7.06190
C          3.24360        6.27600        8.45080
C          2.12110        6.45170        9.47690
C          2.08560        5.42920        6.40300
C         -0.04160        3.62000        5.10790
S         -0.62580        2.36170        4.02370
C          0.27890        3.03850        2.72250
C          0.49940        2.72960        1.37800
N          0.09940        1.77210        0.48250
C          0.70510        2.06240       -0.72870
C          0.75000        1.36770       -1.96400
N          0.37550        0.09290       -2.33170
C          0.65000       -0.05720       -3.66520
C          0.58260       -1.07040       -4.62410
S          0.10720       -2.72700       -4.66580
C          0.08150       -1.06590       -1.51700
C         -1.36040       -1.54380       -1.69110
C         -1.14360        1.07400        0.73670
C         -2.33550        2.02610        0.64330
C         -0.50380        3.71210        6.43160
C         -1.31390        2.85010        7.09900
S         -2.01420        1.36590        6.48660
C         -2.81930        1.08260        8.01430
C         -3.65230        0.00910        8.19720
C         -4.37860       -0.25580        9.37160
N         -5.00980       -0.53230       10.29020
C         -3.84560       -0.90490        7.14280
N         -3.99600       -1.64480        6.27880
N         -2.52630        2.04860        8.92290
C         -3.00670        2.01340       10.26750
C         -2.40430        1.16480       11.18370
C         -2.87470        1.13250       12.48320
C         -3.92940        1.94630       12.86030
C         -4.51130        2.80430       11.94310
C         -4.05060        2.84450       10.63970
C         -1.69800        3.07780        8.48850
O         -1.35170        4.00300        9.18630
H          0.55650       -3.72290       -8.23850
H          0.43540        0.39870       -8.50230
H          1.20170        0.70960      -10.82360
H          2.73510       -0.91680      -11.84940
H          4.62730       -3.36710      -10.02910
H          4.23490       -2.74010      -11.63560
H          2.19800       -4.23260      -11.67020
H          2.70400       -4.91630      -10.12780
H          3.71280       -5.13950      -11.55910
H          2.82740       -3.12950       -8.20690
H          1.18250        6.99950        3.54590
H          2.32010        8.85800        4.68830
H          3.26620        8.53900        6.93790
H          3.66410        5.27270        8.54580
H          4.03510        6.99970        8.65370
H          1.32950        5.72350        9.31400
H          2.50670        6.32070       10.48500
H          1.68990        7.44710        9.39780
H          2.06710        4.45180        6.86360
H          0.75170       -1.87200       -1.83520
H          0.31640       -0.83430       -0.47720
H         -2.07080       -0.72500       -1.59750
H         -1.49010       -1.98960       -2.67300
H         -1.58950       -2.29800       -0.94380
H         -1.08690        0.64830        1.74300
H         -1.27800        0.27380        0.02030
H         -2.25140        2.82650        1.37370
H         -2.39040        2.46660       -0.35020
H         -3.25380        1.47880        0.83640
H         -0.19300        4.58220        6.99770
H         -1.58370        0.53300       10.87640
H         -2.41770        0.46770       13.19970
H         -4.29860        1.91190       13.87380
H         -5.33020        3.44170       12.23890
H         -4.49540        3.50790        9.91330
