171

C          6.17880       -5.45360        6.39680
C          7.35810       -6.14290        6.50380
C          8.21710       -6.69140        5.43690
O          8.18930       -6.46860        4.24690
C          9.14180       -7.62970        6.12030
C         10.05760       -8.49960        5.55420
Cl        10.36950       -8.50270        3.87710
C         10.72610       -9.39850        6.39800
Cl        11.88850      -10.47130        5.74990
C         10.41380       -9.44950        7.75570
Cl        11.16840      -10.62270        8.74490
C          9.48150       -8.56590        8.32330
Cl         9.02150       -8.80170        9.95830
C          8.89780       -7.60540        7.50750
C          7.94690       -6.53150        7.77780
C          7.81280       -5.84040        8.95160
C          6.93600       -4.74700        9.13940
N          6.25880       -3.85120        9.37670
C          8.64540       -5.97110       10.08520
N          9.32260       -5.92780       11.01030
C          5.49380       -4.94400        5.28100
C          5.82630       -4.85690        3.93590
C          4.83890       -4.22470        3.19850
S          4.69040       -3.80940        1.51340
C          3.15500       -3.08920        1.84750
C          2.16790       -2.40320        1.07320
C          2.15280       -2.02950       -0.26900
C          1.06490       -1.31310       -0.70800
C          0.81070       -0.74830       -2.09200
C          0.87790       -1.81370       -3.16320
C         -0.26600       -2.49220       -3.55640
C         -0.21800       -3.39910       -4.59880
C          0.97490       -3.65080       -5.25840
C          1.02100       -4.52800       -6.48080
O          1.40490       -3.81020       -7.64730
C          0.51100       -2.84080       -8.05320
O          0.53390       -1.73090       -7.19190
C         -0.31320       -0.69080       -7.61540
C          2.13230       -3.01930       -4.82040
C          2.08580       -2.11050       -3.78280
C          1.66500        0.46750       -2.42440
C          1.67410        0.94230       -3.73200
C          2.25070        2.15960       -4.02670
C          2.81560        2.93450       -3.02100
C          3.28350        4.32900       -3.33900
O          2.23590        5.13840       -3.86480
C          1.19640        5.38130       -2.99660
O          0.40460        4.23210       -2.80470
C         -0.69960        4.45820       -1.97140
C          2.85120        2.43610       -1.72840
C          2.27950        1.21190       -1.42910
C         -0.55920       -0.15510       -1.90430
C         -0.97080       -0.26530       -0.58850
C         -0.00020       -0.99240        0.17150
C          0.01610       -1.36520        1.51210
C          1.10940       -2.07470        1.95190
C          1.41690       -2.52620        3.37060
C          0.47970       -3.57930        3.92500
C         -0.38140       -4.29370        3.10540
C         -1.19670       -5.27780        3.63760
C         -1.14870       -5.57960        4.99040
C         -2.02390       -6.65630        5.58590
O         -2.53530       -6.32490        6.85890
C         -3.47090       -5.29710        6.82600
O         -3.84020       -5.04590        8.14000
C         -4.77920       -4.00690        8.25480
C         -0.27110       -4.87530        5.80700
C          0.53200       -3.88320        5.28130
C          1.43610       -1.25840        4.20550
C          0.25980       -0.79190        4.78040
C          0.22350        0.44370        5.39270
C          1.35710        1.24570        5.43010
C          1.25800        2.64830        5.96660
O          0.32320        3.44190        5.24070
C          0.62540        3.62320        3.91010
O          0.36530        2.45640        3.16600
C          0.66240        2.58690        1.80320
C          2.53980        0.76260        4.89210
C          2.58010       -0.47870        4.28340
C          2.76900       -3.15790        3.17790
C          3.72120       -3.80790        3.95640
S          3.91390       -4.21360        5.61220
S         -2.49360        0.49480       -0.26160
C         -2.59470        0.97440       -1.93630
C         -3.54620        1.65310       -2.68610
C         -3.17190        1.75860       -4.01730
S         -1.59840        1.01070       -4.32330
C         -1.47170        0.55320       -2.67920
C         -3.82230        2.26680       -5.15820
C         -5.00980        2.92510       -5.31520
C         -5.89250        3.50540       -4.27740
O         -5.81710        3.39520       -3.06990
C         -6.90110        4.29720       -5.00500
C         -7.91610        5.06740       -4.44160
C         -8.70770        5.71030       -5.36220
C         -8.50570        5.59540       -6.74450
C         -7.51220        4.83520       -7.31340
C         -6.69430        4.17240       -6.39320
C         -5.56320        3.27700       -6.61320
C         -5.16460        2.78860       -7.83130
C         -5.74720        3.15150       -9.06430
N         -6.16650        3.39700      -10.10480
C         -4.15910        1.82250       -8.04970
N         -3.38280        1.02040       -8.32380
C         -9.65530        6.51530       -7.06970
C         -9.32020        7.96770       -7.49010
C         -7.99210        8.30190       -6.85750
C         -8.18270        8.41110       -5.54950
C         -9.64340        8.15270       -5.27390
C        -10.26710        8.73410       -6.55280
C         -9.88040        6.64350       -5.53000
H          5.64950       -5.28490        7.32810
H          6.74650       -5.23960        3.53560
H          2.97120       -2.28210       -0.92500
H         -1.20790       -2.29420       -3.06510
H         -1.12470       -3.89510       -4.91530
H          0.04190       -5.00170       -6.64660
H          1.78350       -5.30480       -6.37690
H         -0.52410       -3.24460       -8.10550
H          0.82600       -2.54370       -9.06720
H         -0.02180       -0.31910       -8.60420
H         -0.21170        0.10550       -6.88190
H         -1.35880       -1.01550       -7.65700
H          3.06470       -3.21880       -5.32620
H          2.98570       -1.59840       -3.47390
H          1.21470        0.35970       -4.51690
H          2.22660        2.54120       -5.03570
H          4.04020        4.32140       -4.12780
H          3.70140        4.80740       -2.44090
H          0.59550        6.18330       -3.45610
H          1.56800        5.73410       -2.00860
H         -0.38430        4.82460       -0.98580
H         -1.39210        5.18560       -2.41220
H         -1.20220        3.50060       -1.85690
H          3.30380        3.01860       -0.93800
H          2.29030        0.85300       -0.41010
H         -0.79160       -1.09340        2.17350
H         -0.42470       -4.07810        2.04800
H         -1.87260       -5.81800        2.99010
H         -2.84650       -6.89820        4.89480
H         -1.43300       -7.56220        5.75510
H         -3.04140       -4.38210        6.35870
H         -4.35660       -5.59790        6.21790
H         -5.70630       -4.24680        7.71910
H         -4.98760       -3.90140        9.31650
H         -4.37890       -3.06410        7.86100
H         -0.23600       -5.10850        6.86040
H          1.20220       -3.33380        5.92630
H         -0.63430       -1.39670        4.73690
H         -0.69850        0.81590        5.81230
H          0.87750        2.65290        6.99120
H          2.24440        3.13460        5.94540
H          1.68990        3.91480        3.77210
H         -0.01690        4.44800        3.55870
H          0.05080        3.36620        1.33140
H          1.72180        2.82860        1.64850
H          0.43990        1.62460        1.34770
H          3.43510        1.36750        4.92630
H          3.50420       -0.82690        3.84480
H         -4.46670        2.05520       -2.30490
H         -3.26140        2.08190       -6.06720
H         -8.03650        5.12610       -3.37110
H         -7.36950        4.75990       -8.37820
H        -10.45510        6.08430       -7.66830
H         -9.40600        8.15980       -8.55620
H         -7.06860        8.36620       -7.40260
H         -7.45000        8.58450       -4.78310
H        -10.02370        8.51440       -4.32220
H        -11.31540        8.46920       -6.68370
H        -10.14860        9.81410       -6.62560
H        -10.82840        6.29750       -5.12280
