
  xtb     02022214433D
 energy: -304.520332636669 gnorm: 0.000841096403 xtb: 6.4.1 (unknown)
171188  0     0  0            999 V2000
    6.1788   -5.4536    6.3968 C   0  0  0  0  0  0  0  0  0  0  0  0
    7.3581   -6.1429    6.5038 C   0  0  0  0  0  0  0  0  0  0  0  0
    8.2171   -6.6914    5.4369 C   0  0  0  0  0  0  0  0  0  0  0  0
    8.1893   -6.4686    4.2469 O   0  0  0  0  0  0  0  0  0  0  0  0
    9.1418   -7.6297    6.1203 C   0  0  0  0  0  0  0  0  0  0  0  0
   10.0576   -8.4996    5.5542 C   0  0  0  0  0  0  0  0  0  0  0  0
   10.3695   -8.5027    3.8771 Cl  0  0  0  0  0  0  0  0  0  0  0  0
   10.7261   -9.3985    6.3980 C   0  0  0  0  0  0  0  0  0  0  0  0
   11.8885  -10.4713    5.7499 Cl  0  0  0  0  0  0  0  0  0  0  0  0
   10.4138   -9.4495    7.7557 C   0  0  0  0  0  0  0  0  0  0  0  0
   11.1684  -10.6227    8.7449 Cl  0  0  0  0  0  0  0  0  0  0  0  0
    9.4815   -8.5659    8.3233 C   0  0  0  0  0  0  0  0  0  0  0  0
    9.0215   -8.8017    9.9583 Cl  0  0  0  0  0  0  0  0  0  0  0  0
    8.8978   -7.6054    7.5075 C   0  0  0  0  0  0  0  0  0  0  0  0
    7.9469   -6.5315    7.7778 C   0  0  0  0  0  0  0  0  0  0  0  0
    7.8128   -5.8404    8.9516 C   0  0  0  0  0  0  0  0  0  0  0  0
    6.9360   -4.7470    9.1394 C   0  0  0  0  0  0  0  0  0  0  0  0
    6.2588   -3.8512    9.3767 N   0  0  0  0  0  0  0  0  0  0  0  0
    8.6454   -5.9711   10.0852 C   0  0  0  0  0  0  0  0  0  0  0  0
    9.3226   -5.9278   11.0103 N   0  0  0  0  0  0  0  0  0  0  0  0
    5.4938   -4.9440    5.2810 C   0  0  0  0  0  0  0  0  0  0  0  0
    5.8263   -4.8569    3.9359 C   0  0  0  0  0  0  0  0  0  0  0  0
    4.8389   -4.2247    3.1985 C   0  0  0  0  0  0  0  0  0  0  0  0
    4.6904   -3.8094    1.5134 S   0  0  0  0  0  0  0  0  0  0  0  0
    3.1550   -3.0892    1.8475 C   0  0  0  0  0  0  0  0  0  0  0  0
    2.1679   -2.4032    1.0732 C   0  0  0  0  0  0  0  0  0  0  0  0
    2.1528   -2.0295   -0.2690 C   0  0  0  0  0  0  0  0  0  0  0  0
    1.0649   -1.3131   -0.7080 C   0  0  0  0  0  0  0  0  0  0  0  0
    0.8107   -0.7483   -2.0920 C   0  0  0  0  0  0  0  0  0  0  0  0
    0.8779   -1.8137   -3.1632 C   0  0  0  0  0  0  0  0  0  0  0  0
   -0.2660   -2.4922   -3.5564 C   0  0  0  0  0  0  0  0  0  0  0  0
   -0.2180   -3.3991   -4.5988 C   0  0  0  0  0  0  0  0  0  0  0  0
    0.9749   -3.6508   -5.2584 C   0  0  0  0  0  0  0  0  0  0  0  0
    1.0210   -4.5280   -6.4808 C   0  0  0  0  0  0  0  0  0  0  0  0
    1.4049   -3.8102   -7.6473 O   0  0  0  0  0  0  0  0  0  0  0  0
    0.5110   -2.8408   -8.0532 C   0  0  0  0  0  0  0  0  0  0  0  0
    0.5339   -1.7309   -7.1919 O   0  0  0  0  0  0  0  0  0  0  0  0
   -0.3132   -0.6908   -7.6154 C   0  0  0  0  0  0  0  0  0  0  0  0
    2.1323   -3.0193   -4.8204 C   0  0  0  0  0  0  0  0  0  0  0  0
    2.0858   -2.1105   -3.7828 C   0  0  0  0  0  0  0  0  0  0  0  0
    1.6650    0.4675   -2.4244 C   0  0  0  0  0  0  0  0  0  0  0  0
    1.6741    0.9423   -3.7320 C   0  0  0  0  0  0  0  0  0  0  0  0
    2.2507    2.1596   -4.0267 C   0  0  0  0  0  0  0  0  0  0  0  0
    2.8156    2.9345   -3.0210 C   0  0  0  0  0  0  0  0  0  0  0  0
    3.2835    4.3290   -3.3390 C   0  0  0  0  0  0  0  0  0  0  0  0
    2.2359    5.1384   -3.8648 O   0  0  0  0  0  0  0  0  0  0  0  0
    1.1964    5.3813   -2.9966 C   0  0  0  0  0  0  0  0  0  0  0  0
    0.4046    4.2321   -2.8047 O   0  0  0  0  0  0  0  0  0  0  0  0
   -0.6996    4.4582   -1.9714 C   0  0  0  0  0  0  0  0  0  0  0  0
    2.8512    2.4361   -1.7284 C   0  0  0  0  0  0  0  0  0  0  0  0
    2.2795    1.2119   -1.4291 C   0  0  0  0  0  0  0  0  0  0  0  0
   -0.5592   -0.1551   -1.9043 C   0  0  0  0  0  0  0  0  0  0  0  0
   -0.9708   -0.2653   -0.5885 C   0  0  0  0  0  0  0  0  0  0  0  0
   -0.0002   -0.9924    0.1715 C   0  0  0  0  0  0  0  0  0  0  0  0
    0.0161   -1.3652    1.5121 C   0  0  0  0  0  0  0  0  0  0  0  0
    1.1094   -2.0747    1.9519 C   0  0  0  0  0  0  0  0  0  0  0  0
    1.4169   -2.5262    3.3706 C   0  0  0  0  0  0  0  0  0  0  0  0
    0.4797   -3.5793    3.9250 C   0  0  0  0  0  0  0  0  0  0  0  0
   -0.3814   -4.2937    3.1054 C   0  0  0  0  0  0  0  0  0  0  0  0
   -1.1967   -5.2778    3.6376 C   0  0  0  0  0  0  0  0  0  0  0  0
   -1.1487   -5.5796    4.9904 C   0  0  0  0  0  0  0  0  0  0  0  0
   -2.0239   -6.6563    5.5859 C   0  0  0  0  0  0  0  0  0  0  0  0
   -2.5353   -6.3249    6.8589 O   0  0  0  0  0  0  0  0  0  0  0  0
   -3.4709   -5.2971    6.8260 C   0  0  0  0  0  0  0  0  0  0  0  0
   -3.8402   -5.0459    8.1400 O   0  0  0  0  0  0  0  0  0  0  0  0
   -4.7792   -4.0069    8.2548 C   0  0  0  0  0  0  0  0  0  0  0  0
   -0.2711   -4.8753    5.8070 C   0  0  0  0  0  0  0  0  0  0  0  0
    0.5320   -3.8832    5.2813 C   0  0  0  0  0  0  0  0  0  0  0  0
    1.4361   -1.2584    4.2055 C   0  0  0  0  0  0  0  0  0  0  0  0
    0.2598   -0.7919    4.7804 C   0  0  0  0  0  0  0  0  0  0  0  0
    0.2235    0.4437    5.3927 C   0  0  0  0  0  0  0  0  0  0  0  0
    1.3571    1.2457    5.4301 C   0  0  0  0  0  0  0  0  0  0  0  0
    1.2580    2.6483    5.9666 C   0  0  0  0  0  0  0  0  0  0  0  0
    0.3232    3.4419    5.2407 O   0  0  0  0  0  0  0  0  0  0  0  0
    0.6254    3.6232    3.9101 C   0  0  0  0  0  0  0  0  0  0  0  0
    0.3653    2.4564    3.1660 O   0  0  0  0  0  0  0  0  0  0  0  0
    0.6624    2.5869    1.8032 C   0  0  0  0  0  0  0  0  0  0  0  0
    2.5398    0.7626    4.8921 C   0  0  0  0  0  0  0  0  0  0  0  0
    2.5801   -0.4787    4.2834 C   0  0  0  0  0  0  0  0  0  0  0  0
    2.7690   -3.1579    3.1779 C   0  0  0  0  0  0  0  0  0  0  0  0
    3.7212   -3.8079    3.9564 C   0  0  0  0  0  0  0  0  0  0  0  0
    3.9139   -4.2136    5.6122 S   0  0  0  0  0  0  0  0  0  0  0  0
   -2.4936    0.4948   -0.2616 S   0  0  0  0  0  0  0  0  0  0  0  0
   -2.5947    0.9744   -1.9363 C   0  0  0  0  0  0  0  0  0  0  0  0
   -3.5462    1.6531   -2.6861 C   0  0  0  0  0  0  0  0  0  0  0  0
   -3.1719    1.7586   -4.0173 C   0  0  0  0  0  0  0  0  0  0  0  0
   -1.5984    1.0107   -4.3233 S   0  0  0  0  0  0  0  0  0  0  0  0
   -1.4717    0.5532   -2.6792 C   0  0  0  0  0  0  0  0  0  0  0  0
   -3.8223    2.2668   -5.1582 C   0  0  0  0  0  0  0  0  0  0  0  0
   -5.0098    2.9251   -5.3152 C   0  0  0  0  0  0  0  0  0  0  0  0
   -5.8925    3.5054   -4.2774 C   0  0  0  0  0  0  0  0  0  0  0  0
   -5.8171    3.3952   -3.0699 O   0  0  0  0  0  0  0  0  0  0  0  0
   -6.9011    4.2972   -5.0050 C   0  0  0  0  0  0  0  0  0  0  0  0
   -7.9161    5.0674   -4.4416 C   0  0  0  0  0  0  0  0  0  0  0  0
   -8.7077    5.7103   -5.3622 C   0  0  0  0  0  0  0  0  0  0  0  0
   -8.5057    5.5954   -6.7445 C   0  0  0  0  0  0  0  0  0  0  0  0
   -7.5122    4.8352   -7.3134 C   0  0  0  0  0  0  0  0  0  0  0  0
   -6.6943    4.1724   -6.3932 C   0  0  0  0  0  0  0  0  0  0  0  0
   -5.5632    3.2770   -6.6132 C   0  0  0  0  0  0  0  0  0  0  0  0
   -5.1646    2.7886   -7.8313 C   0  0  0  0  0  0  0  0  0  0  0  0
   -5.7472    3.1515   -9.0643 C   0  0  0  0  0  0  0  0  0  0  0  0
   -6.1665    3.3970  -10.1048 N   0  0  0  0  0  0  0  0  0  0  0  0
   -4.1591    1.8225   -8.0497 C   0  0  0  0  0  0  0  0  0  0  0  0
   -3.3828    1.0204   -8.3238 N   0  0  0  0  0  0  0  0  0  0  0  0
   -9.6553    6.5153   -7.0697 C   0  0  0  0  0  0  0  0  0  0  0  0
   -9.3202    7.9677   -7.4901 C   0  0  0  0  0  0  0  0  0  0  0  0
   -7.9921    8.3019   -6.8575 C   0  0  0  0  0  0  0  0  0  0  0  0
   -8.1827    8.4111   -5.5495 C   0  0  0  0  0  0  0  0  0  0  0  0
   -9.6434    8.1527   -5.2739 C   0  0  0  0  0  0  0  0  0  0  0  0
  -10.2671    8.7341   -6.5528 C   0  0  0  0  0  0  0  0  0  0  0  0
   -9.8804    6.6435   -5.5300 C   0  0  0  0  0  0  0  0  0  0  0  0
    5.6495   -5.2849    7.3281 H   0  0  0  0  0  0  0  0  0  0  0  0
    6.7465   -5.2396    3.5356 H   0  0  0  0  0  0  0  0  0  0  0  0
    2.9712   -2.2821   -0.9250 H   0  0  0  0  0  0  0  0  0  0  0  0
   -1.2079   -2.2942   -3.0651 H   0  0  0  0  0  0  0  0  0  0  0  0
   -1.1247   -3.8951   -4.9153 H   0  0  0  0  0  0  0  0  0  0  0  0
    0.0419   -5.0017   -6.6466 H   0  0  0  0  0  0  0  0  0  0  0  0
    1.7835   -5.3048   -6.3769 H   0  0  0  0  0  0  0  0  0  0  0  0
   -0.5241   -3.2446   -8.1055 H   0  0  0  0  0  0  0  0  0  0  0  0
    0.8260   -2.5437   -9.0672 H   0  0  0  0  0  0  0  0  0  0  0  0
   -0.0218   -0.3191   -8.6042 H   0  0  0  0  0  0  0  0  0  0  0  0
   -0.2117    0.1055   -6.8819 H   0  0  0  0  0  0  0  0  0  0  0  0
   -1.3588   -1.0155   -7.6570 H   0  0  0  0  0  0  0  0  0  0  0  0
    3.0647   -3.2188   -5.3262 H   0  0  0  0  0  0  0  0  0  0  0  0
    2.9857   -1.5984   -3.4739 H   0  0  0  0  0  0  0  0  0  0  0  0
    1.2147    0.3597   -4.5169 H   0  0  0  0  0  0  0  0  0  0  0  0
    2.2266    2.5412   -5.0357 H   0  0  0  0  0  0  0  0  0  0  0  0
    4.0402    4.3214   -4.1278 H   0  0  0  0  0  0  0  0  0  0  0  0
    3.7014    4.8074   -2.4409 H   0  0  0  0  0  0  0  0  0  0  0  0
    0.5955    6.1833   -3.4561 H   0  0  0  0  0  0  0  0  0  0  0  0
    1.5680    5.7341   -2.0086 H   0  0  0  0  0  0  0  0  0  0  0  0
   -0.3843    4.8246   -0.9858 H   0  0  0  0  0  0  0  0  0  0  0  0
   -1.3921    5.1856   -2.4122 H   0  0  0  0  0  0  0  0  0  0  0  0
   -1.2022    3.5006   -1.8569 H   0  0  0  0  0  0  0  0  0  0  0  0
    3.3038    3.0186   -0.9380 H   0  0  0  0  0  0  0  0  0  0  0  0
    2.2903    0.8530   -0.4101 H   0  0  0  0  0  0  0  0  0  0  0  0
   -0.7916   -1.0934    2.1735 H   0  0  0  0  0  0  0  0  0  0  0  0
   -0.4247   -4.0781    2.0480 H   0  0  0  0  0  0  0  0  0  0  0  0
   -1.8726   -5.8180    2.9901 H   0  0  0  0  0  0  0  0  0  0  0  0
   -2.8465   -6.8982    4.8948 H   0  0  0  0  0  0  0  0  0  0  0  0
   -1.4330   -7.5622    5.7551 H   0  0  0  0  0  0  0  0  0  0  0  0
   -3.0414   -4.3821    6.3587 H   0  0  0  0  0  0  0  0  0  0  0  0
   -4.3566   -5.5979    6.2179 H   0  0  0  0  0  0  0  0  0  0  0  0
   -5.7063   -4.2468    7.7191 H   0  0  0  0  0  0  0  0  0  0  0  0
   -4.9876   -3.9014    9.3165 H   0  0  0  0  0  0  0  0  0  0  0  0
   -4.3789   -3.0641    7.8610 H   0  0  0  0  0  0  0  0  0  0  0  0
   -0.2360   -5.1085    6.8604 H   0  0  0  0  0  0  0  0  0  0  0  0
    1.2022   -3.3338    5.9263 H   0  0  0  0  0  0  0  0  0  0  0  0
   -0.6343   -1.3967    4.7369 H   0  0  0  0  0  0  0  0  0  0  0  0
   -0.6985    0.8159    5.8123 H   0  0  0  0  0  0  0  0  0  0  0  0
    0.8775    2.6529    6.9912 H   0  0  0  0  0  0  0  0  0  0  0  0
    2.2444    3.1346    5.9454 H   0  0  0  0  0  0  0  0  0  0  0  0
    1.6899    3.9148    3.7721 H   0  0  0  0  0  0  0  0  0  0  0  0
   -0.0169    4.4480    3.5587 H   0  0  0  0  0  0  0  0  0  0  0  0
    0.0508    3.3662    1.3314 H   0  0  0  0  0  0  0  0  0  0  0  0
    1.7218    2.8286    1.6485 H   0  0  0  0  0  0  0  0  0  0  0  0
    0.4399    1.6246    1.3477 H   0  0  0  0  0  0  0  0  0  0  0  0
    3.4351    1.3675    4.9263 H   0  0  0  0  0  0  0  0  0  0  0  0
    3.5042   -0.8269    3.8448 H   0  0  0  0  0  0  0  0  0  0  0  0
   -4.4667    2.0552   -2.3049 H   0  0  0  0  0  0  0  0  0  0  0  0
   -3.2614    2.0819   -6.0672 H   0  0  0  0  0  0  0  0  0  0  0  0
   -8.0365    5.1261   -3.3711 H   0  0  0  0  0  0  0  0  0  0  0  0
   -7.3695    4.7599   -8.3782 H   0  0  0  0  0  0  0  0  0  0  0  0
  -10.4551    6.0843   -7.6683 H   0  0  0  0  0  0  0  0  0  0  0  0
   -9.4060    8.1598   -8.5562 H   0  0  0  0  0  0  0  0  0  0  0  0
   -7.0686    8.3662   -7.4026 H   0  0  0  0  0  0  0  0  0  0  0  0
   -7.4500    8.5845   -4.7831 H   0  0  0  0  0  0  0  0  0  0  0  0
  -10.0237    8.5144   -4.3222 H   0  0  0  0  0  0  0  0  0  0  0  0
  -11.3154    8.4692   -6.6837 H   0  0  0  0  0  0  0  0  0  0  0  0
  -10.1486    9.8141   -6.6256 H   0  0  0  0  0  0  0  0  0  0  0  0
  -10.8284    6.2975   -5.1228 H   0  0  0  0  0  0  0  0  0  0  0  0
  1  2  2  0  0  0  0
  2  3  1  0  0  0  0
  3  4  2  0  0  0  0
  3  5  1  0  0  0  0
  5  6  2  0  0  0  0
  6  7  1  0  0  0  0
  6  8  1  0  0  0  0
  8  9  1  0  0  0  0
  8 10  2  0  0  0  0
 10 11  1  0  0  0  0
 10 12  1  0  0  0  0
 12 13  1  0  0  0  0
 12 14  2  0  0  0  0
 14 15  1  0  0  0  0
 15 16  2  0  0  0  0
 16 17  1  0  0  0  0
 17 18  3  0  0  0  0
 16 19  1  0  0  0  0
 19 20  3  0  0  0  0
  1 21  1  0  0  0  0
 21 22  2  0  0  0  0
 22 23  1  0  0  0  0
 23 24  1  0  0  0  0
 24 25  1  0  0  0  0
 25 26  1  0  0  0  0
 26 27  2  0  0  0  0
 27 28  1  0  0  0  0
 28 29  1  0  0  0  0
 29 30  1  0  0  0  0
 30 31  2  0  0  0  0
 31 32  1  0  0  0  0
 32 33  2  0  0  0  0
 33 34  1  0  0  0  0
 34 35  1  0  0  0  0
 35 36  1  0  0  0  0
 36 37  1  0  0  0  0
 37 38  1  0  0  0  0
 33 39  1  0  0  0  0
 39 40  2  0  0  0  0
 29 41  1  0  0  0  0
 41 42  2  0  0  0  0
 42 43  1  0  0  0  0
 43 44  2  0  0  0  0
 44 45  1  0  0  0  0
 45 46  1  0  0  0  0
 46 47  1  0  0  0  0
 47 48  1  0  0  0  0
 48 49  1  0  0  0  0
 44 50  1  0  0  0  0
 50 51  2  0  0  0  0
 29 52  1  0  0  0  0
 52 53  2  0  0  0  0
 53 54  1  0  0  0  0
 54 55  1  0  0  0  0
 55 56  2  0  0  0  0
 56 57  1  0  0  0  0
 57 58  1  0  0  0  0
 58 59  2  0  0  0  0
 59 60  1  0  0  0  0
 60 61  2  0  0  0  0
 61 62  1  0  0  0  0
 62 63  1  0  0  0  0
 63 64  1  0  0  0  0
 64 65  1  0  0  0  0
 65 66  1  0  0  0  0
 61 67  1  0  0  0  0
 67 68  2  0  0  0  0
 57 69  1  0  0  0  0
 69 70  2  0  0  0  0
 70 71  1  0  0  0  0
 71 72  2  0  0  0  0
 72 73  1  0  0  0  0
 73 74  1  0  0  0  0
 74 75  1  0  0  0  0
 75 76  1  0  0  0  0
 76 77  1  0  0  0  0
 72 78  1  0  0  0  0
 78 79  2  0  0  0  0
 57 80  1  0  0  0  0
 80 81  1  0  0  0  0
 81 82  1  0  0  0  0
 53 83  1  0  0  0  0
 83 84  1  0  0  0  0
 84 85  1  0  0  0  0
 85 86  2  0  0  0  0
 86 87  1  0  0  0  0
 87 88  1  0  0  0  0
 86 89  1  0  0  0  0
 89 90  2  0  0  0  0
 90 91  1  0  0  0  0
 91 92  2  0  0  0  0
 91 93  1  0  0  0  0
 93 94  2  0  0  0  0
 94 95  1  0  0  0  0
 95 96  2  0  0  0  0
 96 97  1  0  0  0  0
 97 98  2  0  0  0  0
 98 99  1  0  0  0  0
 99100  2  0  0  0  0
100101  1  0  0  0  0
101102  3  0  0  0  0
100103  1  0  0  0  0
103104  3  0  0  0  0
 96105  1  0  0  0  0
105106  1  0  0  0  0
106107  1  0  0  0  0
107108  2  0  0  0  0
108109  1  0  0  0  0
109110  1  0  0  0  0
109111  1  0  0  0  0
 15  2  1  0  0  0  0
 82 21  1  0  0  0  0
 88 84  2  0  0  0  0
 99 90  1  0  0  0  0
111105  1  0  0  0  0
 14  5  1  0  0  0  0
 81 23  2  0  0  0  0
 98 93  1  0  0  0  0
110106  1  0  0  0  0
 80 25  2  0  0  0  0
111 95  1  0  0  0  0
 56 26  1  0  0  0  0
 68 58  1  0  0  0  0
 79 69  1  0  0  0  0
 54 28  2  0  0  0  0
 40 30  1  0  0  0  0
 51 41  1  0  0  0  0
 88 52  1  0  0  0  0
  1112  1  0  0  0  0
 22113  1  0  0  0  0
 27114  1  0  0  0  0
 31115  1  0  0  0  0
 32116  1  0  0  0  0
 34117  1  0  0  0  0
 34118  1  0  0  0  0
 36119  1  0  0  0  0
 36120  1  0  0  0  0
 38121  1  0  0  0  0
 38122  1  0  0  0  0
 38123  1  0  0  0  0
 39124  1  0  0  0  0
 40125  1  0  0  0  0
 42126  1  0  0  0  0
 43127  1  0  0  0  0
 45128  1  0  0  0  0
 45129  1  0  0  0  0
 47130  1  0  0  0  0
 47131  1  0  0  0  0
 49132  1  0  0  0  0
 49133  1  0  0  0  0
 49134  1  0  0  0  0
 50135  1  0  0  0  0
 51136  1  0  0  0  0
 55137  1  0  0  0  0
 59138  1  0  0  0  0
 60139  1  0  0  0  0
 62140  1  0  0  0  0
 62141  1  0  0  0  0
 64142  1  0  0  0  0
 64143  1  0  0  0  0
 66144  1  0  0  0  0
 66145  1  0  0  0  0
 66146  1  0  0  0  0
 67147  1  0  0  0  0
 68148  1  0  0  0  0
 70149  1  0  0  0  0
 71150  1  0  0  0  0
 73151  1  0  0  0  0
 73152  1  0  0  0  0
 75153  1  0  0  0  0
 75154  1  0  0  0  0
 77155  1  0  0  0  0
 77156  1  0  0  0  0
 77157  1  0  0  0  0
 78158  1  0  0  0  0
 79159  1  0  0  0  0
 85160  1  0  0  0  0
 89161  1  0  0  0  0
 94162  1  0  0  0  0
 97163  1  0  0  0  0
105164  1  0  0  0  0
106165  1  0  0  0  0
107166  1  0  0  0  0
108167  1  0  0  0  0
109168  1  0  0  0  0
110169  1  0  0  0  0
110170  1  0  0  0  0
111171  1  0  0  0  0
M  END
