126

C         -3.52830        2.04490        6.97370
C         -3.17380        2.44510        8.23550
C         -2.11480        1.91730        9.11500
O         -1.21380        1.15400        8.84600
C         -2.40060        2.48630       10.45630
C         -1.77800        2.20630       11.66030
Cl        -0.40260        1.20060       11.74240
C         -2.31270        2.76750       12.82920
Cl        -1.55890        2.47650       14.33570
C         -3.48050        3.52650       12.77170
Cl        -4.16830        4.11700       14.22180
C         -4.10970        3.80400       11.54730
Cl        -5.63060        4.59590       11.56920
C         -3.52220        3.33600       10.37950
C         -3.87870        3.48280        8.97200
C         -4.52400        4.54590        8.39830
C         -4.89180        5.74210        9.05310
N         -5.14030        6.78430        9.46360
C         -4.74100        4.68940        7.00830
N         -4.94760        4.88940        5.89670
C         -2.89760        1.19690        6.04980
C         -1.66180        0.56150        6.04820
C         -1.39220       -0.03830        4.82910
S          0.00300       -0.85480        4.17550
C         -0.78090       -0.92850        2.63500
C         -0.37320       -1.25920        1.30410
C          0.83560       -1.74550        0.81160
C          0.97290       -1.80480       -0.55420
C          2.20530       -2.21350       -1.34890
C          3.40980       -1.44770       -0.89110
C          4.32920       -1.80430        0.04300
C          5.30170       -0.80310        0.26460
C          5.11690        0.30950       -0.49210
C          5.91030        1.57010       -0.50370
C          5.17260        2.69600        0.22390
S          3.71540        0.14530       -1.50330
C          2.43680       -3.69670       -1.28320
C          1.63720       -4.66060       -0.75670
C          2.15210       -5.96340       -0.94770
C          3.33160       -5.98680       -1.62130
C          4.14290       -7.16330       -2.04140
C          4.04640       -7.38950       -3.55150
S          3.83950       -4.38130       -2.03960
C          1.77610       -1.83880       -2.74420
C          0.46020       -1.40900       -2.74860
C         -0.06230       -1.37730       -1.41740
C         -1.29210       -0.94690       -0.92600
C         -1.43360       -0.89550        0.44000
C         -2.63900       -0.42500        1.23750
C         -3.75920       -1.42110        1.12560
C         -4.37550       -2.11660        2.11640
C         -5.40990       -2.95340        1.63960
C         -5.57470       -2.89720        0.29280
C         -6.58060       -3.59930       -0.55240
C         -7.68320       -2.64170       -1.00880
S         -4.44490       -1.79340       -0.42330
C         -3.10230        0.95630        0.87870
C         -2.37760        1.99490        0.38730
C         -3.12140        3.19550        0.32460
C         -4.39620        3.06980        0.77790
C         -5.45200        4.11180        0.90880
C         -5.86450        4.30750        2.36870
S         -4.71760        1.44120        1.28020
C         -2.06320       -0.40500        2.63020
C         -2.41820        0.11540        3.86880
S         -3.74240        0.99680        4.50610
S         -0.11580       -0.91920       -4.30340
C          1.45000       -1.27160       -4.97310
C          2.00210       -1.13030       -6.23870
C          3.33520       -1.50890       -6.27000
S          3.89990       -2.04900       -4.69260
C          2.35070       -1.76860       -4.01000
C          4.28040       -1.41200       -7.31290
C          4.09860       -1.18860       -8.64480
C          5.23790       -0.64650       -9.43890
O          6.39820       -0.60230       -9.10130
C          4.62880       -0.13130      -10.68170
C          5.21380        0.59200      -11.70260
C          4.41330        0.99640      -12.76210
C          3.06190        0.68250      -12.78560
C          2.47020       -0.05170      -11.76570
C          3.26200       -0.46500      -10.70710
C          2.94930       -1.25690       -9.51760
C          1.87980       -2.10470       -9.39020
C          1.75440       -3.03890       -8.34250
N          1.63310       -3.83080       -7.52060
C          0.83330       -2.19840      -10.32980
N         -0.05160       -2.29970      -11.05390
H         -4.45860        2.45630        6.59790
H         -1.00190        0.56720        6.89580
H          1.63610       -2.03040        1.47670
H          4.32370       -2.75210        0.55140
H          6.11440       -0.91410        0.96020
H          6.10230        1.87500       -1.53520
H          6.86990        1.38440       -0.01680
H          5.76650        3.60630        0.21110
H          4.21880        2.89530       -0.25980
H          4.98350        2.41780        1.25830
H          0.71240       -4.45470       -0.24780
H          1.65810       -6.85000       -0.59190
H          3.78010       -8.04660       -1.51140
H          5.18960       -7.00570       -1.76920
H          4.41680       -6.51840       -4.08720
H          4.63740       -8.25440       -3.84170
H          3.01280       -7.55930       -3.84360
H         -2.08020       -0.63410       -1.59300
H         -4.11230       -2.03810        3.15590
H         -6.00730       -3.57590        2.28170
H         -6.09090       -4.02700       -1.43060
H         -7.01780       -4.41470        0.02780
H         -8.19100       -2.21280       -0.14800
H         -7.25800       -1.83210       -1.59750
H         -8.41290       -3.16960       -1.61740
H         -1.34960        1.90890        0.08140
H         -2.71460        4.12180       -0.04060
H         -6.33010        3.82010        0.32520
H         -5.06910        5.04920        0.50010
H         -6.62850        5.07650        2.44460
H         -6.26370        3.38060        2.77450
H         -5.01300        4.60700        2.97420
H          1.47710       -0.71450       -7.07890
H          5.32030       -1.42360       -6.99870
H          6.26560        0.82970      -11.66410
H          4.84370        1.56300      -13.57400
H          2.45350        1.01470      -13.61330
H          1.41640       -0.27720      -11.80210
