
  xtb     01212212413D
 energy: -233.125029194739 gnorm: 0.000281895307 xtb: 6.4.1 (unknown)
126140  0     0  0            999 V2000
   -3.5283    2.0449    6.9737 C   0  0  0  0  0  0  0  0  0  0  0  0
   -3.1738    2.4451    8.2355 C   0  0  0  0  0  0  0  0  0  0  0  0
   -2.1148    1.9173    9.1150 C   0  0  0  0  0  0  0  0  0  0  0  0
   -1.2138    1.1540    8.8460 O   0  0  0  0  0  0  0  0  0  0  0  0
   -2.4006    2.4863   10.4563 C   0  0  0  0  0  0  0  0  0  0  0  0
   -1.7780    2.2063   11.6603 C   0  0  0  0  0  0  0  0  0  0  0  0
   -0.4026    1.2006   11.7424 Cl  0  0  0  0  0  0  0  0  0  0  0  0
   -2.3127    2.7675   12.8292 C   0  0  0  0  0  0  0  0  0  0  0  0
   -1.5589    2.4765   14.3357 Cl  0  0  0  0  0  0  0  0  0  0  0  0
   -3.4805    3.5265   12.7717 C   0  0  0  0  0  0  0  0  0  0  0  0
   -4.1683    4.1170   14.2218 Cl  0  0  0  0  0  0  0  0  0  0  0  0
   -4.1097    3.8040   11.5473 C   0  0  0  0  0  0  0  0  0  0  0  0
   -5.6306    4.5959   11.5692 Cl  0  0  0  0  0  0  0  0  0  0  0  0
   -3.5222    3.3360   10.3795 C   0  0  0  0  0  0  0  0  0  0  0  0
   -3.8787    3.4828    8.9720 C   0  0  0  0  0  0  0  0  0  0  0  0
   -4.5240    4.5459    8.3983 C   0  0  0  0  0  0  0  0  0  0  0  0
   -4.8918    5.7421    9.0531 C   0  0  0  0  0  0  0  0  0  0  0  0
   -5.1403    6.7843    9.4636 N   0  0  0  0  0  0  0  0  0  0  0  0
   -4.7410    4.6894    7.0083 C   0  0  0  0  0  0  0  0  0  0  0  0
   -4.9476    4.8894    5.8967 N   0  0  0  0  0  0  0  0  0  0  0  0
   -2.8976    1.1969    6.0498 C   0  0  0  0  0  0  0  0  0  0  0  0
   -1.6618    0.5615    6.0482 C   0  0  0  0  0  0  0  0  0  0  0  0
   -1.3922   -0.0383    4.8291 C   0  0  0  0  0  0  0  0  0  0  0  0
    0.0030   -0.8548    4.1755 S   0  0  0  0  0  0  0  0  0  0  0  0
   -0.7809   -0.9285    2.6350 C   0  0  0  0  0  0  0  0  0  0  0  0
   -0.3732   -1.2592    1.3041 C   0  0  0  0  0  0  0  0  0  0  0  0
    0.8356   -1.7455    0.8116 C   0  0  0  0  0  0  0  0  0  0  0  0
    0.9729   -1.8048   -0.5542 C   0  0  0  0  0  0  0  0  0  0  0  0
    2.2053   -2.2135   -1.3489 C   0  0  0  0  0  0  0  0  0  0  0  0
    3.4098   -1.4477   -0.8911 C   0  0  0  0  0  0  0  0  0  0  0  0
    4.3292   -1.8043    0.0430 C   0  0  0  0  0  0  0  0  0  0  0  0
    5.3017   -0.8031    0.2646 C   0  0  0  0  0  0  0  0  0  0  0  0
    5.1169    0.3095   -0.4921 C   0  0  0  0  0  0  0  0  0  0  0  0
    5.9103    1.5701   -0.5037 C   0  0  0  0  0  0  0  0  0  0  0  0
    5.1726    2.6960    0.2239 C   0  0  0  0  0  0  0  0  0  0  0  0
    3.7154    0.1453   -1.5033 S   0  0  0  0  0  0  0  0  0  0  0  0
    2.4368   -3.6967   -1.2832 C   0  0  0  0  0  0  0  0  0  0  0  0
    1.6372   -4.6606   -0.7567 C   0  0  0  0  0  0  0  0  0  0  0  0
    2.1521   -5.9634   -0.9477 C   0  0  0  0  0  0  0  0  0  0  0  0
    3.3316   -5.9868   -1.6213 C   0  0  0  0  0  0  0  0  0  0  0  0
    4.1429   -7.1633   -2.0414 C   0  0  0  0  0  0  0  0  0  0  0  0
    4.0464   -7.3895   -3.5515 C   0  0  0  0  0  0  0  0  0  0  0  0
    3.8395   -4.3813   -2.0396 S   0  0  0  0  0  0  0  0  0  0  0  0
    1.7761   -1.8388   -2.7442 C   0  0  0  0  0  0  0  0  0  0  0  0
    0.4602   -1.4090   -2.7486 C   0  0  0  0  0  0  0  0  0  0  0  0
   -0.0623   -1.3773   -1.4174 C   0  0  0  0  0  0  0  0  0  0  0  0
   -1.2921   -0.9469   -0.9260 C   0  0  0  0  0  0  0  0  0  0  0  0
   -1.4336   -0.8955    0.4400 C   0  0  0  0  0  0  0  0  0  0  0  0
   -2.6390   -0.4250    1.2375 C   0  0  0  0  0  0  0  0  0  0  0  0
   -3.7592   -1.4211    1.1256 C   0  0  0  0  0  0  0  0  0  0  0  0
   -4.3755   -2.1166    2.1164 C   0  0  0  0  0  0  0  0  0  0  0  0
   -5.4099   -2.9534    1.6396 C   0  0  0  0  0  0  0  0  0  0  0  0
   -5.5747   -2.8972    0.2928 C   0  0  0  0  0  0  0  0  0  0  0  0
   -6.5806   -3.5993   -0.5524 C   0  0  0  0  0  0  0  0  0  0  0  0
   -7.6832   -2.6417   -1.0088 C   0  0  0  0  0  0  0  0  0  0  0  0
   -4.4449   -1.7934   -0.4233 S   0  0  0  0  0  0  0  0  0  0  0  0
   -3.1023    0.9563    0.8787 C   0  0  0  0  0  0  0  0  0  0  0  0
   -2.3776    1.9949    0.3873 C   0  0  0  0  0  0  0  0  0  0  0  0
   -3.1214    3.1955    0.3246 C   0  0  0  0  0  0  0  0  0  0  0  0
   -4.3962    3.0698    0.7779 C   0  0  0  0  0  0  0  0  0  0  0  0
   -5.4520    4.1118    0.9088 C   0  0  0  0  0  0  0  0  0  0  0  0
   -5.8645    4.3075    2.3687 C   0  0  0  0  0  0  0  0  0  0  0  0
   -4.7176    1.4412    1.2802 S   0  0  0  0  0  0  0  0  0  0  0  0
   -2.0632   -0.4050    2.6302 C   0  0  0  0  0  0  0  0  0  0  0  0
   -2.4182    0.1154    3.8688 C   0  0  0  0  0  0  0  0  0  0  0  0
   -3.7424    0.9968    4.5061 S   0  0  0  0  0  0  0  0  0  0  0  0
   -0.1158   -0.9192   -4.3034 S   0  0  0  0  0  0  0  0  0  0  0  0
    1.4500   -1.2716   -4.9731 C   0  0  0  0  0  0  0  0  0  0  0  0
    2.0021   -1.1303   -6.2387 C   0  0  0  0  0  0  0  0  0  0  0  0
    3.3352   -1.5089   -6.2700 C   0  0  0  0  0  0  0  0  0  0  0  0
    3.8999   -2.0490   -4.6926 S   0  0  0  0  0  0  0  0  0  0  0  0
    2.3507   -1.7686   -4.0100 C   0  0  0  0  0  0  0  0  0  0  0  0
    4.2804   -1.4120   -7.3129 C   0  0  0  0  0  0  0  0  0  0  0  0
    4.0986   -1.1886   -8.6448 C   0  0  0  0  0  0  0  0  0  0  0  0
    5.2379   -0.6465   -9.4389 C   0  0  0  0  0  0  0  0  0  0  0  0
    6.3982   -0.6023   -9.1013 O   0  0  0  0  0  0  0  0  0  0  0  0
    4.6288   -0.1313  -10.6817 C   0  0  0  0  0  0  0  0  0  0  0  0
    5.2138    0.5920  -11.7026 C   0  0  0  0  0  0  0  0  0  0  0  0
    4.4133    0.9964  -12.7621 C   0  0  0  0  0  0  0  0  0  0  0  0
    3.0619    0.6825  -12.7856 C   0  0  0  0  0  0  0  0  0  0  0  0
    2.4702   -0.0517  -11.7657 C   0  0  0  0  0  0  0  0  0  0  0  0
    3.2620   -0.4650  -10.7071 C   0  0  0  0  0  0  0  0  0  0  0  0
    2.9493   -1.2569   -9.5176 C   0  0  0  0  0  0  0  0  0  0  0  0
    1.8798   -2.1047   -9.3902 C   0  0  0  0  0  0  0  0  0  0  0  0
    1.7544   -3.0389   -8.3425 C   0  0  0  0  0  0  0  0  0  0  0  0
    1.6331   -3.8308   -7.5206 N   0  0  0  0  0  0  0  0  0  0  0  0
    0.8333   -2.1984  -10.3298 C   0  0  0  0  0  0  0  0  0  0  0  0
   -0.0516   -2.2997  -11.0539 N   0  0  0  0  0  0  0  0  0  0  0  0
   -4.4586    2.4563    6.5979 H   0  0  0  0  0  0  0  0  0  0  0  0
   -1.0019    0.5672    6.8958 H   0  0  0  0  0  0  0  0  0  0  0  0
    1.6361   -2.0304    1.4767 H   0  0  0  0  0  0  0  0  0  0  0  0
    4.3237   -2.7521    0.5514 H   0  0  0  0  0  0  0  0  0  0  0  0
    6.1144   -0.9141    0.9602 H   0  0  0  0  0  0  0  0  0  0  0  0
    6.1023    1.8750   -1.5352 H   0  0  0  0  0  0  0  0  0  0  0  0
    6.8699    1.3844   -0.0168 H   0  0  0  0  0  0  0  0  0  0  0  0
    5.7665    3.6063    0.2111 H   0  0  0  0  0  0  0  0  0  0  0  0
    4.2188    2.8953   -0.2598 H   0  0  0  0  0  0  0  0  0  0  0  0
    4.9835    2.4178    1.2583 H   0  0  0  0  0  0  0  0  0  0  0  0
    0.7124   -4.4547   -0.2478 H   0  0  0  0  0  0  0  0  0  0  0  0
    1.6581   -6.8500   -0.5919 H   0  0  0  0  0  0  0  0  0  0  0  0
    3.7801   -8.0466   -1.5114 H   0  0  0  0  0  0  0  0  0  0  0  0
    5.1896   -7.0057   -1.7692 H   0  0  0  0  0  0  0  0  0  0  0  0
    4.4168   -6.5184   -4.0872 H   0  0  0  0  0  0  0  0  0  0  0  0
    4.6374   -8.2544   -3.8417 H   0  0  0  0  0  0  0  0  0  0  0  0
    3.0128   -7.5593   -3.8436 H   0  0  0  0  0  0  0  0  0  0  0  0
   -2.0802   -0.6341   -1.5930 H   0  0  0  0  0  0  0  0  0  0  0  0
   -4.1123   -2.0381    3.1559 H   0  0  0  0  0  0  0  0  0  0  0  0
   -6.0073   -3.5759    2.2817 H   0  0  0  0  0  0  0  0  0  0  0  0
   -6.0909   -4.0270   -1.4306 H   0  0  0  0  0  0  0  0  0  0  0  0
   -7.0178   -4.4147    0.0278 H   0  0  0  0  0  0  0  0  0  0  0  0
   -8.1910   -2.2128   -0.1480 H   0  0  0  0  0  0  0  0  0  0  0  0
   -7.2580   -1.8321   -1.5975 H   0  0  0  0  0  0  0  0  0  0  0  0
   -8.4129   -3.1696   -1.6174 H   0  0  0  0  0  0  0  0  0  0  0  0
   -1.3496    1.9089    0.0814 H   0  0  0  0  0  0  0  0  0  0  0  0
   -2.7146    4.1218   -0.0406 H   0  0  0  0  0  0  0  0  0  0  0  0
   -6.3301    3.8201    0.3252 H   0  0  0  0  0  0  0  0  0  0  0  0
   -5.0691    5.0492    0.5001 H   0  0  0  0  0  0  0  0  0  0  0  0
   -6.6285    5.0765    2.4446 H   0  0  0  0  0  0  0  0  0  0  0  0
   -6.2637    3.3806    2.7745 H   0  0  0  0  0  0  0  0  0  0  0  0
   -5.0130    4.6070    2.9742 H   0  0  0  0  0  0  0  0  0  0  0  0
    1.4771   -0.7145   -7.0789 H   0  0  0  0  0  0  0  0  0  0  0  0
    5.3203   -1.4236   -6.9987 H   0  0  0  0  0  0  0  0  0  0  0  0
    6.2656    0.8297  -11.6641 H   0  0  0  0  0  0  0  0  0  0  0  0
    4.8437    1.5630  -13.5740 H   0  0  0  0  0  0  0  0  0  0  0  0
    2.4535    1.0147  -13.6133 H   0  0  0  0  0  0  0  0  0  0  0  0
    1.4164   -0.2772  -11.8021 H   0  0  0  0  0  0  0  0  0  0  0  0
  1  2  2  0  0  0  0
  2  3  1  0  0  0  0
  3  4  2  0  0  0  0
  3  5  1  0  0  0  0
  5  6  2  0  0  0  0
  6  7  1  0  0  0  0
  6  8  1  0  0  0  0
  8  9  1  0  0  0  0
  8 10  2  0  0  0  0
 10 11  1  0  0  0  0
 10 12  1  0  0  0  0
 12 13  1  0  0  0  0
 12 14  2  0  0  0  0
 14 15  1  0  0  0  0
 15 16  2  0  0  0  0
 16 17  1  0  0  0  0
 17 18  3  0  0  0  0
 16 19  1  0  0  0  0
 19 20  3  0  0  0  0
  1 21  1  0  0  0  0
 21 22  2  0  0  0  0
 22 23  1  0  0  0  0
 23 24  1  0  0  0  0
 24 25  1  0  0  0  0
 25 26  1  0  0  0  0
 26 27  2  0  0  0  0
 27 28  1  0  0  0  0
 28 29  1  0  0  0  0
 29 30  1  0  0  0  0
 30 31  2  0  0  0  0
 31 32  1  0  0  0  0
 32 33  2  0  0  0  0
 33 34  1  0  0  0  0
 34 35  1  0  0  0  0
 33 36  1  0  0  0  0
 29 37  1  0  0  0  0
 37 38  2  0  0  0  0
 38 39  1  0  0  0  0
 39 40  2  0  0  0  0
 40 41  1  0  0  0  0
 41 42  1  0  0  0  0
 40 43  1  0  0  0  0
 29 44  1  0  0  0  0
 44 45  2  0  0  0  0
 45 46  1  0  0  0  0
 46 47  1  0  0  0  0
 47 48  2  0  0  0  0
 48 49  1  0  0  0  0
 49 50  1  0  0  0  0
 50 51  2  0  0  0  0
 51 52  1  0  0  0  0
 52 53  2  0  0  0  0
 53 54  1  0  0  0  0
 54 55  1  0  0  0  0
 53 56  1  0  0  0  0
 49 57  1  0  0  0  0
 57 58  2  0  0  0  0
 58 59  1  0  0  0  0
 59 60  2  0  0  0  0
 60 61  1  0  0  0  0
 61 62  1  0  0  0  0
 60 63  1  0  0  0  0
 49 64  1  0  0  0  0
 64 65  1  0  0  0  0
 65 66  1  0  0  0  0
 45 67  1  0  0  0  0
 67 68  1  0  0  0  0
 68 69  1  0  0  0  0
 69 70  2  0  0  0  0
 70 71  1  0  0  0  0
 71 72  1  0  0  0  0
 70 73  1  0  0  0  0
 73 74  2  0  0  0  0
 74 75  1  0  0  0  0
 75 76  2  0  0  0  0
 75 77  1  0  0  0  0
 77 78  2  0  0  0  0
 78 79  1  0  0  0  0
 79 80  2  0  0  0  0
 80 81  1  0  0  0  0
 81 82  2  0  0  0  0
 82 83  1  0  0  0  0
 83 84  2  0  0  0  0
 84 85  1  0  0  0  0
 85 86  3  0  0  0  0
 84 87  1  0  0  0  0
 87 88  3  0  0  0  0
 15  2  1  0  0  0  0
 66 21  1  0  0  0  0
 72 68  2  0  0  0  0
 83 74  1  0  0  0  0
 14  5  1  0  0  0  0
 65 23  2  0  0  0  0
 82 77  1  0  0  0  0
 64 25  2  0  0  0  0
 48 26  1  0  0  0  0
 56 50  1  0  0  0  0
 63 57  1  0  0  0  0
 46 28  2  0  0  0  0
 36 30  1  0  0  0  0
 43 37  1  0  0  0  0
 72 44  1  0  0  0  0
  1 89  1  0  0  0  0
 22 90  1  0  0  0  0
 27 91  1  0  0  0  0
 31 92  1  0  0  0  0
 32 93  1  0  0  0  0
 34 94  1  0  0  0  0
 34 95  1  0  0  0  0
 35 96  1  0  0  0  0
 35 97  1  0  0  0  0
 35 98  1  0  0  0  0
 38 99  1  0  0  0  0
 39100  1  0  0  0  0
 41101  1  0  0  0  0
 41102  1  0  0  0  0
 42103  1  0  0  0  0
 42104  1  0  0  0  0
 42105  1  0  0  0  0
 47106  1  0  0  0  0
 51107  1  0  0  0  0
 52108  1  0  0  0  0
 54109  1  0  0  0  0
 54110  1  0  0  0  0
 55111  1  0  0  0  0
 55112  1  0  0  0  0
 55113  1  0  0  0  0
 58114  1  0  0  0  0
 59115  1  0  0  0  0
 61116  1  0  0  0  0
 61117  1  0  0  0  0
 62118  1  0  0  0  0
 62119  1  0  0  0  0
 62120  1  0  0  0  0
 69121  1  0  0  0  0
 73122  1  0  0  0  0
 78123  1  0  0  0  0
 79124  1  0  0  0  0
 80125  1  0  0  0  0
 81126  1  0  0  0  0
M  END
