113

C         -7.15350        7.41020        2.02130
C         -7.60220        8.03910        0.90190
C         -8.92460        8.71030        0.89140
O         -9.59430        9.01230        1.84870
C         -9.26310        8.85380       -0.54760
C        -10.45500        9.25540       -1.12630
Cl       -11.75750        9.81660       -0.17820
C        -10.57300        9.18230       -2.52210
Cl       -12.01870        9.69000       -3.28040
C         -9.53100        8.66480       -3.29110
Cl        -9.73310        8.50590       -4.98090
C         -8.32280        8.26150       -2.70050
Cl        -7.13310        7.49820       -3.67160
C         -8.17560        8.41110       -1.32960
C         -7.05050        8.14730       -0.43540
C         -5.72620        8.35500       -0.70790
C         -4.73630        8.33820        0.30180
N         -3.90880        8.38230        1.09530
C         -5.19240        8.80470       -1.93420
N         -4.67600        9.23410       -2.86410
C         -6.14790        6.42390        2.13180
S         -5.56190        5.50320        0.75360
C         -4.49760        4.59420        1.76610
C         -3.60940        3.59990        1.34900
S         -3.44130        3.06990       -0.31060
C         -2.21380        1.97250        0.18560
C         -1.40440        0.98140       -0.38130
C         -1.41290        0.41830       -1.67590
C         -0.60700       -0.73980       -1.92440
N         -0.76400       -1.21210       -3.15100
S         -1.82920       -0.27390       -3.92860
N         -2.13600        0.76830       -2.72790
C          0.26060       -1.19300       -0.90720
C          1.21690       -2.21860       -0.91300
S          1.78280       -3.44990       -1.97090
C          2.96530       -3.91600       -0.76710
C          3.88500       -4.95730       -0.93900
C          4.80740       -5.30480        0.07210
C          4.75890       -4.55320        1.27340
N          5.47800       -4.63970        2.39220
N          5.00490       -3.69490        3.15980
C          5.49290       -3.48420        4.49190
C          4.74280       -4.36650        5.48550
N          4.02670       -2.97840        2.66000
C          3.82760       -3.48670        1.43900
C          2.91170       -3.14030        0.41070
C          1.89950       -2.16210        0.30450
N          1.38570       -1.14690        1.07700
C          0.35730       -0.54900        0.35760
C         -0.58310        0.47410        0.66660
N         -0.94410        1.11130        1.83750
C         -1.93230        2.01790        1.55480
C         -2.74940        2.93570        2.25180
C         -2.87500        3.29590        3.61850
C         -3.79110        4.30540        4.04110
C         -4.61540        4.98570        3.11340
C         -5.56030        5.99800        3.30490
N         -3.69070        4.41390        5.36650
N         -2.78730        3.53080        5.69780
C         -2.34860        3.36480        7.05320
C         -1.06760        4.15590        7.30150
N         -2.26700        2.83650        4.71780
C         -0.55060        0.83180        3.19700
C          0.46130        1.85570        3.71420
C          2.26000       -0.52150        2.04830
C          3.12160        0.55060        1.38160
C          5.62940       -6.36030       -0.30530
C          5.37230       -6.83280       -1.58850
S          4.06130       -5.94390       -2.34630
C          6.11490       -7.88730       -2.14640
C          6.04920       -8.46710       -3.38630
C          5.13260       -8.08150       -4.46760
O          4.26440       -7.23100       -4.44170
C          5.47560       -8.94470       -5.61680
C          4.91080       -8.95780       -6.87480
C          5.41560       -9.86980       -7.79480
Cl         4.75070       -9.93010       -9.38250
C          6.45010      -10.73480       -7.45550
C          7.01010      -10.71370       -6.18710
C          6.52160       -9.81060       -5.25360
C          6.89310       -9.54710       -3.86470
C          7.86220      -10.22090       -3.16710
C          8.22490       -9.99600       -1.82250
N          8.58290       -9.88540       -0.73630
C          8.64620      -11.26240       -3.70760
N          9.32120      -12.11280       -4.08090
H         -7.69320        7.63650        2.93530
H          5.35060       -2.42840        4.73110
H          6.55650       -3.72980        4.49400
H          5.13000       -4.20520        6.48740
H          3.68190       -4.12850        5.47600
H          4.87090       -5.41390        5.22450
H         -5.78190        6.42490        4.26590
H         -3.15300        3.72240        7.69760
H         -2.17660        2.29960        7.22240
H         -0.74910        4.02800        8.33190
H         -0.27660        3.80580        6.64270
H         -1.23750        5.21360        7.11640
H         -1.44560        0.89880        3.82090
H         -0.17950       -0.19270        3.24900
H         -0.04320        2.80340        3.87520
H          0.87630        1.52320        4.66190
H          1.26930        2.01700        3.00600
H          1.69370       -0.08860        2.86330
H          2.89770       -1.30890        2.45560
H          3.74190        0.10810        0.60550
H          2.49870        1.31760        0.92400
H          3.77000        1.01680        2.11870
H          6.39470       -6.77180        0.32820
H          6.86230       -8.27660       -1.46550
H          4.10910       -8.28140       -7.12590
H          6.82030      -11.43080       -8.19180
H          7.81100      -11.39480       -5.95160
