
  xtb     02012219143D
 energy: -233.380932219446 gnorm: 0.000229691896 xtb: 6.4.1 (unknown)
117132  0     0  0            999 V2000
    6.0192   -7.3006   -2.6281 C   0  0  0  0  0  0  0  0  0  0  0  0
    6.3911   -6.1205   -3.3523 C   0  0  0  0  0  0  0  0  0  0  0  0
    6.7424   -4.8837   -2.7469 C   0  0  0  0  0  0  0  0  0  0  0  0
    6.9175   -4.5765   -1.5407 O   0  0  0  0  0  0  0  0  0  0  0  0
    6.8813   -3.8982   -3.8336 C   0  0  0  0  0  0  0  0  0  0  0  0
    7.2310   -2.5636   -3.7550 C   0  0  0  0  0  0  0  0  0  0  0  0
    7.4000   -1.7599   -2.2571 Cl  0  0  0  0  0  0  0  0  0  0  0  0
    7.4471   -1.8703   -4.9559 C   0  0  0  0  0  0  0  0  0  0  0  0
    7.8451   -0.2074   -4.9168 Cl  0  0  0  0  0  0  0  0  0  0  0  0
    7.3846   -2.5435   -6.1708 C   0  0  0  0  0  0  0  0  0  0  0  0
    7.7583   -1.7019   -7.6141 Cl  0  0  0  0  0  0  0  0  0  0  0  0
    7.0301   -3.9042   -6.2381 C   0  0  0  0  0  0  0  0  0  0  0  0
    7.1530   -4.6892   -7.7582 Cl  0  0  0  0  0  0  0  0  0  0  0  0
    6.6911   -4.5596   -5.0651 C   0  0  0  0  0  0  0  0  0  0  0  0
    6.2536   -5.9294   -4.7672 C   0  0  0  0  0  0  0  0  0  0  0  0
    5.6821   -6.8077   -5.6635 C   0  0  0  0  0  0  0  0  0  0  0  0
    5.1321   -6.4647   -6.9144 C   0  0  0  0  0  0  0  0  0  0  0  0
    4.5392   -6.2757   -7.8802 N   0  0  0  0  0  0  0  0  0  0  0  0
    5.4096   -8.1637   -5.3984 C   0  0  0  0  0  0  0  0  0  0  0  0
    5.1946   -9.2876   -5.2828 N   0  0  0  0  0  0  0  0  0  0  0  0
    6.2697   -7.4184   -1.3286 C   0  0  0  0  0  0  0  0  0  0  0  0
    6.9192   -6.2643   -0.1875 S   0  0  0  0  0  0  0  0  0  0  0  0
    5.2315   -5.8595    0.3370 C   0  0  0  0  0  0  0  0  0  0  0  0
    4.4411   -4.7349    0.4446 C   0  0  0  0  0  0  0  0  0  0  0  0
    4.9007   -3.1084    0.0322 S   0  0  0  0  0  0  0  0  0  0  0  0
    3.3054   -2.5992    0.4347 C   0  0  0  0  0  0  0  0  0  0  0  0
    2.5812   -1.4029    0.4729 C   0  0  0  0  0  0  0  0  0  0  0  0
    3.0086   -0.0831    0.2204 C   0  0  0  0  0  0  0  0  0  0  0  0
    2.0899    0.9873    0.4548 C   0  0  0  0  0  0  0  0  0  0  0  0
    2.6268    2.1760    0.2251 N   0  0  0  0  0  0  0  0  0  0  0  0
    4.1583    1.9602   -0.2532 S   0  0  0  0  0  0  0  0  0  0  0  0
    4.1966    0.3429   -0.1806 N   0  0  0  0  0  0  0  0  0  0  0  0
    0.7718    0.6699    0.8450 C   0  0  0  0  0  0  0  0  0  0  0  0
   -0.3282    1.5127    1.0554 C   0  0  0  0  0  0  0  0  0  0  0  0
   -0.7004    3.1896    0.9785 S   0  0  0  0  0  0  0  0  0  0  0  0
   -2.3689    2.8156    1.3510 C   0  0  0  0  0  0  0  0  0  0  0  0
   -3.3859    3.7759    1.4188 C   0  0  0  0  0  0  0  0  0  0  0  0
   -4.7109    3.4280    1.7553 C   0  0  0  0  0  0  0  0  0  0  0  0
   -4.9636    2.0627    2.0413 C   0  0  0  0  0  0  0  0  0  0  0  0
   -6.0776    1.4371    2.4203 N   0  0  0  0  0  0  0  0  0  0  0  0
   -5.7288    0.1829    2.5285 N   0  0  0  0  0  0  0  0  0  0  0  0
   -6.6462   -0.8213    2.9829 C   0  0  0  0  0  0  0  0  0  0  0  0
   -6.6343   -0.9072    4.5066 C   0  0  0  0  0  0  0  0  0  0  0  0
   -4.4761   -0.0956    2.2561 N   0  0  0  0  0  0  0  0  0  0  0  0
   -3.9332    1.0829    1.9307 C   0  0  0  0  0  0  0  0  0  0  0  0
   -2.6118    1.4411    1.5545 C   0  0  0  0  0  0  0  0  0  0  0  0
   -1.4243    0.7027    1.3514 C   0  0  0  0  0  0  0  0  0  0  0  0
   -1.0423   -0.6184    1.3290 N   0  0  0  0  0  0  0  0  0  0  0  0
    0.3141   -0.6668    1.0254 C   0  0  0  0  0  0  0  0  0  0  0  0
    1.2665   -1.7241    0.9172 C   0  0  0  0  0  0  0  0  0  0  0  0
    1.2320   -3.0843    1.1712 N   0  0  0  0  0  0  0  0  0  0  0  0
    2.4587   -3.6204    0.8681 C   0  0  0  0  0  0  0  0  0  0  0  0
    3.0943   -4.8864    0.8833 C   0  0  0  0  0  0  0  0  0  0  0  0
    2.6723   -6.2009    1.1888 C   0  0  0  0  0  0  0  0  0  0  0  0
    3.5166   -7.3563    0.9972 C   0  0  0  0  0  0  0  0  0  0  0  0
    4.8213   -7.1608    0.5501 C   0  0  0  0  0  0  0  0  0  0  0  0
    6.0133   -7.9019    0.0422 C   0  0  0  0  0  0  0  0  0  0  0  0
    2.8056   -8.4368    1.3436 N   0  0  0  0  0  0  0  0  0  0  0  0
    1.6506   -7.9588    1.7098 N   0  0  0  0  0  0  0  0  0  0  0  0
    0.5713   -8.8166    2.1069 C   0  0  0  0  0  0  0  0  0  0  0  0
   -0.3532   -9.0898    0.9239 C   0  0  0  0  0  0  0  0  0  0  0  0
    1.5012   -6.6626    1.6474 N   0  0  0  0  0  0  0  0  0  0  0  0
    0.2159   -3.8880    1.8055 C   0  0  0  0  0  0  0  0  0  0  0  0
   -0.6285   -4.6494    0.7821 C   0  0  0  0  0  0  0  0  0  0  0  0
   -2.0730   -1.5967    1.0533 C   0  0  0  0  0  0  0  0  0  0  0  0
   -2.3907   -1.6327   -0.4420 C   0  0  0  0  0  0  0  0  0  0  0  0
   -5.5659    4.5255    1.7254 C   0  0  0  0  0  0  0  0  0  0  0  0
   -4.9384    5.7064    1.3471 C   0  0  0  0  0  0  0  0  0  0  0  0
   -3.2263    5.4578    1.0549 S   0  0  0  0  0  0  0  0  0  0  0  0
   -5.6561    6.9082    1.1966 C   0  0  0  0  0  0  0  0  0  0  0  0
   -5.2544    8.1279    0.7253 C   0  0  0  0  0  0  0  0  0  0  0  0
   -3.9021    8.4647    0.2439 C   0  0  0  0  0  0  0  0  0  0  0  0
   -2.9044    7.7687    0.2988 O   0  0  0  0  0  0  0  0  0  0  0  0
   -3.9997    9.8141   -0.3218 C   0  0  0  0  0  0  0  0  0  0  0  0
   -3.0306   10.5690   -0.9518 C   0  0  0  0  0  0  0  0  0  0  0  0
   -3.3650   11.8218   -1.4397 C   0  0  0  0  0  0  0  0  0  0  0  0
   -4.6645   12.3122   -1.2937 C   0  0  0  0  0  0  0  0  0  0  0  0
   -5.0862   13.5119   -1.7449 O   0  0  0  0  0  0  0  0  0  0  0  0
   -4.1818   14.3518   -2.4250 C   0  0  0  0  0  0  0  0  0  0  0  0
   -5.6467   11.5472   -0.6439 C   0  0  0  0  0  0  0  0  0  0  0  0
   -5.3117   10.3013   -0.1603 C   0  0  0  0  0  0  0  0  0  0  0  0
   -6.1064    9.2865    0.5332 C   0  0  0  0  0  0  0  0  0  0  0  0
   -7.4070    9.4405    0.9348 C   0  0  0  0  0  0  0  0  0  0  0  0
   -8.1737    8.4845    1.6338 C   0  0  0  0  0  0  0  0  0  0  0  0
   -8.8668    7.7696    2.2071 N   0  0  0  0  0  0  0  0  0  0  0  0
   -8.1719   10.6067    0.7184 C   0  0  0  0  0  0  0  0  0  0  0  0
   -8.8574   11.5172    0.5808 N   0  0  0  0  0  0  0  0  0  0  0  0
    5.5288   -8.1080   -3.1535 H   0  0  0  0  0  0  0  0  0  0  0  0
   -6.3403   -1.7719    2.5414 H   0  0  0  0  0  0  0  0  0  0  0  0
   -7.6397   -0.5436    2.6261 H   0  0  0  0  0  0  0  0  0  0  0  0
   -5.6394   -1.1650    4.8619 H   0  0  0  0  0  0  0  0  0  0  0  0
   -6.9239    0.0487    4.9357 H   0  0  0  0  0  0  0  0  0  0  0  0
   -7.3344   -1.6677    4.8397 H   0  0  0  0  0  0  0  0  0  0  0  0
    6.3719   -8.8450    0.4188 H   0  0  0  0  0  0  0  0  0  0  0  0
    0.0248   -8.3174    2.9098 H   0  0  0  0  0  0  0  0  0  0  0  0
    1.0138   -9.7449    2.4713 H   0  0  0  0  0  0  0  0  0  0  0  0
    0.1975   -9.5712    0.1196 H   0  0  0  0  0  0  0  0  0  0  0  0
   -0.7759   -8.1589    0.5538 H   0  0  0  0  0  0  0  0  0  0  0  0
   -1.1629   -9.7441    1.2328 H   0  0  0  0  0  0  0  0  0  0  0  0
    0.7251   -4.6222    2.4348 H   0  0  0  0  0  0  0  0  0  0  0  0
   -0.3824   -3.2486    2.4566 H   0  0  0  0  0  0  0  0  0  0  0  0
   -0.9668   -4.0025   -0.0217 H   0  0  0  0  0  0  0  0  0  0  0  0
   -1.4907   -5.0973    1.2689 H   0  0  0  0  0  0  0  0  0  0  0  0
   -0.0277   -5.4434    0.3493 H   0  0  0  0  0  0  0  0  0  0  0  0
   -1.7817   -2.5804    1.3954 H   0  0  0  0  0  0  0  0  0  0  0  0
   -2.9623   -1.2880    1.6079 H   0  0  0  0  0  0  0  0  0  0  0  0
   -1.4994   -1.8676   -1.0218 H   0  0  0  0  0  0  0  0  0  0  0  0
   -2.7645   -0.6660   -0.7711 H   0  0  0  0  0  0  0  0  0  0  0  0
   -3.1506   -2.3833   -0.6422 H   0  0  0  0  0  0  0  0  0  0  0  0
   -6.6151    4.4662    1.9539 H   0  0  0  0  0  0  0  0  0  0  0  0
   -6.7007    6.8070    1.4663 H   0  0  0  0  0  0  0  0  0  0  0  0
   -2.0305   10.1793   -1.0629 H   0  0  0  0  0  0  0  0  0  0  0  0
   -2.6095   12.4100   -1.9355 H   0  0  0  0  0  0  0  0  0  0  0  0
   -4.7521   15.2402   -2.6901 H   0  0  0  0  0  0  0  0  0  0  0  0
   -3.3418   14.6387   -1.7852 H   0  0  0  0  0  0  0  0  0  0  0  0
   -3.8039   13.8789   -3.3366 H   0  0  0  0  0  0  0  0  0  0  0  0
   -6.6346   11.9667   -0.5554 H   0  0  0  0  0  0  0  0  0  0  0  0
  1  2  2  0  0  0  0
  2  3  1  0  0  0  0
  3  4  2  0  0  0  0
  3  5  1  0  0  0  0
  5  6  2  0  0  0  0
  6  7  1  0  0  0  0
  6  8  1  0  0  0  0
  8  9  1  0  0  0  0
  8 10  2  0  0  0  0
 10 11  1  0  0  0  0
 10 12  1  0  0  0  0
 12 13  1  0  0  0  0
 12 14  2  0  0  0  0
 14 15  1  0  0  0  0
 15 16  2  0  0  0  0
 16 17  1  0  0  0  0
 17 18  3  0  0  0  0
 16 19  1  0  0  0  0
 19 20  3  0  0  0  0
  1 21  1  0  0  0  0
 21 22  1  0  0  0  0
 22 23  1  0  0  0  0
 23 24  1  0  0  0  0
 24 25  1  0  0  0  0
 25 26  1  0  0  0  0
 26 27  1  0  0  0  0
 27 28  1  0  0  0  0
 28 29  1  0  0  0  0
 29 30  2  0  0  0  0
 30 31  1  0  0  0  0
 31 32  1  0  0  0  0
 29 33  1  0  0  0  0
 33 34  1  0  0  0  0
 34 35  1  0  0  0  0
 35 36  1  0  0  0  0
 36 37  1  0  0  0  0
 37 38  2  0  0  0  0
 38 39  1  0  0  0  0
 39 40  2  0  0  0  0
 40 41  1  0  0  0  0
 41 42  1  0  0  0  0
 42 43  1  0  0  0  0
 41 44  1  0  0  0  0
 44 45  2  0  0  0  0
 45 46  1  0  0  0  0
 46 47  1  0  0  0  0
 47 48  1  0  0  0  0
 48 49  1  0  0  0  0
 49 50  1  0  0  0  0
 50 51  1  0  0  0  0
 51 52  1  0  0  0  0
 52 53  1  0  0  0  0
 53 54  1  0  0  0  0
 54 55  1  0  0  0  0
 55 56  1  0  0  0  0
 56 57  1  0  0  0  0
 55 58  2  0  0  0  0
 58 59  1  0  0  0  0
 59 60  1  0  0  0  0
 60 61  1  0  0  0  0
 59 62  1  0  0  0  0
 51 63  1  0  0  0  0
 63 64  1  0  0  0  0
 48 65  1  0  0  0  0
 65 66  1  0  0  0  0
 38 67  1  0  0  0  0
 67 68  2  0  0  0  0
 68 69  1  0  0  0  0
 68 70  1  0  0  0  0
 70 71  2  0  0  0  0
 71 72  1  0  0  0  0
 72 73  2  0  0  0  0
 72 74  1  0  0  0  0
 74 75  2  0  0  0  0
 75 76  1  0  0  0  0
 76 77  2  0  0  0  0
 77 78  1  0  0  0  0
 78 79  1  0  0  0  0
 77 80  1  0  0  0  0
 80 81  2  0  0  0  0
 81 82  1  0  0  0  0
 82 83  2  0  0  0  0
 83 84  1  0  0  0  0
 84 85  3  0  0  0  0
 83 86  1  0  0  0  0
 86 87  3  0  0  0  0
 15  2  1  0  0  0  0
 57 21  2  0  0  0  0
 82 71  1  0  0  0  0
 14  5  1  0  0  0  0
 56 23  2  0  0  0  0
 81 74  1  0  0  0  0
 53 24  2  0  0  0  0
 62 54  2  0  0  0  0
 52 26  2  0  0  0  0
 50 27  2  0  0  0  0
 32 28  2  0  0  0  0
 49 33  2  0  0  0  0
 47 34  2  0  0  0  0
 46 36  2  0  0  0  0
 69 37  1  0  0  0  0
 45 39  1  0  0  0  0
  1 88  1  0  0  0  0
 42 89  1  0  0  0  0
 42 90  1  0  0  0  0
 43 91  1  0  0  0  0
 43 92  1  0  0  0  0
 43 93  1  0  0  0  0
 57 94  1  0  0  0  0
 60 95  1  0  0  0  0
 60 96  1  0  0  0  0
 61 97  1  0  0  0  0
 61 98  1  0  0  0  0
 61 99  1  0  0  0  0
 63100  1  0  0  0  0
 63101  1  0  0  0  0
 64102  1  0  0  0  0
 64103  1  0  0  0  0
 64104  1  0  0  0  0
 65105  1  0  0  0  0
 65106  1  0  0  0  0
 66107  1  0  0  0  0
 66108  1  0  0  0  0
 66109  1  0  0  0  0
 67110  1  0  0  0  0
 70111  1  0  0  0  0
 75112  1  0  0  0  0
 76113  1  0  0  0  0
 79114  1  0  0  0  0
 79115  1  0  0  0  0
 79116  1  0  0  0  0
 80117  1  0  0  0  0
M  END
