106

C          3.64390        4.35900        1.94530
C          3.50530        5.05790        3.11900
C          2.36570        4.99200        4.03420
O          1.29680        4.44330        3.85170
C          2.78650        5.71690        5.25520
C          2.11870        5.83790        6.46060
Cl         0.52610        5.25980        6.65880
C          2.79220        6.44150        7.53250
Cl         1.99880        6.64200        9.03340
C          4.12170        6.83480        7.39010
Cl         4.95510        7.47090        8.74160
C          4.79530        6.70380        6.16420
Cl         6.47620        7.04110        6.12030
C          4.09500        6.20900        5.07160
C          4.47830        5.97830        3.67970
C          5.43420        6.66140        2.97460
C          6.11170        7.82080        3.41180
N          6.63080        8.82210        3.62330
C          5.76390        6.41210        1.62380
N          6.10410        6.26430        0.53700
C          2.78660        3.44620        1.32080
C          3.16100        2.76210        0.15230
C          2.19090        1.88910       -0.28680
C          2.05520        0.84080       -1.36090
C          3.22300       -0.15400       -1.15950
C          3.41510       -1.21600       -2.23300
C          1.98840        1.44610       -2.77540
C          3.21600        2.25150       -3.17960
C          0.69910        0.24140       -0.99900
C          0.13990        0.89980        0.11400
C          1.06770        1.89520        0.54400
S          1.18430        2.96900        1.86170
C         -1.11230        0.57240        0.65910
O         -1.62630        1.36610        1.65840
C         -2.53060        2.38170        1.23310
C         -1.86370        3.58860        0.58460
C         -1.70800       -0.58700        0.18990
C         -1.14990       -1.25420       -0.93660
C         -0.01300       -0.77600       -1.62130
O          0.44720       -1.27940       -2.79880
C         -0.45110       -1.43600       -3.89170
C         -1.40200       -0.26140       -4.07420
C         -1.89330       -2.46030       -1.13220
C         -2.89200       -2.56650       -0.16160
C         -2.87330       -1.38590        0.76690
C         -2.53800       -1.93930        2.17680
C         -2.70050       -0.97560        3.34460
C         -4.22710       -0.66190        0.74670
C         -4.63540       -0.23210       -0.65850
C         -3.59490       -3.74550       -0.23960
C         -3.12670       -4.58890       -1.25880
S         -1.78950       -3.85160       -2.12650
C         -3.67740       -5.85180       -1.49540
C         -3.30230       -6.83920       -2.37420
C         -2.16470       -6.78880       -3.29050
O         -1.45740       -5.83280       -3.54630
C         -2.02210       -8.15800       -3.83440
C         -1.02550       -8.66360       -4.64970
Cl         0.17640       -7.65440       -5.31830
C         -1.01730      -10.04210       -4.90730
Cl         0.17590      -10.71040       -5.93320
C         -1.95100      -10.87360       -4.29150
Cl        -1.85650      -12.56360       -4.53760
C         -2.95730      -10.35350       -3.45990
Cl        -3.95120      -11.45550       -2.60060
C         -3.03390       -8.97700       -3.29200
C         -3.95260       -8.12690       -2.53610
C         -5.25850       -8.40770       -2.23050
C         -6.11310       -7.54640       -1.50720
N         -6.86640       -6.91360       -0.91480
C         -6.00780       -9.49700       -2.72680
N         -6.73140      -10.27630       -3.15800
H          4.58340        4.48500        1.42020
H          4.11970        2.92370       -0.30740
H          4.14090        0.43180       -1.07810
H          3.06580       -0.64530       -0.19550
H          4.23830       -1.86570       -1.94280
H          3.66210       -0.76870       -3.19160
H          2.52430       -1.82150       -2.35230
H          1.11050        2.09750       -2.81790
H          1.83520        0.62940       -3.47970
H          3.10370        2.59210       -4.20660
H          3.33280        3.12680       -2.54640
H          4.11990        1.65250       -3.11930
H         -3.26360        1.96110        0.53540
H         -3.04160        2.68670        2.14940
H         -1.20050        4.08150        1.28910
H         -1.29250        3.29000       -0.29230
H         -2.63320        4.29110        0.27450
H          0.21520       -1.52350       -4.75430
H         -1.01700       -2.36930       -3.80520
H         -0.84700        0.67270       -4.12850
H         -1.95950       -0.39380       -4.99680
H         -2.10810       -0.20060       -3.24870
H         -1.50750       -2.30220        2.15110
H         -3.18630       -2.80210        2.34800
H         -2.35960       -1.46470        4.25450
H         -3.74250       -0.69960        3.48350
H         -2.11310       -0.07590        3.19890
H         -4.98020       -1.34480        1.14540
H         -4.18150        0.20480        1.40320
H         -5.57340        0.31720       -0.62500
H         -4.77010       -1.09790       -1.30320
H         -3.87710        0.40860       -1.10650
H         -4.41590       -4.02850        0.39520
H         -4.50540       -6.08260       -0.83570
