
  xtb     02102219393D
 energy: -227.345465258418 gnorm: 0.000255270869 xtb: 6.4.1 (unknown)
113128  0     0  0            999 V2000
   -3.4431   -7.5984   -5.8493 C   0  0  0  0  0  0  0  0  0  0  0  0
   -4.5669   -8.3766   -5.7825 C   0  0  0  0  0  0  0  0  0  0  0  0
   -5.8157   -8.1384   -5.0318 C   0  0  0  0  0  0  0  0  0  0  0  0
   -6.2349   -7.1072   -4.5581 O   0  0  0  0  0  0  0  0  0  0  0  0
   -6.4740   -9.4670   -4.9414 C   0  0  0  0  0  0  0  0  0  0  0  0
   -7.5904   -9.8246   -4.2060 C   0  0  0  0  0  0  0  0  0  0  0  0
   -8.5100   -8.6651   -3.3574 Cl  0  0  0  0  0  0  0  0  0  0  0  0
   -7.9480  -11.1797   -4.1605 C   0  0  0  0  0  0  0  0  0  0  0  0
   -9.3340  -11.6663   -3.2855 Cl  0  0  0  0  0  0  0  0  0  0  0  0
   -7.1524  -12.1357   -4.7898 C   0  0  0  0  0  0  0  0  0  0  0  0
   -7.5536  -13.7912   -4.6367 Cl  0  0  0  0  0  0  0  0  0  0  0  0
   -6.0197  -11.7667   -5.5333 C   0  0  0  0  0  0  0  0  0  0  0  0
   -4.9968  -13.0049   -6.1350 Cl  0  0  0  0  0  0  0  0  0  0  0  0
   -5.7223  -10.4162   -5.6616 C   0  0  0  0  0  0  0  0  0  0  0  0
   -4.6616   -9.7061   -6.3694 C   0  0  0  0  0  0  0  0  0  0  0  0
   -4.0318  -10.1031   -7.5172 C   0  0  0  0  0  0  0  0  0  0  0  0
   -4.3648  -11.2340   -8.2948 C   0  0  0  0  0  0  0  0  0  0  0  0
   -4.6203  -12.0659   -9.0425 N   0  0  0  0  0  0  0  0  0  0  0  0
   -3.0683   -9.3243   -8.1995 C   0  0  0  0  0  0  0  0  0  0  0  0
   -2.2845   -8.7544   -8.8142 N   0  0  0  0  0  0  0  0  0  0  0  0
   -3.1790   -6.3136   -5.3368 C   0  0  0  0  0  0  0  0  0  0  0  0
   -1.4848   -5.8143   -5.3226 S   0  0  0  0  0  0  0  0  0  0  0  0
   -1.8909   -4.3148   -4.5758 C   0  0  0  0  0  0  0  0  0  0  0  0
   -0.9982   -3.3312   -4.1401 C   0  0  0  0  0  0  0  0  0  0  0  0
    0.7436   -3.4701   -4.2581 S   0  0  0  0  0  0  0  0  0  0  0  0
    0.9012   -1.9797   -3.4151 C   0  0  0  0  0  0  0  0  0  0  0  0
    1.9176   -1.2095   -2.8365 C   0  0  0  0  0  0  0  0  0  0  0  0
    3.2934   -1.4770   -2.6554 C   0  0  0  0  0  0  0  0  0  0  0  0
    4.0287   -0.6889   -1.7072 C   0  0  0  0  0  0  0  0  0  0  0  0
    5.2738   -1.1115   -1.5577 N   0  0  0  0  0  0  0  0  0  0  0  0
    5.5063   -2.3824   -2.5330 S   0  0  0  0  0  0  0  0  0  0  0  0
    4.0220   -2.4501   -3.1773 N   0  0  0  0  0  0  0  0  0  0  0  0
    3.3884    0.4090   -1.0915 C   0  0  0  0  0  0  0  0  0  0  0  0
    3.8208    1.3204   -0.1141 C   0  0  0  0  0  0  0  0  0  0  0  0
    5.1679    1.5655    0.9290 S   0  0  0  0  0  0  0  0  0  0  0  0
    4.3375    2.9224    1.6609 C   0  0  0  0  0  0  0  0  0  0  0  0
    4.8069    3.6371    2.7681 C   0  0  0  0  0  0  0  0  0  0  0  0
    4.0592    4.6715    3.3621 C   0  0  0  0  0  0  0  0  0  0  0  0
    2.8185    4.9924    2.7623 C   0  0  0  0  0  0  0  0  0  0  0  0
    1.8989    5.9054    3.0786 N   0  0  0  0  0  0  0  0  0  0  0  0
    0.9405    5.7154    2.2115 N   0  0  0  0  0  0  0  0  0  0  0  0
   -0.2714    6.4817    2.2451 C   0  0  0  0  0  0  0  0  0  0  0  0
   -1.2986    5.8201    3.1594 C   0  0  0  0  0  0  0  0  0  0  0  0
    1.1248    4.7532    1.3412 N   0  0  0  0  0  0  0  0  0  0  0  0
    2.3274    4.2537    1.6462 C   0  0  0  0  0  0  0  0  0  0  0  0
    3.0794    3.1923    1.0840 C   0  0  0  0  0  0  0  0  0  0  0  0
    2.7992    2.2538    0.0702 C   0  0  0  0  0  0  0  0  0  0  0  0
    1.7425    1.9602   -0.7591 N   0  0  0  0  0  0  0  0  0  0  0  0
    2.0643    0.7927   -1.4380 C   0  0  0  0  0  0  0  0  0  0  0  0
    1.2781   -0.1053   -2.2071 C   0  0  0  0  0  0  0  0  0  0  0  0
   -0.0838   -0.2343   -2.3801 N   0  0  0  0  0  0  0  0  0  0  0  0
   -0.3223   -1.3783   -3.0960 C   0  0  0  0  0  0  0  0  0  0  0  0
   -1.4337   -2.1527   -3.4950 C   0  0  0  0  0  0  0  0  0  0  0  0
   -2.8359   -2.0067   -3.3293 C   0  0  0  0  0  0  0  0  0  0  0  0
   -3.7455   -3.0113   -3.7755 C   0  0  0  0  0  0  0  0  0  0  0  0
   -3.2860   -4.2007   -4.3928 C   0  0  0  0  0  0  0  0  0  0  0  0
   -3.9947   -5.3243   -4.8213 C   0  0  0  0  0  0  0  0  0  0  0  0
   -4.9778   -2.6030   -3.4740 N   0  0  0  0  0  0  0  0  0  0  0  0
   -4.8061   -1.4457   -2.8952 N   0  0  0  0  0  0  0  0  0  0  0  0
   -5.9070   -0.6871   -2.3756 C   0  0  0  0  0  0  0  0  0  0  0  0
   -6.1721   -1.0559   -0.9189 C   0  0  0  0  0  0  0  0  0  0  0  0
   -3.5684   -1.0362   -2.7718 N   0  0  0  0  0  0  0  0  0  0  0  0
   -1.1509    0.5485   -1.8056 C   0  0  0  0  0  0  0  0  0  0  0  0
   -1.7829    1.4813   -2.8410 C   0  0  0  0  0  0  0  0  0  0  0  0
    0.9322    3.0559   -1.2541 C   0  0  0  0  0  0  0  0  0  0  0  0
    1.7764    4.0125   -2.0975 C   0  0  0  0  0  0  0  0  0  0  0  0
    4.6408    5.1556    4.5388 C   0  0  0  0  0  0  0  0  0  0  0  0
    5.8227    4.5240    4.8580 C   0  0  0  0  0  0  0  0  0  0  0  0
    6.2650    3.3388    3.6428 S   0  0  0  0  0  0  0  0  0  0  0  0
    6.6713    4.7239    5.9731 C   0  0  0  0  0  0  0  0  0  0  0  0
    6.3457    5.1958    7.2074 C   0  0  0  0  0  0  0  0  0  0  0  0
    7.4380    5.6869    8.1031 C   0  0  0  0  0  0  0  0  0  0  0  0
    8.6281    5.5482    7.9293 O   0  0  0  0  0  0  0  0  0  0  0  0
    6.7444    6.3975    9.1793 C   0  0  0  0  0  0  0  0  0  0  0  0
    5.3267    6.2597    9.0086 C   0  0  0  0  0  0  0  0  0  0  0  0
    4.6165    6.8963    9.9766 C   0  0  0  0  0  0  0  0  0  0  0  0
    5.6707    7.6739   11.1023 S   0  0  0  0  0  0  0  0  0  0  0  0
    7.1055    7.1267   10.2695 C   0  0  0  0  0  0  0  0  0  0  0  0
    8.4660    7.4473   10.7547 C   0  0  0  0  0  0  0  0  0  0  0  0
    5.0680    5.4090    7.8629 C   0  0  0  0  0  0  0  0  0  0  0  0
    3.8754    4.7683    7.6423 C   0  0  0  0  0  0  0  0  0  0  0  0
    2.7339    5.0613    8.4149 C   0  0  0  0  0  0  0  0  0  0  0  0
    1.7870    5.3066    9.0159 N   0  0  0  0  0  0  0  0  0  0  0  0
    3.6638    3.7224    6.7252 C   0  0  0  0  0  0  0  0  0  0  0  0
    3.4331    2.8279    6.0429 N   0  0  0  0  0  0  0  0  0  0  0  0
   -2.5774   -8.0593   -6.3121 H   0  0  0  0  0  0  0  0  0  0  0  0
   -0.0188    7.4772    2.6147 H   0  0  0  0  0  0  0  0  0  0  0  0
   -0.6502    6.5455    1.2229 H   0  0  0  0  0  0  0  0  0  0  0  0
   -1.5369    4.8223    2.7989 H   0  0  0  0  0  0  0  0  0  0  0  0
   -2.2086    6.4126    3.1821 H   0  0  0  0  0  0  0  0  0  0  0  0
   -0.9046    5.7428    4.1696 H   0  0  0  0  0  0  0  0  0  0  0  0
   -5.0623   -5.4120   -4.7476 H   0  0  0  0  0  0  0  0  0  0  0  0
   -5.6507    0.3708   -2.4629 H   0  0  0  0  0  0  0  0  0  0  0  0
   -6.7785   -0.9162   -2.9911 H   0  0  0  0  0  0  0  0  0  0  0  0
   -7.0108   -0.4796   -0.5393 H   0  0  0  0  0  0  0  0  0  0  0  0
   -5.2963   -0.8436   -0.3103 H   0  0  0  0  0  0  0  0  0  0  0  0
   -6.4089   -2.1138   -0.8388 H   0  0  0  0  0  0  0  0  0  0  0  0
   -1.9230   -0.1427   -1.4592 H   0  0  0  0  0  0  0  0  0  0  0  0
   -0.7630    1.0885   -0.9415 H   0  0  0  0  0  0  0  0  0  0  0  0
   -2.4193    2.2101   -2.3469 H   0  0  0  0  0  0  0  0  0  0  0  0
   -2.3941    0.8973   -3.5225 H   0  0  0  0  0  0  0  0  0  0  0  0
   -1.0291    2.0041   -3.4263 H   0  0  0  0  0  0  0  0  0  0  0  0
    0.1266    2.6730   -1.8677 H   0  0  0  0  0  0  0  0  0  0  0  0
    0.5288    3.5916   -0.3911 H   0  0  0  0  0  0  0  0  0  0  0  0
    1.1463    4.8058   -2.4905 H   0  0  0  0  0  0  0  0  0  0  0  0
    2.2348    3.4836   -2.9311 H   0  0  0  0  0  0  0  0  0  0  0  0
    2.5629    4.4616   -1.4968 H   0  0  0  0  0  0  0  0  0  0  0  0
    4.2137    5.9578    5.1133 H   0  0  0  0  0  0  0  0  0  0  0  0
    7.7255    4.5122    5.8236 H   0  0  0  0  0  0  0  0  0  0  0  0
    3.5562    6.9757   10.1097 H   0  0  0  0  0  0  0  0  0  0  0  0
    9.1976    7.0162   10.0751 H   0  0  0  0  0  0  0  0  0  0  0  0
    8.6130    8.5256   10.8073 H   0  0  0  0  0  0  0  0  0  0  0  0
    8.6222    7.0411   11.7538 H   0  0  0  0  0  0  0  0  0  0  0  0
  1  2  2  0  0  0  0
  2  3  1  0  0  0  0
  3  4  2  0  0  0  0
  3  5  1  0  0  0  0
  5  6  2  0  0  0  0
  6  7  1  0  0  0  0
  6  8  1  0  0  0  0
  8  9  1  0  0  0  0
  8 10  2  0  0  0  0
 10 11  1  0  0  0  0
 10 12  1  0  0  0  0
 12 13  1  0  0  0  0
 12 14  2  0  0  0  0
 14 15  1  0  0  0  0
 15 16  2  0  0  0  0
 16 17  1  0  0  0  0
 17 18  3  0  0  0  0
 16 19  1  0  0  0  0
 19 20  3  0  0  0  0
  1 21  1  0  0  0  0
 21 22  1  0  0  0  0
 22 23  1  0  0  0  0
 23 24  1  0  0  0  0
 24 25  1  0  0  0  0
 25 26  1  0  0  0  0
 26 27  1  0  0  0  0
 27 28  1  0  0  0  0
 28 29  1  0  0  0  0
 29 30  2  0  0  0  0
 30 31  1  0  0  0  0
 31 32  1  0  0  0  0
 29 33  1  0  0  0  0
 33 34  1  0  0  0  0
 34 35  1  0  0  0  0
 35 36  1  0  0  0  0
 36 37  1  0  0  0  0
 37 38  2  0  0  0  0
 38 39  1  0  0  0  0
 39 40  2  0  0  0  0
 40 41  1  0  0  0  0
 41 42  1  0  0  0  0
 42 43  1  0  0  0  0
 41 44  1  0  0  0  0
 44 45  2  0  0  0  0
 45 46  1  0  0  0  0
 46 47  1  0  0  0  0
 47 48  1  0  0  0  0
 48 49  1  0  0  0  0
 49 50  1  0  0  0  0
 50 51  1  0  0  0  0
 51 52  1  0  0  0  0
 52 53  1  0  0  0  0
 53 54  1  0  0  0  0
 54 55  1  0  0  0  0
 55 56  1  0  0  0  0
 56 57  1  0  0  0  0
 55 58  2  0  0  0  0
 58 59  1  0  0  0  0
 59 60  1  0  0  0  0
 60 61  1  0  0  0  0
 59 62  1  0  0  0  0
 51 63  1  0  0  0  0
 63 64  1  0  0  0  0
 48 65  1  0  0  0  0
 65 66  1  0  0  0  0
 38 67  1  0  0  0  0
 67 68  2  0  0  0  0
 68 69  1  0  0  0  0
 68 70  1  0  0  0  0
 70 71  2  0  0  0  0
 71 72  1  0  0  0  0
 72 73  2  0  0  0  0
 72 74  1  0  0  0  0
 74 75  1  0  0  0  0
 75 76  2  0  0  0  0
 76 77  1  0  0  0  0
 77 78  1  0  0  0  0
 78 79  1  0  0  0  0
 75 80  1  0  0  0  0
 80 81  2  0  0  0  0
 81 82  1  0  0  0  0
 82 83  3  0  0  0  0
 81 84  1  0  0  0  0
 84 85  3  0  0  0  0
 15  2  1  0  0  0  0
 57 21  2  0  0  0  0
 80 71  1  0  0  0  0
 14  5  1  0  0  0  0
 56 23  2  0  0  0  0
 78 74  2  0  0  0  0
 53 24  2  0  0  0  0
 62 54  2  0  0  0  0
 52 26  2  0  0  0  0
 50 27  2  0  0  0  0
 32 28  2  0  0  0  0
 49 33  2  0  0  0  0
 47 34  2  0  0  0  0
 46 36  2  0  0  0  0
 69 37  1  0  0  0  0
 45 39  1  0  0  0  0
  1 86  1  0  0  0  0
 42 87  1  0  0  0  0
 42 88  1  0  0  0  0
 43 89  1  0  0  0  0
 43 90  1  0  0  0  0
 43 91  1  0  0  0  0
 57 92  1  0  0  0  0
 60 93  1  0  0  0  0
 60 94  1  0  0  0  0
 61 95  1  0  0  0  0
 61 96  1  0  0  0  0
 61 97  1  0  0  0  0
 63 98  1  0  0  0  0
 63 99  1  0  0  0  0
 64100  1  0  0  0  0
 64101  1  0  0  0  0
 64102  1  0  0  0  0
 65103  1  0  0  0  0
 65104  1  0  0  0  0
 66105  1  0  0  0  0
 66106  1  0  0  0  0
 66107  1  0  0  0  0
 67108  1  0  0  0  0
 70109  1  0  0  0  0
 76110  1  0  0  0  0
 79111  1  0  0  0  0
 79112  1  0  0  0  0
 79113  1  0  0  0  0
M  END
