
  xtb     02022200133D
 energy: -261.278616934701 gnorm: 0.000843785549 xtb: 6.4.1 (unknown)
150166  0     0  0            999 V2000
    5.5598    4.4914    4.4533 C   0  0  0  0  0  0  0  0  0  0  0  0
    6.5436    4.0705    5.3148 C   0  0  0  0  0  0  0  0  0  0  0  0
    6.8620    2.6933    5.7472 C   0  0  0  0  0  0  0  0  0  0  0  0
    6.2071    1.6775    5.6256 O   0  0  0  0  0  0  0  0  0  0  0  0
    8.1960    2.7724    6.3776 C   0  0  0  0  0  0  0  0  0  0  0  0
    8.9643    1.7535    6.8609 C   0  0  0  0  0  0  0  0  0  0  0  0
   10.2330    2.0509    7.4062 C   0  0  0  0  0  0  0  0  0  0  0  0
   11.0707    1.0381    7.9119 C   0  0  0  0  0  0  0  0  0  0  0  0
   12.2968    1.3531    8.4268 C   0  0  0  0  0  0  0  0  0  0  0  0
   13.0938    0.3872    8.9058 F   0  0  0  0  0  0  0  0  0  0  0  0
   12.7374    2.6910    8.4592 C   0  0  0  0  0  0  0  0  0  0  0  0
   13.9452    2.9698    8.9687 F   0  0  0  0  0  0  0  0  0  0  0  0
   11.9465    3.6957    7.9769 C   0  0  0  0  0  0  0  0  0  0  0  0
   10.6766    3.4045    7.4393 C   0  0  0  0  0  0  0  0  0  0  0  0
    9.8529    4.4384    6.9375 C   0  0  0  0  0  0  0  0  0  0  0  0
    8.6262    4.1259    6.4141 C   0  0  0  0  0  0  0  0  0  0  0  0
    7.5765    4.9539    5.8267 C   0  0  0  0  0  0  0  0  0  0  0  0
    7.5619    6.3251    5.8373 C   0  0  0  0  0  0  0  0  0  0  0  0
    6.5083    7.1438    5.3780 C   0  0  0  0  0  0  0  0  0  0  0  0
    5.6917    7.8838    5.0539 N   0  0  0  0  0  0  0  0  0  0  0  0
    8.6018    7.1179    6.3665 C   0  0  0  0  0  0  0  0  0  0  0  0
    9.4155    7.8194    6.7716 N   0  0  0  0  0  0  0  0  0  0  0  0
    4.5020    3.7988    3.8466 C   0  0  0  0  0  0  0  0  0  0  0  0
    3.6266    4.6692    2.5771 S   0  0  0  0  0  0  0  0  0  0  0  0
    2.6348    3.3075    2.3163 C   0  0  0  0  0  0  0  0  0  0  0  0
    1.5971    2.9050    1.4444 C   0  0  0  0  0  0  0  0  0  0  0  0
    1.2484    1.5947    1.7252 C   0  0  0  0  0  0  0  0  0  0  0  0
    2.0444    1.0568    2.8915 C   0  0  0  0  0  0  0  0  0  0  0  0
    2.9352    2.2448    3.1826 C   0  0  0  0  0  0  0  0  0  0  0  0
    3.9808    2.5201    4.0389 C   0  0  0  0  0  0  0  0  0  0  0  0
    2.9269   -0.1332    2.5699 C   0  0  0  0  0  0  0  0  0  0  0  0
    3.1132   -0.5845    1.2723 C   0  0  0  0  0  0  0  0  0  0  0  0
    3.9552   -1.6533    1.0187 C   0  0  0  0  0  0  0  0  0  0  0  0
    4.6354   -2.2882    2.0477 C   0  0  0  0  0  0  0  0  0  0  0  0
    5.5864   -3.4146    1.7641 C   0  0  0  0  0  0  0  0  0  0  0  0
    6.9996   -2.8723    1.5411 C   0  0  0  0  0  0  0  0  0  0  0  0
    4.4550   -1.8217    3.3444 C   0  0  0  0  0  0  0  0  0  0  0  0
    3.6135   -0.7590    3.6047 C   0  0  0  0  0  0  0  0  0  0  0  0
    1.0618    0.7707    4.0190 C   0  0  0  0  0  0  0  0  0  0  0  0
    0.5570    1.8149    4.7830 C   0  0  0  0  0  0  0  0  0  0  0  0
   -0.3766    1.5734    5.7725 C   0  0  0  0  0  0  0  0  0  0  0  0
   -0.8400    0.2874    6.0185 C   0  0  0  0  0  0  0  0  0  0  0  0
   -1.8197    0.0238    7.1247 C   0  0  0  0  0  0  0  0  0  0  0  0
   -1.0832   -0.1950    8.4480 C   0  0  0  0  0  0  0  0  0  0  0  0
   -0.3391   -0.7512    5.2454 C   0  0  0  0  0  0  0  0  0  0  0  0
    0.5959   -0.5152    4.2545 C   0  0  0  0  0  0  0  0  0  0  0  0
    0.2392    1.1002    0.8736 C   0  0  0  0  0  0  0  0  0  0  0  0
   -0.3404   -0.1692    0.8218 C   0  0  0  0  0  0  0  0  0  0  0  0
   -1.2602   -0.4204   -0.1674 C   0  0  0  0  0  0  0  0  0  0  0  0
   -2.0498   -1.9643   -0.4352 S   0  0  0  0  0  0  0  0  0  0  0  0
   -2.8571   -1.2966   -1.8112 C   0  0  0  0  0  0  0  0  0  0  0  0
   -3.7232   -1.7677   -2.8236 C   0  0  0  0  0  0  0  0  0  0  0  0
   -3.9713   -0.7319   -3.7315 C   0  0  0  0  0  0  0  0  0  0  0  0
   -3.2670    0.5340   -3.2912 C   0  0  0  0  0  0  0  0  0  0  0  0
   -4.3249    1.5919   -3.0412 C   0  0  0  0  0  0  0  0  0  0  0  0
   -4.9552    2.1854   -4.1291 C   0  0  0  0  0  0  0  0  0  0  0  0
   -5.9516    3.1212   -3.9371 C   0  0  0  0  0  0  0  0  0  0  0  0
   -6.3504    3.4855   -2.6564 C   0  0  0  0  0  0  0  0  0  0  0  0
   -7.4707    4.4636   -2.4548 C   0  0  0  0  0  0  0  0  0  0  0  0
   -8.8195    3.7428   -2.5065 C   0  0  0  0  0  0  0  0  0  0  0  0
   -5.7219    2.8850   -1.5753 C   0  0  0  0  0  0  0  0  0  0  0  0
   -4.7213    1.9472   -1.7613 C   0  0  0  0  0  0  0  0  0  0  0  0
   -2.1928    0.9886   -4.2665 C   0  0  0  0  0  0  0  0  0  0  0  0
   -1.8766    2.3321   -4.4142 C   0  0  0  0  0  0  0  0  0  0  0  0
   -0.8474    2.7217   -5.2513 C   0  0  0  0  0  0  0  0  0  0  0  0
   -0.1033    1.7842   -5.9547 C   0  0  0  0  0  0  0  0  0  0  0  0
    0.9862    2.2132   -6.8936 C   0  0  0  0  0  0  0  0  0  0  0  0
    0.4254    2.4249   -8.3013 C   0  0  0  0  0  0  0  0  0  0  0  0
   -0.4221    0.4411   -5.8009 C   0  0  0  0  0  0  0  0  0  0  0  0
   -1.4482    0.0461   -4.9641 C   0  0  0  0  0  0  0  0  0  0  0  0
   -2.5713    0.0377   -2.0438 C   0  0  0  0  0  0  0  0  0  0  0  0
   -1.6473    0.5697   -1.1205 C   0  0  0  0  0  0  0  0  0  0  0  0
   -1.0879    1.8472   -1.0515 C   0  0  0  0  0  0  0  0  0  0  0  0
   -0.1546    2.0932   -0.0731 C   0  0  0  0  0  0  0  0  0  0  0  0
    0.7084    3.6064    0.1355 S   0  0  0  0  0  0  0  0  0  0  0  0
   -4.7757   -1.1277   -4.7829 C   0  0  0  0  0  0  0  0  0  0  0  0
   -5.1735   -2.4598   -4.6833 C   0  0  0  0  0  0  0  0  0  0  0  0
   -4.4941   -3.2290   -3.2534 S   0  0  0  0  0  0  0  0  0  0  0  0
   -5.9018   -3.1624   -5.6613 C   0  0  0  0  0  0  0  0  0  0  0  0
   -6.4563   -4.4093   -5.6154 C   0  0  0  0  0  0  0  0  0  0  0  0
   -6.6838   -5.1501   -6.8823 C   0  0  0  0  0  0  0  0  0  0  0  0
   -6.6736   -4.6967   -8.0042 O   0  0  0  0  0  0  0  0  0  0  0  0
   -6.8512   -6.5626   -6.4759 C   0  0  0  0  0  0  0  0  0  0  0  0
   -6.9500   -7.6760   -7.2586 C   0  0  0  0  0  0  0  0  0  0  0  0
   -7.0581   -8.9425   -6.6406 C   0  0  0  0  0  0  0  0  0  0  0  0
   -7.1532  -10.1229   -7.4031 C   0  0  0  0  0  0  0  0  0  0  0  0
   -7.2459  -11.3373   -6.7831 C   0  0  0  0  0  0  0  0  0  0  0  0
   -7.3314  -12.4600   -7.5108 F   0  0  0  0  0  0  0  0  0  0  0  0
   -7.2507  -11.4246   -5.3768 C   0  0  0  0  0  0  0  0  0  0  0  0
   -7.3432  -12.6288   -4.7959 F   0  0  0  0  0  0  0  0  0  0  0  0
   -7.1608  -10.2971   -4.6098 C   0  0  0  0  0  0  0  0  0  0  0  0
   -7.0626   -9.0298   -5.2181 C   0  0  0  0  0  0  0  0  0  0  0  0
   -6.9711   -7.8575   -4.4327 C   0  0  0  0  0  0  0  0  0  0  0  0
   -6.8707   -6.6426   -5.0541 C   0  0  0  0  0  0  0  0  0  0  0  0
   -6.7898   -5.2863   -4.5176 C   0  0  0  0  0  0  0  0  0  0  0  0
   -7.2364   -4.8968   -3.2809 C   0  0  0  0  0  0  0  0  0  0  0  0
   -7.6491   -5.7977   -2.2803 C   0  0  0  0  0  0  0  0  0  0  0  0
   -7.9743   -6.5003   -1.4324 N   0  0  0  0  0  0  0  0  0  0  0  0
   -7.4284   -3.5451   -2.9293 C   0  0  0  0  0  0  0  0  0  0  0  0
   -7.6435   -2.4549   -2.6404 N   0  0  0  0  0  0  0  0  0  0  0  0
    5.6246    5.5267    4.1377 H   0  0  0  0  0  0  0  0  0  0  0  0
    8.6105    0.7344    6.8231 H   0  0  0  0  0  0  0  0  0  0  0  0
   10.7480    0.0089    7.8937 H   0  0  0  0  0  0  0  0  0  0  0  0
   12.2985    4.7149    8.0104 H   0  0  0  0  0  0  0  0  0  0  0  0
   10.2198    5.4512    6.9729 H   0  0  0  0  0  0  0  0  0  0  0  0
    4.3831    1.8468    4.7718 H   0  0  0  0  0  0  0  0  0  0  0  0
    2.6013   -0.1070    0.4499 H   0  0  0  0  0  0  0  0  0  0  0  0
    4.0831   -1.9967    0.0019 H   0  0  0  0  0  0  0  0  0  0  0  0
    5.2641   -3.9582    0.8738 H   0  0  0  0  0  0  0  0  0  0  0  0
    5.5972   -4.1106    2.6052 H   0  0  0  0  0  0  0  0  0  0  0  0
    7.6932   -3.6861    1.3430 H   0  0  0  0  0  0  0  0  0  0  0  0
    7.0133   -2.1896    0.6944 H   0  0  0  0  0  0  0  0  0  0  0  0
    7.3394   -2.3308    2.4211 H   0  0  0  0  0  0  0  0  0  0  0  0
    4.9793   -2.2968    4.1606 H   0  0  0  0  0  0  0  0  0  0  0  0
    3.4795   -0.4170    4.6198 H   0  0  0  0  0  0  0  0  0  0  0  0
    0.8958    2.8256    4.6064 H   0  0  0  0  0  0  0  0  0  0  0  0
   -0.7544    2.3982    6.3596 H   0  0  0  0  0  0  0  0  0  0  0  0
   -2.4126   -0.8626    6.8914 H   0  0  0  0  0  0  0  0  0  0  0  0
   -2.4987    0.8727    7.2275 H   0  0  0  0  0  0  0  0  0  0  0  0
   -0.4099   -1.0457    8.3703 H   0  0  0  0  0  0  0  0  0  0  0  0
   -1.7922   -0.3851    9.2502 H   0  0  0  0  0  0  0  0  0  0  0  0
   -0.4956    0.6837    8.7043 H   0  0  0  0  0  0  0  0  0  0  0  0
   -0.6872   -1.7598    5.4166 H   0  0  0  0  0  0  0  0  0  0  0  0
    0.9742   -1.3427    3.6719 H   0  0  0  0  0  0  0  0  0  0  0  0
   -0.0537   -0.9284    1.5301 H   0  0  0  0  0  0  0  0  0  0  0  0
   -4.6509    1.9215   -5.1316 H   0  0  0  0  0  0  0  0  0  0  0  0
   -6.4278    3.5767   -4.7936 H   0  0  0  0  0  0  0  0  0  0  0  0
   -7.4409    5.2273   -3.2349 H   0  0  0  0  0  0  0  0  0  0  0  0
   -7.3626    4.9579   -1.4875 H   0  0  0  0  0  0  0  0  0  0  0  0
   -8.8714    2.9818   -1.7313 H   0  0  0  0  0  0  0  0  0  0  0  0
   -9.6333    4.4485   -2.3573 H   0  0  0  0  0  0  0  0  0  0  0  0
   -8.9528    3.2565   -3.4702 H   0  0  0  0  0  0  0  0  0  0  0  0
   -6.0171    3.1515   -0.5706 H   0  0  0  0  0  0  0  0  0  0  0  0
   -4.2508    1.4944   -0.9012 H   0  0  0  0  0  0  0  0  0  0  0  0
   -2.4432    3.0822   -3.8816 H   0  0  0  0  0  0  0  0  0  0  0  0
   -0.6163    3.7723   -5.3541 H   0  0  0  0  0  0  0  0  0  0  0  0
    1.4336    3.1444   -6.5407 H   0  0  0  0  0  0  0  0  0  0  0  0
    1.7663    1.4502   -6.9286 H   0  0  0  0  0  0  0  0  0  0  0  0
   -0.0137    1.5032   -8.6764 H   0  0  0  0  0  0  0  0  0  0  0  0
    1.2143    2.7362   -8.9817 H   0  0  0  0  0  0  0  0  0  0  0  0
   -0.3462    3.1915   -8.2896 H   0  0  0  0  0  0  0  0  0  0  0  0
    0.1444   -0.3065   -6.3375 H   0  0  0  0  0  0  0  0  0  0  0  0
   -1.6711   -1.0054   -4.8520 H   0  0  0  0  0  0  0  0  0  0  0  0
   -1.3708    2.6053   -1.7625 H   0  0  0  0  0  0  0  0  0  0  0  0
   -5.0892   -0.5012   -5.5978 H   0  0  0  0  0  0  0  0  0  0  0  0
   -5.9387   -2.6849   -6.6365 H   0  0  0  0  0  0  0  0  0  0  0  0
   -6.9422   -7.5939   -8.3348 H   0  0  0  0  0  0  0  0  0  0  0  0
   -7.1511  -10.0731   -8.4807 H   0  0  0  0  0  0  0  0  0  0  0  0
   -7.1692  -10.3811   -3.5343 H   0  0  0  0  0  0  0  0  0  0  0  0
   -6.9692   -7.9491   -3.3581 H   0  0  0  0  0  0  0  0  0  0  0  0
  1  2  2  0  0  0  0
  2  3  1  0  0  0  0
  3  4  2  0  0  0  0
  3  5  1  0  0  0  0
  5  6  2  0  0  0  0
  6  7  1  0  0  0  0
  7  8  2  0  0  0  0
  8  9  1  0  0  0  0
  9 10  1  0  0  0  0
  9 11  2  0  0  0  0
 11 12  1  0  0  0  0
 11 13  1  0  0  0  0
 13 14  2  0  0  0  0
 14 15  1  0  0  0  0
 15 16  2  0  0  0  0
 16 17  1  0  0  0  0
 17 18  2  0  0  0  0
 18 19  1  0  0  0  0
 19 20  3  0  0  0  0
 18 21  1  0  0  0  0
 21 22  3  0  0  0  0
  1 23  1  0  0  0  0
 23 24  1  0  0  0  0
 24 25  1  0  0  0  0
 25 26  1  0  0  0  0
 26 27  2  0  0  0  0
 27 28  1  0  0  0  0
 28 29  1  0  0  0  0
 29 30  1  0  0  0  0
 28 31  1  0  0  0  0
 31 32  2  0  0  0  0
 32 33  1  0  0  0  0
 33 34  2  0  0  0  0
 34 35  1  0  0  0  0
 35 36  1  0  0  0  0
 34 37  1  0  0  0  0
 37 38  2  0  0  0  0
 28 39  1  0  0  0  0
 39 40  2  0  0  0  0
 40 41  1  0  0  0  0
 41 42  2  0  0  0  0
 42 43  1  0  0  0  0
 43 44  1  0  0  0  0
 42 45  1  0  0  0  0
 45 46  2  0  0  0  0
 27 47  1  0  0  0  0
 47 48  2  0  0  0  0
 48 49  1  0  0  0  0
 49 50  1  0  0  0  0
 50 51  1  0  0  0  0
 51 52  1  0  0  0  0
 52 53  2  0  0  0  0
 53 54  1  0  0  0  0
 54 55  1  0  0  0  0
 55 56  2  0  0  0  0
 56 57  1  0  0  0  0
 57 58  2  0  0  0  0
 58 59  1  0  0  0  0
 59 60  1  0  0  0  0
 58 61  1  0  0  0  0
 61 62  2  0  0  0  0
 54 63  1  0  0  0  0
 63 64  2  0  0  0  0
 64 65  1  0  0  0  0
 65 66  2  0  0  0  0
 66 67  1  0  0  0  0
 67 68  1  0  0  0  0
 66 69  1  0  0  0  0
 69 70  2  0  0  0  0
 54 71  1  0  0  0  0
 71 72  1  0  0  0  0
 72 73  1  0  0  0  0
 73 74  2  0  0  0  0
 74 75  1  0  0  0  0
 53 76  1  0  0  0  0
 76 77  2  0  0  0  0
 77 78  1  0  0  0  0
 77 79  1  0  0  0  0
 79 80  2  0  0  0  0
 80 81  1  0  0  0  0
 81 82  2  0  0  0  0
 81 83  1  0  0  0  0
 83 84  2  0  0  0  0
 84 85  1  0  0  0  0
 85 86  2  0  0  0  0
 86 87  1  0  0  0  0
 87 88  1  0  0  0  0
 87 89  2  0  0  0  0
 89 90  1  0  0  0  0
 89 91  1  0  0  0  0
 91 92  2  0  0  0  0
 92 93  1  0  0  0  0
 93 94  2  0  0  0  0
 94 95  1  0  0  0  0
 95 96  2  0  0  0  0
 96 97  1  0  0  0  0
 97 98  3  0  0  0  0
 96 99  1  0  0  0  0
 99100  3  0  0  0  0
 17  2  1  0  0  0  0
 30 23  2  0  0  0  0
 38 31  1  0  0  0  0
 46 39  1  0  0  0  0
 74 47  1  0  0  0  0
 95 80  1  0  0  0  0
 16  5  1  0  0  0  0
 29 25  2  0  0  0  0
 72 49  2  0  0  0  0
 94 83  1  0  0  0  0
 14  7  1  0  0  0  0
 75 26  1  0  0  0  0
 92 85  1  0  0  0  0
 71 51  2  0  0  0  0
 78 52  1  0  0  0  0
 62 55  1  0  0  0  0
 70 63  1  0  0  0  0
  1101  1  0  0  0  0
  6102  1  0  0  0  0
  8103  1  0  0  0  0
 13104  1  0  0  0  0
 15105  1  0  0  0  0
 30106  1  0  0  0  0
 32107  1  0  0  0  0
 33108  1  0  0  0  0
 35109  1  0  0  0  0
 35110  1  0  0  0  0
 36111  1  0  0  0  0
 36112  1  0  0  0  0
 36113  1  0  0  0  0
 37114  1  0  0  0  0
 38115  1  0  0  0  0
 40116  1  0  0  0  0
 41117  1  0  0  0  0
 43118  1  0  0  0  0
 43119  1  0  0  0  0
 44120  1  0  0  0  0
 44121  1  0  0  0  0
 44122  1  0  0  0  0
 45123  1  0  0  0  0
 46124  1  0  0  0  0
 48125  1  0  0  0  0
 56126  1  0  0  0  0
 57127  1  0  0  0  0
 59128  1  0  0  0  0
 59129  1  0  0  0  0
 60130  1  0  0  0  0
 60131  1  0  0  0  0
 60132  1  0  0  0  0
 61133  1  0  0  0  0
 62134  1  0  0  0  0
 64135  1  0  0  0  0
 65136  1  0  0  0  0
 67137  1  0  0  0  0
 67138  1  0  0  0  0
 68139  1  0  0  0  0
 68140  1  0  0  0  0
 68141  1  0  0  0  0
 69142  1  0  0  0  0
 70143  1  0  0  0  0
 73144  1  0  0  0  0
 76145  1  0  0  0  0
 79146  1  0  0  0  0
 84147  1  0  0  0  0
 86148  1  0  0  0  0
 91149  1  0  0  0  0
 93150  1  0  0  0  0
M  END
