118

C          1.11690       -6.21490       -6.09400
C          1.80310       -6.31750       -7.27630
C          2.16240       -7.67380       -7.76120
O          1.73970       -8.73060       -7.34850
C          3.18380       -7.45700       -8.80820
C          3.92650       -8.37720       -9.48820
C          4.88450       -7.92890      -10.42610
C          5.68060       -8.83640      -11.15110
C          6.60660       -8.37750      -12.04560
F          7.36580       -9.24320      -12.73270
C          6.77570       -6.99480      -12.25450
F          7.69260       -6.57260      -13.13670
C          6.01700       -6.08960      -11.56680
C          5.05320       -6.53030      -10.63820
C          4.25990       -5.60070       -9.92590
C          3.33540       -6.05880       -9.02710
C          2.37510       -5.35250       -8.17840
C          1.94160       -4.06600       -8.39320
C          2.51470       -3.18970       -9.33420
N          2.96700       -2.42230      -10.05950
C          0.82800       -3.49980       -7.74490
N         -0.08520       -3.00220       -7.25780
C          1.00320       -5.14590       -5.19320
S         -0.14390       -5.32070       -3.86290
C          0.33370       -3.80540       -3.22440
C          0.06560       -2.95630       -2.13500
C          0.94490       -1.84310       -2.30360
N          1.70170       -2.01350       -3.43850
C          1.34770       -3.20660       -4.00390
C          1.72700       -3.96000       -5.10550
C          2.66590       -1.07750       -3.94420
C          0.96710       -0.79560       -1.39690
C          0.12730       -0.89670       -0.29830
C         -0.10240       -0.00050        0.79770
C         -1.10030       -0.48740        1.58990
C         -1.56760       -1.84460        1.14650
C         -1.13430       -2.84860        2.24190
C         -1.41110       -4.31610        1.94510
C         -3.07830       -1.90580        0.87970
C         -3.55340       -0.76900       -0.01750
C         -0.75360       -2.00890       -0.12360
C         -0.80670       -3.02200       -1.04050
C         -1.39580        0.43080        2.64730
C         -0.52560        1.54660        2.47760
C          0.41270        1.31830        1.30280
C          0.31650        2.44060        0.25980
C         -1.09650        2.60140       -0.28840
C          1.83760        1.20210        1.89380
C          2.92390        0.75390        0.92610
C         -0.55590        2.61050        3.33590
C         -1.47800        2.56630        4.38860
C         -1.77590        3.43550        5.45680
S         -1.26250        4.93800        6.10410
C         -2.42680        4.77020        7.41800
C         -3.17240        3.58730        7.31880
C         -2.80450        2.83560        6.21970
N         -3.15080        1.63790        5.65390
C         -4.14730        0.72050        6.12990
C         -2.35490        1.44880        4.54840
C         -2.32270        0.37180        3.67700
C         -2.61750        5.66320        8.47760
C         -1.98820        6.84640        8.78470
C         -0.92660        7.48430        8.00240
O         -0.42670        7.09840        6.96180
C         -0.56910        8.71870        8.73360
C          0.38120        9.66360        8.40650
C          0.51960       10.73580        9.27550
F          1.43360       11.68240        9.00100
C         -0.25070       10.86780       10.42050
C         -1.20300        9.90940       10.73550
C         -1.36570        8.82430        9.88670
C         -2.26300        7.66900        9.94480
C         -3.18000        7.43580       10.93840
C         -4.04840        6.32800       11.02300
N         -4.78810        5.46140       11.17430
C         -3.38630        8.28900       12.04280
N         -3.60770        8.93440       12.96620
H          0.66580       -7.14750       -5.76660
H          3.78790       -9.43310       -9.31250
H          5.56330       -9.89840      -11.00220
H          6.15680       -5.03430      -11.74170
H          4.41250       -4.54790      -10.10320
H          2.52130       -3.70810       -5.78400
H          3.02980       -1.42500       -4.90810
H          2.20740       -0.09530       -4.07800
H          3.51140       -0.98210       -3.25730
H          1.60680        0.05850       -1.54420
H         -1.64430       -2.56900        3.16660
H         -0.06150       -2.71910        2.40740
H         -1.10810       -4.91800        2.79940
H         -0.84580       -4.65130        1.08050
H         -2.46850       -4.49260        1.76750
H         -3.31690       -2.85740        0.40360
H         -3.60940       -1.86260        1.83260
H         -3.37930        0.19480        0.45550
H         -3.02370       -0.78780       -0.96750
H         -4.61810       -0.86770       -0.21640
H         -1.49110       -3.85110       -0.95570
H          0.99510        2.22560       -0.56610
H          0.63600        3.37600        0.72350
H         -1.79660        2.81640        0.51590
H         -1.13140        3.42090       -1.00250
H         -1.41850        1.69250       -0.79160
H          2.10540        2.17670        2.30690
H          1.79580        0.49270        2.72440
H          2.72060       -0.24570        0.55180
H          3.88050        0.73460        1.44430
H          3.01360        1.43870        0.08670
H          0.09640        3.46340        3.22980
H         -3.92670        3.33050        8.04110
H         -4.90310        0.54250        5.36080
H         -4.63120        1.14370        7.00680
H         -3.69290       -0.23540        6.40400
H         -2.98170       -0.47340        3.79700
H         -3.39000        5.33940        9.16450
H          0.98710        9.57240        7.51930
H         -0.09920       11.72280       11.06030
H         -1.79460       10.02470       11.62830
