184

C         -1.65730        4.85560       -8.10220
C         -0.98020        5.67220       -8.97350
C          0.42520        6.12560       -8.90830
O          1.23600        5.98430       -8.01480
C          0.68770        6.80680      -10.19180
C          1.85660        7.35680      -10.63180
C          1.89480        7.95090      -11.91250
C          3.07400        8.53120      -12.41850
C          3.08350        9.09440      -13.66360
F          4.20680        9.64560      -14.14460
C          1.91760        9.10190      -14.45490
F          1.95700        9.66050      -15.67250
C          0.75820        8.54720      -13.99090
C          0.71460        7.95900      -12.71070
C         -0.48180        7.38480      -12.22300
C         -0.49670        6.81730      -10.97600
C         -1.55760        6.16340      -10.21370
C         -2.86940        6.09400      -10.60890
C         -3.94170        5.54880       -9.87140
N         -4.88000        5.14730       -9.34340
C         -3.35100        6.60600      -11.83250
N         -3.80990        6.99410      -12.81080
C         -1.28960        4.28360       -6.87400
C         -0.16250        4.40950       -6.07240
C         -0.25100        3.63490       -4.92830
S          0.82610        3.35990       -3.58650
C         -0.32650        2.26050       -2.91310
C         -0.37190        1.42390       -1.75620
C          0.56310        1.20850       -0.74660
C          0.24210        0.28260        0.21680
C          1.08330       -0.16350        1.40650
C          2.39230       -0.67070        0.83560
C          3.45070        0.19840        0.60070
C          4.60590       -0.25090       -0.00990
C          4.72960       -1.57020       -0.42470
C          5.96180       -2.03160       -1.14760
C          5.86140       -1.69980       -2.63800
C          3.65990       -2.42780       -0.21250
C          2.50650       -1.98580        0.40710
C          1.21620        0.95140        2.43060
C          2.31650        1.04700        3.27020
C          2.39010        2.04320        4.22550
C          1.36250        2.96330        4.37990
C          1.45950        4.07060        5.38860
C          2.18790        5.27660        4.79250
C          0.25650        2.85710        3.54740
C          0.18030        1.86450        2.58940
C          0.20730       -1.24850        1.99420
C         -0.97690       -1.33590        1.26120
C         -0.98100       -0.42390        0.16570
C         -1.92630       -0.19430       -0.83150
C         -1.61330        0.74350       -1.78650
C         -2.43750        1.16710       -2.98950
C         -3.67300        1.97820       -2.63360
C         -3.86530        2.51050       -1.36770
C         -4.97490        3.29310       -1.10130
C         -5.90650        3.57490       -2.09070
C         -7.12990        4.39040       -1.78820
C         -8.28360        3.48180       -1.35840
C         -5.70250        3.04610       -3.35960
C         -4.60020        2.25980       -3.63000
C         -2.78690       -0.06120       -3.80630
C         -1.95020       -0.51310       -4.81630
C         -2.26350       -1.65810       -5.52560
C         -3.41210       -2.38320       -5.24010
C         -3.72710       -3.65150       -5.97880
C         -3.12870       -4.85580       -5.24850
C         -4.23860       -1.93390       -4.21800
C         -3.93220       -0.78890       -3.50850
C         -1.48000        2.10970       -3.66770
C         -1.45000        2.89530       -4.81500
S         -2.47930        3.18130       -6.15720
S         -2.08460       -2.52730        1.82830
C         -0.94960       -2.92920        3.06480
C         -0.87530       -3.88590        4.09220
C          0.36660       -3.76140        4.73810
C          1.16650       -2.61920        4.14160
C          0.22650       -2.16080        3.04430
C          1.35350       -1.61460        5.26370
C          0.55550       -0.48800        5.37920
C          0.70800        0.37200        6.45350
C          1.64360        0.11970        7.44470
C          1.83210        1.05880        8.60200
C          3.18280        1.77200        8.52610
C          2.41960       -1.02980        7.33960
C          2.27590       -1.88770        6.26910
C          2.46560       -3.11020        3.52480
C          3.64040       -2.37690        3.59500
C          4.79800       -2.84510        3.00270
C          4.81630       -4.05690        2.32750
C          6.09140       -4.59100        1.74390
C          6.84700       -5.42090        2.78390
C          3.63700       -4.78630        2.25410
C          2.47570       -4.31730        2.83630
C          0.54730       -4.67390        5.75190
C         -0.54920       -5.52650        5.90590
S         -1.82990       -5.14110        4.73970
C         -0.81430       -6.59400        6.76770
C         -0.07320       -7.17550        7.77400
C          1.26800       -6.80590        8.26030
O          2.00790       -5.91550        7.89230
C          1.57830       -7.76490        9.34600
C          2.72100       -7.83580       10.11580
C          2.78520       -8.83640       11.07900
C          3.98950       -8.95690       11.97090
F          3.75100       -8.46690       13.20360
F          5.05830       -8.29910       11.50480
F          4.37100      -10.23280       12.14690
C          1.73140       -9.72650       11.26010
C          0.58620       -9.64580       10.48150
C          0.50760       -8.65470        9.51430
C         -0.53970       -8.30910        8.54870
C         -1.73380       -8.97630        8.43780
C         -2.10390      -10.07720        9.23980
N         -2.47800      -10.97460        9.85050
C         -2.78010       -8.69890        7.53200
N         -3.68820       -8.56130        6.84140
H         -2.65570        4.56780       -8.41070
H          2.73950        7.33620      -10.01110
H          3.97460        8.53260      -11.82480
H         -0.12570        8.56260      -14.60930
H         -1.35480        7.40580      -12.85450
H          0.67130        5.03440       -6.33380
H          1.50000        1.74320       -0.73760
H          3.37530        1.23450        0.89690
H          5.42180        0.43850       -0.17500
H          6.07970       -3.10960       -1.02740
H          6.84300       -1.53990       -0.72990
H          4.99500       -2.19060       -3.07560
H          5.75450       -0.62710       -2.78190
H          6.75300       -2.03390       -3.16330
H          3.72520       -3.45490       -0.54030
H          1.68650       -2.67350        0.55100
H          3.12520        0.34110        3.17130
H          3.25790        2.09730        4.86710
H          0.45890        4.37480        5.70240
H          2.00190        3.72280        6.26960
H          2.25880        6.07820        5.52390
H          1.65390        5.64790        3.92060
H          3.19310        4.99740        4.48440
H         -0.55950        3.55810        3.65200
H         -0.69580        1.80090        1.95980
H         -2.85750       -0.73910       -0.84900
H         -3.14860        2.31510       -0.58330
H         -5.11320        3.69640       -0.10820
H         -6.91380        5.10100       -0.98800
H         -7.42710        4.95300       -2.67520
H         -9.17080        4.07150       -1.14000
H         -8.01150        2.92010       -0.46740
H         -8.52250        2.77450       -2.14930
H         -6.41120        3.25700       -4.14700
H         -4.45850        1.85520       -4.62180
H         -1.04720        0.03080       -5.05440
H         -1.60470       -1.99120       -6.31490
H         -4.80900       -3.77770       -6.05320
H         -3.31790       -3.60350       -6.98970
H         -3.35600       -5.77560       -5.78210
H         -3.53480       -4.92820       -4.24200
H         -2.04820       -4.75440       -5.17420
H         -5.13640       -2.48510       -3.97740
H         -4.59530       -0.44890       -2.72610
H         -0.19060       -0.26870        4.63050
H          0.08100        1.24940        6.51800
H          1.78020        0.49720        9.53810
H          1.03040        1.79980        8.60690
H          3.29300        2.46500        9.35700
H          3.99870        1.05460        8.56410
H          3.26500        2.33020        7.59610
H          3.13730       -1.26320        8.11260
H          2.88360       -2.77830        6.21250
H          3.65870       -1.44250        4.13360
H          5.70270       -2.25780        3.06800
H          5.87000       -5.21810        0.87770
H          6.72220       -3.76200        1.41770
H          6.23670       -6.25730        3.11690
H          7.09010       -4.80990        3.65010
H          7.77070       -5.81020        2.36240
H          3.62590       -5.73310        1.73290
H          1.56870       -4.90050        2.75960
H          1.41960       -4.75760        6.37230
H         -1.78720       -7.03840        6.59540
H          3.53040       -7.13860        9.96410
H          1.81060      -10.49330       12.01570
H         -0.21280      -10.34940       10.64280
