
  xtb     02012223183D
 energy: -279.659773277105 gnorm: 0.000985450324 xtb: 6.4.1 (unknown)
170189  0     0  0            999 V2000
   -2.1820   -1.3246   -8.2148 C   0  0  0  0  0  0  0  0  0  0  0  0
   -3.2861   -1.3683   -9.0339 C   0  0  0  0  0  0  0  0  0  0  0  0
   -4.6580   -0.8953   -8.7609 C   0  0  0  0  0  0  0  0  0  0  0  0
   -5.0699   -0.2082   -7.8466 O   0  0  0  0  0  0  0  0  0  0  0  0
   -5.4912   -1.4266   -9.8596 C   0  0  0  0  0  0  0  0  0  0  0  0
   -6.8425   -1.3271  -10.0189 C   0  0  0  0  0  0  0  0  0  0  0  0
   -7.4465   -1.9358  -11.1416 C   0  0  0  0  0  0  0  0  0  0  0  0
   -8.8375   -1.8732  -11.3521 C   0  0  0  0  0  0  0  0  0  0  0  0
   -9.3958   -2.4777  -12.4431 C   0  0  0  0  0  0  0  0  0  0  0  0
  -10.7214   -2.4190  -12.6407 F   0  0  0  0  0  0  0  0  0  0  0  0
   -8.5900   -3.1683  -13.3694 C   0  0  0  0  0  0  0  0  0  0  0  0
   -9.1656   -3.7526  -14.4302 F   0  0  0  0  0  0  0  0  0  0  0  0
   -7.2370   -3.2454  -13.1927 C   0  0  0  0  0  0  0  0  0  0  0  0
   -6.6300   -2.6335  -12.0776 C   0  0  0  0  0  0  0  0  0  0  0  0
   -5.2309   -2.7111  -11.8868 C   0  0  0  0  0  0  0  0  0  0  0  0
   -4.6674   -2.1136  -10.7906 C   0  0  0  0  0  0  0  0  0  0  0  0
   -3.2846   -2.0301  -10.3257 C   0  0  0  0  0  0  0  0  0  0  0  0
   -2.1972   -2.4689  -11.0395 C   0  0  0  0  0  0  0  0  0  0  0  0
   -2.2853   -3.1007  -12.2972 C   0  0  0  0  0  0  0  0  0  0  0  0
   -2.2820   -3.6198  -13.3217 N   0  0  0  0  0  0  0  0  0  0  0  0
   -0.8428   -2.3349  -10.6692 C   0  0  0  0  0  0  0  0  0  0  0  0
    0.2854   -2.2626  -10.4622 N   0  0  0  0  0  0  0  0  0  0  0  0
   -1.9958   -0.7897   -6.9329 C   0  0  0  0  0  0  0  0  0  0  0  0
   -0.4597   -1.1330   -6.1492 S   0  0  0  0  0  0  0  0  0  0  0  0
   -0.9545   -0.3002   -4.7196 C   0  0  0  0  0  0  0  0  0  0  0  0
   -0.2188   -0.2899   -3.5000 C   0  0  0  0  0  0  0  0  0  0  0  0
   -0.9564    0.2480   -2.3790 C   0  0  0  0  0  0  0  0  0  0  0  0
   -2.2145    0.8609   -2.4558 C   0  0  0  0  0  0  0  0  0  0  0  0
   -2.8538    1.1244   -3.8022 C   0  0  0  0  0  0  0  0  0  0  0  0
   -2.2284    0.2480   -4.8616 C   0  0  0  0  0  0  0  0  0  0  0  0
   -2.8017   -0.0311   -6.0951 C   0  0  0  0  0  0  0  0  0  0  0  0
   -4.3471    0.8670   -3.6970 C   0  0  0  0  0  0  0  0  0  0  0  0
   -4.8212   -0.4371   -3.7600 C   0  0  0  0  0  0  0  0  0  0  0  0
   -6.1710   -0.7036   -3.6336 C   0  0  0  0  0  0  0  0  0  0  0  0
   -7.0835    0.3227   -3.4295 C   0  0  0  0  0  0  0  0  0  0  0  0
   -8.5459    0.0317   -3.2529 C   0  0  0  0  0  0  0  0  0  0  0  0
   -8.8769   -0.1627   -1.7718 C   0  0  0  0  0  0  0  0  0  0  0  0
   -6.6032    1.6217   -3.3374 C   0  0  0  0  0  0  0  0  0  0  0  0
   -5.2536    1.8930   -3.4656 C   0  0  0  0  0  0  0  0  0  0  0  0
   -2.5396    2.5486   -4.2715 C   0  0  0  0  0  0  0  0  0  0  0  0
   -1.5629    3.3233   -3.6626 C   0  0  0  0  0  0  0  0  0  0  0  0
   -1.2609    4.5839   -4.1476 C   0  0  0  0  0  0  0  0  0  0  0  0
   -1.9151    5.1016   -5.2557 C   0  0  0  0  0  0  0  0  0  0  0  0
   -1.6132    6.4844   -5.7562 C   0  0  0  0  0  0  0  0  0  0  0  0
   -2.5356    7.5077   -5.0906 C   0  0  0  0  0  0  0  0  0  0  0  0
   -2.8899    4.3211   -5.8649 C   0  0  0  0  0  0  0  0  0  0  0  0
   -3.1948    3.0626   -5.3857 C   0  0  0  0  0  0  0  0  0  0  0  0
   -2.8082    1.2745   -1.2694 C   0  0  0  0  0  0  0  0  0  0  0  0
   -2.2244    1.1117   -0.0141 C   0  0  0  0  0  0  0  0  0  0  0  0
   -0.9667    0.5335    0.1219 C   0  0  0  0  0  0  0  0  0  0  0  0
   -0.2363    0.3019    1.3735 C   0  0  0  0  0  0  0  0  0  0  0  0
    1.0570   -0.2822    1.3187 C   0  0  0  0  0  0  0  0  0  0  0  0
    1.5865   -0.6226    0.0861 C   0  0  0  0  0  0  0  0  0  0  0  0
    2.8070   -1.2340   -0.2197 C   0  0  0  0  0  0  0  0  0  0  0  0
    2.8321   -1.4223   -1.5942 N   0  0  0  0  0  0  0  0  0  0  0  0
    1.6577   -0.9275   -2.1455 C   0  0  0  0  0  0  0  0  0  0  0  0
    1.0581   -0.8553   -3.4034 C   0  0  0  0  0  0  0  0  0  0  0  0
    0.8877   -0.4330   -1.0865 C   0  0  0  0  0  0  0  0  0  0  0  0
   -0.3754    0.1316   -1.1053 C   0  0  0  0  0  0  0  0  0  0  0  0
    3.9439   -1.9520   -2.3420 C   0  0  0  0  0  0  0  0  0  0  0  0
    4.9193   -0.8500   -2.7528 C   0  0  0  0  0  0  0  0  0  0  0  0
    3.6347   -1.4958    0.8749 C   0  0  0  0  0  0  0  0  0  0  0  0
    3.1659   -1.1751    2.1522 C   0  0  0  0  0  0  0  0  0  0  0  0
    3.9810   -1.3162    3.3146 C   0  0  0  0  0  0  0  0  0  0  0  0
    3.5311   -1.0637    4.6055 C   0  0  0  0  0  0  0  0  0  0  0  0
    2.0769   -0.8180    4.9293 C   0  0  0  0  0  0  0  0  0  0  0  0
    1.5574   -2.1929    5.3647 C   0  0  0  0  0  0  0  0  0  0  0  0
    1.9665   -2.7258    6.5829 C   0  0  0  0  0  0  0  0  0  0  0  0
    1.5570   -3.9844    6.9762 C   0  0  0  0  0  0  0  0  0  0  0  0
    0.7335   -4.7550    6.1648 C   0  0  0  0  0  0  0  0  0  0  0  0
    0.3322   -6.1430    6.5728 C   0  0  0  0  0  0  0  0  0  0  0  0
    1.3839   -7.1574    6.1185 C   0  0  0  0  0  0  0  0  0  0  0  0
    0.3358   -4.2249    4.9466 C   0  0  0  0  0  0  0  0  0  0  0  0
    0.7419   -2.9632    4.5480 C   0  0  0  0  0  0  0  0  0  0  0  0
    1.9505    0.2214    6.0302 C   0  0  0  0  0  0  0  0  0  0  0  0
    1.0031    0.1170    7.0391 C   0  0  0  0  0  0  0  0  0  0  0  0
    0.9301    1.0735    8.0358 C   0  0  0  0  0  0  0  0  0  0  0  0
    1.7895    2.1627    8.0459 C   0  0  0  0  0  0  0  0  0  0  0  0
    1.7701    3.1545    9.1730 C   0  0  0  0  0  0  0  0  0  0  0  0
    2.8141    2.7762   10.2260 C   0  0  0  0  0  0  0  0  0  0  0  0
    2.7061    2.2873    7.0098 C   0  0  0  0  0  0  0  0  0  0  0  0
    2.7807    1.3358    6.0119 C   0  0  0  0  0  0  0  0  0  0  0  0
    1.3372   -0.3519    3.6959 C   0  0  0  0  0  0  0  0  0  0  0  0
    1.8650   -0.6040    2.4216 C   0  0  0  0  0  0  0  0  0  0  0  0
    0.0830    0.2407    3.7756 C   0  0  0  0  0  0  0  0  0  0  0  0
   -0.6869    0.5719    2.6617 C   0  0  0  0  0  0  0  0  0  0  0  0
    4.5444   -1.1365    5.5552 C   0  0  0  0  0  0  0  0  0  0  0  0
    5.7889   -1.4369    5.0293 C   0  0  0  0  0  0  0  0  0  0  0  0
    5.6726   -1.6744    3.2924 S   0  0  0  0  0  0  0  0  0  0  0  0
    7.0639   -1.5543    5.6126 C   0  0  0  0  0  0  0  0  0  0  0  0
    7.5055   -1.2734    6.8788 C   0  0  0  0  0  0  0  0  0  0  0  0
    6.7642   -0.6843    8.0186 C   0  0  0  0  0  0  0  0  0  0  0  0
    5.5622   -0.5466    8.1484 O   0  0  0  0  0  0  0  0  0  0  0  0
    7.7877   -0.3035    9.0089 C   0  0  0  0  0  0  0  0  0  0  0  0
    9.0408   -0.7258    8.5728 C   0  0  0  0  0  0  0  0  0  0  0  0
   10.1823   -0.4710    9.3454 C   0  0  0  0  0  0  0  0  0  0  0  0
   10.0395    0.1980   10.5330 C   0  0  0  0  0  0  0  0  0  0  0  0
    8.7822    0.6363   11.0026 C   0  0  0  0  0  0  0  0  0  0  0  0
    8.6458    1.3253   12.2249 C   0  0  0  0  0  0  0  0  0  0  0  0
    7.4174    1.7450   12.6558 C   0  0  0  0  0  0  0  0  0  0  0  0
    6.2696    1.4960   11.8864 C   0  0  0  0  0  0  0  0  0  0  0  0
    6.3614    0.8290   10.6962 C   0  0  0  0  0  0  0  0  0  0  0  0
    7.6142    0.3834   10.2265 C   0  0  0  0  0  0  0  0  0  0  0  0
    8.8948   -1.4006    7.2863 C   0  0  0  0  0  0  0  0  0  0  0  0
    9.8912   -2.0788    6.6334 C   0  0  0  0  0  0  0  0  0  0  0  0
   11.2195   -2.1878    7.0969 C   0  0  0  0  0  0  0  0  0  0  0  0
   12.3192   -2.3143    7.4015 N   0  0  0  0  0  0  0  0  0  0  0  0
    9.7499   -2.8097    5.4341 C   0  0  0  0  0  0  0  0  0  0  0  0
    9.7327   -3.4412    4.4744 N   0  0  0  0  0  0  0  0  0  0  0  0
   -1.3006   -1.8296   -8.5925 H   0  0  0  0  0  0  0  0  0  0  0  0
   -7.4418   -0.7957   -9.2953 H   0  0  0  0  0  0  0  0  0  0  0  0
   -9.4679   -1.3484  -10.6515 H   0  0  0  0  0  0  0  0  0  0  0  0
   -6.6342   -3.7773  -13.9120 H   0  0  0  0  0  0  0  0  0  0  0  0
   -4.6437   -3.2495  -12.6126 H   0  0  0  0  0  0  0  0  0  0  0  0
   -3.7893    0.2727   -6.3868 H   0  0  0  0  0  0  0  0  0  0  0  0
   -4.1284   -1.2527   -3.9122 H   0  0  0  0  0  0  0  0  0  0  0  0
   -6.5208   -1.7241   -3.6973 H   0  0  0  0  0  0  0  0  0  0  0  0
   -9.1382    0.8597   -3.6477 H   0  0  0  0  0  0  0  0  0  0  0  0
   -8.8126   -0.8726   -3.8034 H   0  0  0  0  0  0  0  0  0  0  0  0
   -9.9359   -0.3736   -1.6420 H   0  0  0  0  0  0  0  0  0  0  0  0
   -8.3042   -0.9920   -1.3623 H   0  0  0  0  0  0  0  0  0  0  0  0
   -8.6295    0.7341   -1.2081 H   0  0  0  0  0  0  0  0  0  0  0  0
   -7.2946    2.4350   -3.1670 H   0  0  0  0  0  0  0  0  0  0  0  0
   -4.9068    2.9137   -3.3916 H   0  0  0  0  0  0  0  0  0  0  0  0
   -1.0288    2.9518   -2.8009 H   0  0  0  0  0  0  0  0  0  0  0  0
   -0.4975    5.1703   -3.6560 H   0  0  0  0  0  0  0  0  0  0  0  0
   -1.7534    6.5245   -6.8383 H   0  0  0  0  0  0  0  0  0  0  0  0
   -0.5746    6.7394   -5.5361 H   0  0  0  0  0  0  0  0  0  0  0  0
   -3.5759    7.2773   -5.3091 H   0  0  0  0  0  0  0  0  0  0  0  0
   -2.4010    7.4921   -4.0113 H   0  0  0  0  0  0  0  0  0  0  0  0
   -2.3179    8.5094   -5.4537 H   0  0  0  0  0  0  0  0  0  0  0  0
   -3.4133    4.7007   -6.7308 H   0  0  0  0  0  0  0  0  0  0  0  0
   -3.9565    2.4793   -5.8801 H   0  0  0  0  0  0  0  0  0  0  0  0
   -3.7773    1.7492   -1.3203 H   0  0  0  0  0  0  0  0  0  0  0  0
   -2.7678    1.4561    0.8529 H   0  0  0  0  0  0  0  0  0  0  0  0
    1.5258   -1.2326   -4.3016 H   0  0  0  0  0  0  0  0  0  0  0  0
    3.5530   -2.4557   -3.2303 H   0  0  0  0  0  0  0  0  0  0  0  0
    4.4555   -2.6920   -1.7205 H   0  0  0  0  0  0  0  0  0  0  0  0
    5.3144   -0.3479   -1.8725 H   0  0  0  0  0  0  0  0  0  0  0  0
    4.4167   -0.1138   -3.3760 H   0  0  0  0  0  0  0  0  0  0  0  0
    5.7470   -1.2752   -3.3132 H   0  0  0  0  0  0  0  0  0  0  0  0
    4.6203   -1.9282    0.7783 H   0  0  0  0  0  0  0  0  0  0  0  0
    2.6027   -2.1501    7.2372 H   0  0  0  0  0  0  0  0  0  0  0  0
    1.8829   -4.3747    7.9297 H   0  0  0  0  0  0  0  0  0  0  0  0
   -0.6305   -6.3974    6.1247 H   0  0  0  0  0  0  0  0  0  0  0  0
    0.2289   -6.1946    7.6587 H   0  0  0  0  0  0  0  0  0  0  0  0
    1.0946   -8.1637    6.4125 H   0  0  0  0  0  0  0  0  0  0  0  0
    2.3486   -6.9282    6.5655 H   0  0  0  0  0  0  0  0  0  0  0  0
    1.4938   -7.1290    5.0366 H   0  0  0  0  0  0  0  0  0  0  0  0
   -0.3029   -4.8042    4.2949 H   0  0  0  0  0  0  0  0  0  0  0  0
    0.4104   -2.5860    3.5923 H   0  0  0  0  0  0  0  0  0  0  0  0
    0.3245   -0.7237    7.0585 H   0  0  0  0  0  0  0  0  0  0  0  0
    0.1950    0.9660    8.8211 H   0  0  0  0  0  0  0  0  0  0  0  0
    0.7811    3.1744    9.6350 H   0  0  0  0  0  0  0  0  0  0  0  0
    1.9902    4.1541    8.7921 H   0  0  0  0  0  0  0  0  0  0  0  0
    2.6060    1.7848   10.6228 H   0  0  0  0  0  0  0  0  0  0  0  0
    2.8034    3.4905   11.0465 H   0  0  0  0  0  0  0  0  0  0  0  0
    3.8085    2.7663    9.7852 H   0  0  0  0  0  0  0  0  0  0  0  0
    3.3724    3.1380    6.9864 H   0  0  0  0  0  0  0  0  0  0  0  0
    3.4998    1.4554    5.2138 H   0  0  0  0  0  0  0  0  0  0  0  0
   -0.3256    0.4427    4.7552 H   0  0  0  0  0  0  0  0  0  0  0  0
   -1.6540    1.0239    2.8224 H   0  0  0  0  0  0  0  0  0  0  0  0
    4.4032   -0.9480    6.6020 H   0  0  0  0  0  0  0  0  0  0  0  0
    7.8227   -1.8757    4.9086 H   0  0  0  0  0  0  0  0  0  0  0  0
   11.1581   -0.7857    9.0152 H   0  0  0  0  0  0  0  0  0  0  0  0
   10.9110    0.4043   11.1375 H   0  0  0  0  0  0  0  0  0  0  0  0
    9.5309    1.5161   12.8146 H   0  0  0  0  0  0  0  0  0  0  0  0
    7.3221    2.2729   13.5933 H   0  0  0  0  0  0  0  0  0  0  0  0
    5.3089    1.8371   12.2425 H   0  0  0  0  0  0  0  0  0  0  0  0
    5.4854    0.6306   10.0994 H   0  0  0  0  0  0  0  0  0  0  0  0
  1  2  2  0  0  0  0
  2  3  1  0  0  0  0
  3  4  2  0  0  0  0
  3  5  1  0  0  0  0
  5  6  2  0  0  0  0
  6  7  1  0  0  0  0
  7  8  2  0  0  0  0
  8  9  1  0  0  0  0
  9 10  1  0  0  0  0
  9 11  2  0  0  0  0
 11 12  1  0  0  0  0
 11 13  1  0  0  0  0
 13 14  2  0  0  0  0
 14 15  1  0  0  0  0
 15 16  2  0  0  0  0
 16 17  1  0  0  0  0
 17 18  2  0  0  0  0
 18 19  1  0  0  0  0
 19 20  3  0  0  0  0
 18 21  1  0  0  0  0
 21 22  3  0  0  0  0
  1 23  1  0  0  0  0
 23 24  1  0  0  0  0
 24 25  1  0  0  0  0
 25 26  1  0  0  0  0
 26 27  2  0  0  0  0
 27 28  1  0  0  0  0
 28 29  1  0  0  0  0
 29 30  1  0  0  0  0
 30 31  1  0  0  0  0
 29 32  1  0  0  0  0
 32 33  2  0  0  0  0
 33 34  1  0  0  0  0
 34 35  2  0  0  0  0
 35 36  1  0  0  0  0
 36 37  1  0  0  0  0
 35 38  1  0  0  0  0
 38 39  2  0  0  0  0
 29 40  1  0  0  0  0
 40 41  2  0  0  0  0
 41 42  1  0  0  0  0
 42 43  2  0  0  0  0
 43 44  1  0  0  0  0
 44 45  1  0  0  0  0
 43 46  1  0  0  0  0
 46 47  2  0  0  0  0
 28 48  2  0  0  0  0
 48 49  1  0  0  0  0
 49 50  2  0  0  0  0
 50 51  1  0  0  0  0
 51 52  1  0  0  0  0
 52 53  2  0  0  0  0
 53 54  1  0  0  0  0
 54 55  1  0  0  0  0
 55 56  1  0  0  0  0
 56 57  2  0  0  0  0
 56 58  1  0  0  0  0
 58 59  2  0  0  0  0
 55 60  1  0  0  0  0
 60 61  1  0  0  0  0
 54 62  2  0  0  0  0
 62 63  1  0  0  0  0
 63 64  1  0  0  0  0
 64 65  2  0  0  0  0
 65 66  1  0  0  0  0
 66 67  1  0  0  0  0
 67 68  2  0  0  0  0
 68 69  1  0  0  0  0
 69 70  2  0  0  0  0
 70 71  1  0  0  0  0
 71 72  1  0  0  0  0
 70 73  1  0  0  0  0
 73 74  2  0  0  0  0
 66 75  1  0  0  0  0
 75 76  2  0  0  0  0
 76 77  1  0  0  0  0
 77 78  2  0  0  0  0
 78 79  1  0  0  0  0
 79 80  1  0  0  0  0
 78 81  1  0  0  0  0
 81 82  2  0  0  0  0
 66 83  1  0  0  0  0
 83 84  1  0  0  0  0
 83 85  2  0  0  0  0
 85 86  1  0  0  0  0
 65 87  1  0  0  0  0
 87 88  2  0  0  0  0
 88 89  1  0  0  0  0
 88 90  1  0  0  0  0
 90 91  2  0  0  0  0
 91 92  1  0  0  0  0
 92 93  2  0  0  0  0
 92 94  1  0  0  0  0
 94 95  2  0  0  0  0
 95 96  1  0  0  0  0
 96 97  2  0  0  0  0
 97 98  1  0  0  0  0
 98 99  2  0  0  0  0
 99100  1  0  0  0  0
100101  2  0  0  0  0
101102  1  0  0  0  0
102103  2  0  0  0  0
 95104  1  0  0  0  0
104105  2  0  0  0  0
105106  1  0  0  0  0
106107  3  0  0  0  0
105108  1  0  0  0  0
108109  3  0  0  0  0
 17  2  1  0  0  0  0
 31 23  2  0  0  0  0
 39 32  1  0  0  0  0
 47 40  1  0  0  0  0
 59 50  1  0  0  0  0
 84 63  2  0  0  0  0
104 91  1  0  0  0  0
 16  5  1  0  0  0  0
 30 25  2  0  0  0  0
 86 51  2  0  0  0  0
103 94  1  0  0  0  0
 14  7  1  0  0  0  0
 57 26  1  0  0  0  0
 89 64  1  0  0  0  0
103 98  1  0  0  0  0
 59 27  1  0  0  0  0
 74 67  1  0  0  0  0
 82 75  1  0  0  0  0
 84 52  1  0  0  0  0
 58 53  1  0  0  0  0
  1110  1  0  0  0  0
  6111  1  0  0  0  0
  8112  1  0  0  0  0
 13113  1  0  0  0  0
 15114  1  0  0  0  0
 31115  1  0  0  0  0
 33116  1  0  0  0  0
 34117  1  0  0  0  0
 36118  1  0  0  0  0
 36119  1  0  0  0  0
 37120  1  0  0  0  0
 37121  1  0  0  0  0
 37122  1  0  0  0  0
 38123  1  0  0  0  0
 39124  1  0  0  0  0
 41125  1  0  0  0  0
 42126  1  0  0  0  0
 44127  1  0  0  0  0
 44128  1  0  0  0  0
 45129  1  0  0  0  0
 45130  1  0  0  0  0
 45131  1  0  0  0  0
 46132  1  0  0  0  0
 47133  1  0  0  0  0
 48134  1  0  0  0  0
 49135  1  0  0  0  0
 57136  1  0  0  0  0
 60137  1  0  0  0  0
 60138  1  0  0  0  0
 61139  1  0  0  0  0
 61140  1  0  0  0  0
 61141  1  0  0  0  0
 62142  1  0  0  0  0
 68143  1  0  0  0  0
 69144  1  0  0  0  0
 71145  1  0  0  0  0
 71146  1  0  0  0  0
 72147  1  0  0  0  0
 72148  1  0  0  0  0
 72149  1  0  0  0  0
 73150  1  0  0  0  0
 74151  1  0  0  0  0
 76152  1  0  0  0  0
 77153  1  0  0  0  0
 79154  1  0  0  0  0
 79155  1  0  0  0  0
 80156  1  0  0  0  0
 80157  1  0  0  0  0
 80158  1  0  0  0  0
 81159  1  0  0  0  0
 82160  1  0  0  0  0
 85161  1  0  0  0  0
 86162  1  0  0  0  0
 87163  1  0  0  0  0
 90164  1  0  0  0  0
 96165  1  0  0  0  0
 97166  1  0  0  0  0
 99167  1  0  0  0  0
100168  1  0  0  0  0
101169  1  0  0  0  0
102170  1  0  0  0  0
M  END
