
  xtb     02022202453D
 energy: -229.661989951102 gnorm: 0.000209428429 xtb: 6.4.1 (unknown)
123139  0     0  0            999 V2000
    6.1712    4.9737   -3.4900 C   0  0  0  0  0  0  0  0  0  0  0  0
    7.1550    4.9140   -4.4425 C   0  0  0  0  0  0  0  0  0  0  0  0
    7.2709    3.9786   -5.5832 C   0  0  0  0  0  0  0  0  0  0  0  0
    6.4280    3.2479   -6.0613 O   0  0  0  0  0  0  0  0  0  0  0  0
    8.6700    4.0883   -6.0448 C   0  0  0  0  0  0  0  0  0  0  0  0
    9.3021    3.3592   -7.0100 C   0  0  0  0  0  0  0  0  0  0  0  0
   10.6674    3.6085   -7.2731 C   0  0  0  0  0  0  0  0  0  0  0  0
   11.3717    2.8788   -8.2503 C   0  0  0  0  0  0  0  0  0  0  0  0
   12.6952    3.1328   -8.4772 C   0  0  0  0  0  0  0  0  0  0  0  0
   13.3649    2.4354   -9.4056 F   0  0  0  0  0  0  0  0  0  0  0  0
   13.3704    4.1259   -7.7400 C   0  0  0  0  0  0  0  0  0  0  0  0
   14.6686    4.3519   -7.9832 F   0  0  0  0  0  0  0  0  0  0  0  0
   12.7135    4.8517   -6.7864 C   0  0  0  0  0  0  0  0  0  0  0  0
   11.3486    4.6141   -6.5277 C   0  0  0  0  0  0  0  0  0  0  0  0
   10.6626    5.3589   -5.5409 C   0  0  0  0  0  0  0  0  0  0  0  0
    9.3385    5.1001   -5.3037 C   0  0  0  0  0  0  0  0  0  0  0  0
    8.3862    5.6821   -4.3631 C   0  0  0  0  0  0  0  0  0  0  0  0
    8.6108    6.8026   -3.6064 C   0  0  0  0  0  0  0  0  0  0  0  0
    7.6606    7.4397   -2.7799 C   0  0  0  0  0  0  0  0  0  0  0  0
    6.9426    8.0305   -2.1058 N   0  0  0  0  0  0  0  0  0  0  0  0
    9.8313    7.5102   -3.5950 C   0  0  0  0  0  0  0  0  0  0  0  0
   10.7999    8.1238   -3.5387 N   0  0  0  0  0  0  0  0  0  0  0  0
    4.9424    4.2990   -3.3842 C   0  0  0  0  0  0  0  0  0  0  0  0
    4.2138    3.5248   -4.2755 C   0  0  0  0  0  0  0  0  0  0  0  0
    3.0485    3.0346   -3.7064 C   0  0  0  0  0  0  0  0  0  0  0  0
    1.7777    1.9957   -4.2961 S   0  0  0  0  0  0  0  0  0  0  0  0
    1.0133    2.0494   -2.7361 C   0  0  0  0  0  0  0  0  0  0  0  0
   -0.0911    1.4268   -2.1586 C   0  0  0  0  0  0  0  0  0  0  0  0
   -1.1846    0.4818   -2.5811 C   0  0  0  0  0  0  0  0  0  0  0  0
   -0.6823   -0.8500   -3.1048 C   0  0  0  0  0  0  0  0  0  0  0  0
    0.5743   -1.3252   -2.7566 C   0  0  0  0  0  0  0  0  0  0  0  0
    1.0056   -2.5601   -3.2082 C   0  0  0  0  0  0  0  0  0  0  0  0
    0.1817   -3.3379   -4.0022 C   0  0  0  0  0  0  0  0  0  0  0  0
   -1.0787   -2.8756   -4.3405 C   0  0  0  0  0  0  0  0  0  0  0  0
   -1.5096   -1.6398   -3.8937 C   0  0  0  0  0  0  0  0  0  0  0  0
   -2.0319    1.2128   -3.6098 C   0  0  0  0  0  0  0  0  0  0  0  0
   -1.5672    1.3063   -4.9167 C   0  0  0  0  0  0  0  0  0  0  0  0
   -2.2863    2.0074   -5.8663 C   0  0  0  0  0  0  0  0  0  0  0  0
   -3.4760    2.6265   -5.5203 C   0  0  0  0  0  0  0  0  0  0  0  0
   -3.9375    2.5439   -4.2187 C   0  0  0  0  0  0  0  0  0  0  0  0
   -3.2175    1.8449   -3.2645 C   0  0  0  0  0  0  0  0  0  0  0  0
   -1.8902    0.2523   -1.2545 C   0  0  0  0  0  0  0  0  0  0  0  0
   -1.3132    1.0414   -0.2319 C   0  0  0  0  0  0  0  0  0  0  0  0
   -0.2290    1.7625   -0.8221 C   0  0  0  0  0  0  0  0  0  0  0  0
    0.9743    2.8588   -0.2390 S   0  0  0  0  0  0  0  0  0  0  0  0
    1.7053    2.8560   -1.8139 C   0  0  0  0  0  0  0  0  0  0  0  0
    2.8553    3.4200   -2.3659 C   0  0  0  0  0  0  0  0  0  0  0  0
    4.1246    4.4343   -1.8184 S   0  0  0  0  0  0  0  0  0  0  0  0
   -1.7584    0.9815    1.0856 C   0  0  0  0  0  0  0  0  0  0  0  0
   -2.7643    0.0877    1.3674 C   0  0  0  0  0  0  0  0  0  0  0  0
   -3.3972   -0.2165    2.7149 C   0  0  0  0  0  0  0  0  0  0  0  0
   -2.4531   -0.8022    3.7495 C   0  0  0  0  0  0  0  0  0  0  0  0
   -1.2743   -1.4316    3.3770 C   0  0  0  0  0  0  0  0  0  0  0  0
   -0.4872   -2.0558    4.3293 C   0  0  0  0  0  0  0  0  0  0  0  0
   -0.8727   -2.0650    5.6581 C   0  0  0  0  0  0  0  0  0  0  0  0
   -2.0522   -1.4443    6.0323 C   0  0  0  0  0  0  0  0  0  0  0  0
   -2.8420   -0.8213    5.0839 C   0  0  0  0  0  0  0  0  0  0  0  0
   -4.0906    1.0420    3.2013 C   0  0  0  0  0  0  0  0  0  0  0  0
   -3.3635    2.0089    3.8850 C   0  0  0  0  0  0  0  0  0  0  0  0
   -3.9704    3.1832    4.2911 C   0  0  0  0  0  0  0  0  0  0  0  0
   -5.3091    3.4067    4.0164 C   0  0  0  0  0  0  0  0  0  0  0  0
   -6.0364    2.4496    3.3314 C   0  0  0  0  0  0  0  0  0  0  0  0
   -5.4299    1.2748    2.9218 C   0  0  0  0  0  0  0  0  0  0  0  0
   -4.3345   -1.3293    2.3362 C   0  0  0  0  0  0  0  0  0  0  0  0
   -4.2823   -1.5798    0.9748 C   0  0  0  0  0  0  0  0  0  0  0  0
   -3.3343   -0.7118    0.3471 C   0  0  0  0  0  0  0  0  0  0  0  0
   -2.9086   -0.6292   -0.9761 C   0  0  0  0  0  0  0  0  0  0  0  0
   -5.2358   -2.9334    0.4724 S   0  0  0  0  0  0  0  0  0  0  0  0
   -5.6699   -3.2235    2.1321 C   0  0  0  0  0  0  0  0  0  0  0  0
   -6.3776   -4.2283    2.7832 C   0  0  0  0  0  0  0  0  0  0  0  0
   -6.3104   -4.0998    4.1584 C   0  0  0  0  0  0  0  0  0  0  0  0
   -5.4608   -2.6352    4.6456 S   0  0  0  0  0  0  0  0  0  0  0  0
   -5.1072   -2.2727    3.0030 C   0  0  0  0  0  0  0  0  0  0  0  0
   -6.8417   -5.0020    5.1088 C   0  0  0  0  0  0  0  0  0  0  0  0
   -6.4342   -5.2124    6.3900 C   0  0  0  0  0  0  0  0  0  0  0  0
   -7.3535   -5.8891    7.3484 C   0  0  0  0  0  0  0  0  0  0  0  0
   -8.3686   -6.4801    7.0729 O   0  0  0  0  0  0  0  0  0  0  0  0
   -6.7663   -5.6283    8.6817 C   0  0  0  0  0  0  0  0  0  0  0  0
   -7.2455   -5.9066    9.9496 C   0  0  0  0  0  0  0  0  0  0  0  0
   -8.4123   -6.5330   10.1224 F   0  0  0  0  0  0  0  0  0  0  0  0
   -6.5109   -5.5323   11.0683 C   0  0  0  0  0  0  0  0  0  0  0  0
   -5.3044   -4.8730   10.9076 C   0  0  0  0  0  0  0  0  0  0  0  0
   -4.7974   -4.5879    9.6459 C   0  0  0  0  0  0  0  0  0  0  0  0
   -5.5273   -4.9742    8.5349 C   0  0  0  0  0  0  0  0  0  0  0  0
   -5.2306   -4.8515    7.1064 C   0  0  0  0  0  0  0  0  0  0  0  0
   -3.9712   -4.7187    6.5832 C   0  0  0  0  0  0  0  0  0  0  0  0
   -3.6551   -4.8913    5.2185 C   0  0  0  0  0  0  0  0  0  0  0  0
   -3.3339   -5.0850    4.1337 N   0  0  0  0  0  0  0  0  0  0  0  0
   -2.8145   -4.5142    7.3623 C   0  0  0  0  0  0  0  0  0  0  0  0
   -1.8418   -4.3459    7.9482 N   0  0  0  0  0  0  0  0  0  0  0  0
    6.3800    5.6049   -2.6332 H   0  0  0  0  0  0  0  0  0  0  0  0
    8.7690    2.5987   -7.5602 H   0  0  0  0  0  0  0  0  0  0  0  0
   10.8691    2.1148   -8.8225 H   0  0  0  0  0  0  0  0  0  0  0  0
   13.2450    5.6092   -6.2319 H   0  0  0  0  0  0  0  0  0  0  0  0
   11.2072    6.1089   -4.9907 H   0  0  0  0  0  0  0  0  0  0  0  0
    4.5390    3.3265   -5.2796 H   0  0  0  0  0  0  0  0  0  0  0  0
    1.2223   -0.7300   -2.1296 H   0  0  0  0  0  0  0  0  0  0  0  0
    1.9888   -2.9146   -2.9362 H   0  0  0  0  0  0  0  0  0  0  0  0
    0.5190   -4.3010   -4.3544 H   0  0  0  0  0  0  0  0  0  0  0  0
   -1.7300   -3.4784   -4.9558 H   0  0  0  0  0  0  0  0  0  0  0  0
   -2.4905   -1.2800   -4.1694 H   0  0  0  0  0  0  0  0  0  0  0  0
   -0.6411    0.8215   -5.1902 H   0  0  0  0  0  0  0  0  0  0  0  0
   -1.9153    2.0710   -6.8783 H   0  0  0  0  0  0  0  0  0  0  0  0
   -4.0390    3.1729   -6.2620 H   0  0  0  0  0  0  0  0  0  0  0  0
   -4.8621    3.0273   -3.9396 H   0  0  0  0  0  0  0  0  0  0  0  0
   -3.5835    1.7921   -2.2495 H   0  0  0  0  0  0  0  0  0  0  0  0
   -1.3025    1.5902    1.8507 H   0  0  0  0  0  0  0  0  0  0  0  0
   -0.9727   -1.4404    2.3395 H   0  0  0  0  0  0  0  0  0  0  0  0
    0.4272   -2.5442    4.0278 H   0  0  0  0  0  0  0  0  0  0  0  0
   -0.2674   -2.5626    6.3998 H   0  0  0  0  0  0  0  0  0  0  0  0
   -2.3617   -1.4517    7.0670 H   0  0  0  0  0  0  0  0  0  0  0  0
   -3.7650   -0.3429    5.3799 H   0  0  0  0  0  0  0  0  0  0  0  0
   -2.3223    1.8336    4.1133 H   0  0  0  0  0  0  0  0  0  0  0  0
   -3.3956    3.9257    4.8245 H   0  0  0  0  0  0  0  0  0  0  0  0
   -5.7829    4.3230    4.3352 H   0  0  0  0  0  0  0  0  0  0  0  0
   -7.0809    2.6158    3.1127 H   0  0  0  0  0  0  0  0  0  0  0  0
   -6.0053    0.5355    2.3834 H   0  0  0  0  0  0  0  0  0  0  0  0
   -3.3484   -1.2530   -1.7387 H   0  0  0  0  0  0  0  0  0  0  0  0
   -6.8587   -5.0559    2.2949 H   0  0  0  0  0  0  0  0  0  0  0  0
   -7.7153   -5.5674    4.7980 H   0  0  0  0  0  0  0  0  0  0  0  0
   -6.8964   -5.7608   12.0494 H   0  0  0  0  0  0  0  0  0  0  0  0
   -4.7445   -4.5765   11.7811 H   0  0  0  0  0  0  0  0  0  0  0  0
   -3.8590   -4.0679    9.5464 H   0  0  0  0  0  0  0  0  0  0  0  0
  1  2  2  0  0  0  0
  2  3  1  0  0  0  0
  3  4  2  0  0  0  0
  3  5  1  0  0  0  0
  5  6  2  0  0  0  0
  6  7  1  0  0  0  0
  7  8  2  0  0  0  0
  8  9  1  0  0  0  0
  9 10  1  0  0  0  0
  9 11  2  0  0  0  0
 11 12  1  0  0  0  0
 11 13  1  0  0  0  0
 13 14  2  0  0  0  0
 14 15  1  0  0  0  0
 15 16  2  0  0  0  0
 16 17  1  0  0  0  0
 17 18  2  0  0  0  0
 18 19  1  0  0  0  0
 19 20  3  0  0  0  0
 18 21  1  0  0  0  0
 21 22  3  0  0  0  0
  1 23  1  0  0  0  0
 23 24  2  0  0  0  0
 24 25  1  0  0  0  0
 25 26  1  0  0  0  0
 26 27  1  0  0  0  0
 27 28  1  0  0  0  0
 28 29  1  0  0  0  0
 29 30  1  0  0  0  0
 30 31  2  0  0  0  0
 31 32  1  0  0  0  0
 32 33  2  0  0  0  0
 33 34  1  0  0  0  0
 34 35  2  0  0  0  0
 29 36  1  0  0  0  0
 36 37  2  0  0  0  0
 37 38  1  0  0  0  0
 38 39  2  0  0  0  0
 39 40  1  0  0  0  0
 40 41  2  0  0  0  0
 29 42  1  0  0  0  0
 42 43  2  0  0  0  0
 43 44  1  0  0  0  0
 44 45  1  0  0  0  0
 45 46  1  0  0  0  0
 46 47  1  0  0  0  0
 47 48  1  0  0  0  0
 43 49  1  0  0  0  0
 49 50  2  0  0  0  0
 50 51  1  0  0  0  0
 51 52  1  0  0  0  0
 52 53  2  0  0  0  0
 53 54  1  0  0  0  0
 54 55  2  0  0  0  0
 55 56  1  0  0  0  0
 56 57  2  0  0  0  0
 51 58  1  0  0  0  0
 58 59  2  0  0  0  0
 59 60  1  0  0  0  0
 60 61  2  0  0  0  0
 61 62  1  0  0  0  0
 62 63  2  0  0  0  0
 51 64  1  0  0  0  0
 64 65  2  0  0  0  0
 65 66  1  0  0  0  0
 66 67  2  0  0  0  0
 65 68  1  0  0  0  0
 68 69  1  0  0  0  0
 69 70  1  0  0  0  0
 70 71  2  0  0  0  0
 71 72  1  0  0  0  0
 72 73  1  0  0  0  0
 71 74  1  0  0  0  0
 74 75  2  0  0  0  0
 75 76  1  0  0  0  0
 76 77  2  0  0  0  0
 76 78  1  0  0  0  0
 78 79  2  0  0  0  0
 79 80  1  0  0  0  0
 79 81  1  0  0  0  0
 81 82  2  0  0  0  0
 82 83  1  0  0  0  0
 83 84  2  0  0  0  0
 84 85  1  0  0  0  0
 85 86  2  0  0  0  0
 86 87  1  0  0  0  0
 87 88  3  0  0  0  0
 86 89  1  0  0  0  0
 89 90  3  0  0  0  0
 17  2  1  0  0  0  0
 48 23  1  0  0  0  0
 66 50  1  0  0  0  0
 73 69  2  0  0  0  0
 85 75  1  0  0  0  0
 16  5  1  0  0  0  0
 47 25  2  0  0  0  0
 57 52  1  0  0  0  0
 63 58  1  0  0  0  0
 73 64  1  0  0  0  0
 84 78  1  0  0  0  0
 14  7  1  0  0  0  0
 46 27  2  0  0  0  0
 44 28  2  0  0  0  0
 35 30  1  0  0  0  0
 41 36  1  0  0  0  0
 67 42  1  0  0  0  0
  1 91  1  0  0  0  0
  6 92  1  0  0  0  0
  8 93  1  0  0  0  0
 13 94  1  0  0  0  0
 15 95  1  0  0  0  0
 24 96  1  0  0  0  0
 31 97  1  0  0  0  0
 32 98  1  0  0  0  0
 33 99  1  0  0  0  0
 34100  1  0  0  0  0
 35101  1  0  0  0  0
 37102  1  0  0  0  0
 38103  1  0  0  0  0
 39104  1  0  0  0  0
 40105  1  0  0  0  0
 41106  1  0  0  0  0
 49107  1  0  0  0  0
 53108  1  0  0  0  0
 54109  1  0  0  0  0
 55110  1  0  0  0  0
 56111  1  0  0  0  0
 57112  1  0  0  0  0
 59113  1  0  0  0  0
 60114  1  0  0  0  0
 61115  1  0  0  0  0
 62116  1  0  0  0  0
 63117  1  0  0  0  0
 67118  1  0  0  0  0
 70119  1  0  0  0  0
 74120  1  0  0  0  0
 81121  1  0  0  0  0
 82122  1  0  0  0  0
 83123  1  0  0  0  0
M  END
