123

C          6.17120        4.97370       -3.49000
C          7.15500        4.91400       -4.44250
C          7.27090        3.97860       -5.58320
O          6.42800        3.24790       -6.06130
C          8.67000        4.08830       -6.04480
C          9.30210        3.35920       -7.01000
C         10.66740        3.60850       -7.27310
C         11.37170        2.87880       -8.25030
C         12.69520        3.13280       -8.47720
F         13.36490        2.43540       -9.40560
C         13.37040        4.12590       -7.74000
F         14.66860        4.35190       -7.98320
C         12.71350        4.85170       -6.78640
C         11.34860        4.61410       -6.52770
C         10.66260        5.35890       -5.54090
C          9.33850        5.10010       -5.30370
C          8.38620        5.68210       -4.36310
C          8.61080        6.80260       -3.60640
C          7.66060        7.43970       -2.77990
N          6.94260        8.03050       -2.10580
C          9.83130        7.51020       -3.59500
N         10.79990        8.12380       -3.53870
C          4.94240        4.29900       -3.38420
C          4.21380        3.52480       -4.27550
C          3.04850        3.03460       -3.70640
S          1.77770        1.99570       -4.29610
C          1.01330        2.04940       -2.73610
C         -0.09110        1.42680       -2.15860
C         -1.18460        0.48180       -2.58110
C         -0.68230       -0.85000       -3.10480
C          0.57430       -1.32520       -2.75660
C          1.00560       -2.56010       -3.20820
C          0.18170       -3.33790       -4.00220
C         -1.07870       -2.87560       -4.34050
C         -1.50960       -1.63980       -3.89370
C         -2.03190        1.21280       -3.60980
C         -1.56720        1.30630       -4.91670
C         -2.28630        2.00740       -5.86630
C         -3.47600        2.62650       -5.52030
C         -3.93750        2.54390       -4.21870
C         -3.21750        1.84490       -3.26450
C         -1.89020        0.25230       -1.25450
C         -1.31320        1.04140       -0.23190
C         -0.22900        1.76250       -0.82210
S          0.97430        2.85880       -0.23900
C          1.70530        2.85600       -1.81390
C          2.85530        3.42000       -2.36590
S          4.12460        4.43430       -1.81840
C         -1.75840        0.98150        1.08560
C         -2.76430        0.08770        1.36740
C         -3.39720       -0.21650        2.71490
C         -2.45310       -0.80220        3.74950
C         -1.27430       -1.43160        3.37700
C         -0.48720       -2.05580        4.32930
C         -0.87270       -2.06500        5.65810
C         -2.05220       -1.44430        6.03230
C         -2.84200       -0.82130        5.08390
C         -4.09060        1.04200        3.20130
C         -3.36350        2.00890        3.88500
C         -3.97040        3.18320        4.29110
C         -5.30910        3.40670        4.01640
C         -6.03640        2.44960        3.33140
C         -5.42990        1.27480        2.92180
C         -4.33450       -1.32930        2.33620
C         -4.28230       -1.57980        0.97480
C         -3.33430       -0.71180        0.34710
C         -2.90860       -0.62920       -0.97610
S         -5.23580       -2.93340        0.47240
C         -5.66990       -3.22350        2.13210
C         -6.37760       -4.22830        2.78320
C         -6.31040       -4.09980        4.15840
S         -5.46080       -2.63520        4.64560
C         -5.10720       -2.27270        3.00300
C         -6.84170       -5.00200        5.10880
C         -6.43420       -5.21240        6.39000
C         -7.35350       -5.88910        7.34840
O         -8.36860       -6.48010        7.07290
C         -6.76630       -5.62830        8.68170
C         -7.24550       -5.90660        9.94960
F         -8.41230       -6.53300       10.12240
C         -6.51090       -5.53230       11.06830
C         -5.30440       -4.87300       10.90760
C         -4.79740       -4.58790        9.64590
C         -5.52730       -4.97420        8.53490
C         -5.23060       -4.85150        7.10640
C         -3.97120       -4.71870        6.58320
C         -3.65510       -4.89130        5.21850
N         -3.33390       -5.08500        4.13370
C         -2.81450       -4.51420        7.36230
N         -1.84180       -4.34590        7.94820
H          6.38000        5.60490       -2.63320
H          8.76900        2.59870       -7.56020
H         10.86910        2.11480       -8.82250
H         13.24500        5.60920       -6.23190
H         11.20720        6.10890       -4.99070
H          4.53900        3.32650       -5.27960
H          1.22230       -0.73000       -2.12960
H          1.98880       -2.91460       -2.93620
H          0.51900       -4.30100       -4.35440
H         -1.73000       -3.47840       -4.95580
H         -2.49050       -1.28000       -4.16940
H         -0.64110        0.82150       -5.19020
H         -1.91530        2.07100       -6.87830
H         -4.03900        3.17290       -6.26200
H         -4.86210        3.02730       -3.93960
H         -3.58350        1.79210       -2.24950
H         -1.30250        1.59020        1.85070
H         -0.97270       -1.44040        2.33950
H          0.42720       -2.54420        4.02780
H         -0.26740       -2.56260        6.39980
H         -2.36170       -1.45170        7.06700
H         -3.76500       -0.34290        5.37990
H         -2.32230        1.83360        4.11330
H         -3.39560        3.92570        4.82450
H         -5.78290        4.32300        4.33520
H         -7.08090        2.61580        3.11270
H         -6.00530        0.53550        2.38340
H         -3.34840       -1.25300       -1.73870
H         -6.85870       -5.05590        2.29490
H         -7.71530       -5.56740        4.79800
H         -6.89640       -5.76080       12.04940
H         -4.74450       -4.57650       11.78110
H         -3.85900       -4.06790        9.54640
