
  xtb     02022201483D
 energy: -237.998261756815 gnorm: 0.000191089501 xtb: 6.4.1 (unknown)
126140  0     0  0            999 V2000
   -0.6036    4.7550   -6.0018 C   0  0  0  0  0  0  0  0  0  0  0  0
   -1.8007    5.0628   -6.5994 C   0  0  0  0  0  0  0  0  0  0  0  0
   -3.1259    4.7838   -6.0083 C   0  0  0  0  0  0  0  0  0  0  0  0
   -3.3766    4.3643   -4.8974 O   0  0  0  0  0  0  0  0  0  0  0  0
   -4.0968    4.9936   -7.1010 C   0  0  0  0  0  0  0  0  0  0  0  0
   -5.4514    4.8365   -7.0726 C   0  0  0  0  0  0  0  0  0  0  0  0
   -6.1930    5.0640   -8.2538 C   0  0  0  0  0  0  0  0  0  0  0  0
   -7.5930    4.9153   -8.2804 C   0  0  0  0  0  0  0  0  0  0  0  0
   -8.2856    5.1267   -9.4396 C   0  0  0  0  0  0  0  0  0  0  0  0
   -9.6183    4.9816   -9.4635 F   0  0  0  0  0  0  0  0  0  0  0  0
   -7.6101    5.4968  -10.6192 C   0  0  0  0  0  0  0  0  0  0  0  0
   -8.3146    5.6961  -11.7418 F   0  0  0  0  0  0  0  0  0  0  0  0
   -6.2521    5.6518  -10.6237 C   0  0  0  0  0  0  0  0  0  0  0  0
   -5.5087    5.4417   -9.4451 C   0  0  0  0  0  0  0  0  0  0  0  0
   -4.1031    5.6000   -9.4409 C   0  0  0  0  0  0  0  0  0  0  0  0
   -3.4068    5.3834   -8.2819 C   0  0  0  0  0  0  0  0  0  0  0  0
   -1.9825    5.4710   -7.9721 C   0  0  0  0  0  0  0  0  0  0  0  0
   -1.0079    5.9572   -8.8071 C   0  0  0  0  0  0  0  0  0  0  0  0
    0.3367    6.1481   -8.4288 C   0  0  0  0  0  0  0  0  0  0  0  0
    1.4369    6.3540   -8.1709 N   0  0  0  0  0  0  0  0  0  0  0  0
   -1.2411    6.3682  -10.1345 C   0  0  0  0  0  0  0  0  0  0  0  0
   -1.3740    6.7078  -11.2233 N   0  0  0  0  0  0  0  0  0  0  0  0
   -0.3991    4.5069   -4.6322 C   0  0  0  0  0  0  0  0  0  0  0  0
   -1.0582    5.0142   -3.5094 C   0  0  0  0  0  0  0  0  0  0  0  0
   -1.9828    6.1392   -3.5398 C   0  0  0  0  0  0  0  0  0  0  0  0
   -1.7478    7.2275   -4.3797 C   0  0  0  0  0  0  0  0  0  0  0  0
   -2.6386    8.2794   -4.4228 C   0  0  0  0  0  0  0  0  0  0  0  0
   -3.7860    8.2777   -3.6358 C   0  0  0  0  0  0  0  0  0  0  0  0
   -4.7332    9.4409   -3.6637 C   0  0  0  0  0  0  0  0  0  0  0  0
   -4.3050   10.4994   -2.6445 C   0  0  0  0  0  0  0  0  0  0  0  0
   -4.0038    7.2021   -2.7841 C   0  0  0  0  0  0  0  0  0  0  0  0
   -3.1157    6.1468   -2.7284 C   0  0  0  0  0  0  0  0  0  0  0  0
   -0.6319    4.3685   -2.3406 C   0  0  0  0  0  0  0  0  0  0  0  0
   -1.1302    4.4911   -0.6692 S   0  0  0  0  0  0  0  0  0  0  0  0
   -0.0334    3.2164   -0.2717 C   0  0  0  0  0  0  0  0  0  0  0  0
    0.3238    2.4306    0.8354 C   0  0  0  0  0  0  0  0  0  0  0  0
   -0.0575    2.4823    2.1949 C   0  0  0  0  0  0  0  0  0  0  0  0
    0.4619    1.4970    3.1005 C   0  0  0  0  0  0  0  0  0  0  0  0
    0.0464    1.6848    4.3428 N   0  0  0  0  0  0  0  0  0  0  0  0
   -0.9143    2.9865    4.3728 S   0  0  0  0  0  0  0  0  0  0  0  0
   -0.8431    3.3589    2.7998 N   0  0  0  0  0  0  0  0  0  0  0  0
    1.2388    0.4352    2.5831 C   0  0  0  0  0  0  0  0  0  0  0  0
    1.6337   -0.7825    3.1531 C   0  0  0  0  0  0  0  0  0  0  0  0
    1.5011   -1.6189    4.6605 S   0  0  0  0  0  0  0  0  0  0  0  0
    2.1767   -3.0408    3.9005 C   0  0  0  0  0  0  0  0  0  0  0  0
    2.3875   -4.3439    4.3657 C   0  0  0  0  0  0  0  0  0  0  0  0
    1.9409   -4.7906    5.6815 C   0  0  0  0  0  0  0  0  0  0  0  0
    2.2077   -4.0213    6.8125 C   0  0  0  0  0  0  0  0  0  0  0  0
    1.7630   -4.4301    8.0551 C   0  0  0  0  0  0  0  0  0  0  0  0
    1.0313   -5.6012    8.2025 C   0  0  0  0  0  0  0  0  0  0  0  0
    0.5710   -6.0554    9.5553 C   0  0  0  0  0  0  0  0  0  0  0  0
    1.5402   -7.0876   10.1352 C   0  0  0  0  0  0  0  0  0  0  0  0
    0.7568   -6.3603    7.0678 C   0  0  0  0  0  0  0  0  0  0  0  0
    1.2012   -5.9642    5.8235 C   0  0  0  0  0  0  0  0  0  0  0  0
    2.9308   -5.1598    3.3668 C   0  0  0  0  0  0  0  0  0  0  0  0
    3.0973   -4.2960    1.8370 S   0  0  0  0  0  0  0  0  0  0  0  0
    2.5023   -2.8474    2.5491 C   0  0  0  0  0  0  0  0  0  0  0  0
    2.1954   -1.5524    2.1253 C   0  0  0  0  0  0  0  0  0  0  0  0
    2.1848   -0.8445    0.9534 N   0  0  0  0  0  0  0  0  0  0  0  0
    1.6066    0.3825    1.2074 C   0  0  0  0  0  0  0  0  0  0  0  0
    1.2516    1.4616    0.3613 C   0  0  0  0  0  0  0  0  0  0  0  0
    1.5141    1.7070   -0.9764 N   0  0  0  0  0  0  0  0  0  0  0  0
    0.7075    2.7481   -1.3641 C   0  0  0  0  0  0  0  0  0  0  0  0
    0.3724    3.4105   -2.5468 C   0  0  0  0  0  0  0  0  0  0  0  0
    0.8360    3.3213   -4.2033 S   0  0  0  0  0  0  0  0  0  0  0  0
    2.7432    1.4474   -1.6982 C   0  0  0  0  0  0  0  0  0  0  0  0
    3.6170    2.6992   -1.7754 C   0  0  0  0  0  0  0  0  0  0  0  0
    2.4550   -1.5157   -0.2988 C   0  0  0  0  0  0  0  0  0  0  0  0
    3.9514   -1.7360   -0.5174 C   0  0  0  0  0  0  0  0  0  0  0  0
    3.3258   -6.5063    3.3544 C   0  0  0  0  0  0  0  0  0  0  0  0
    3.6063   -7.3916    4.3628 C   0  0  0  0  0  0  0  0  0  0  0  0
    3.5294   -8.8407    4.0535 C   0  0  0  0  0  0  0  0  0  0  0  0
    3.4515   -9.3527    2.9608 O   0  0  0  0  0  0  0  0  0  0  0  0
    3.5094   -9.5156    5.3733 C   0  0  0  0  0  0  0  0  0  0  0  0
    3.3275  -10.8531    5.6572 C   0  0  0  0  0  0  0  0  0  0  0  0
    3.3239  -11.2318    6.9961 C   0  0  0  0  0  0  0  0  0  0  0  0
    3.0834  -12.6676    7.3736 C   0  0  0  0  0  0  0  0  0  0  0  0
    3.3137  -13.5216    6.3699 F   0  0  0  0  0  0  0  0  0  0  0  0
    3.8493  -13.0645    8.4021 F   0  0  0  0  0  0  0  0  0  0  0  0
    1.8073  -12.8710    7.7600 F   0  0  0  0  0  0  0  0  0  0  0  0
    3.5020  -10.2960    8.0100 C   0  0  0  0  0  0  0  0  0  0  0  0
    3.6970   -8.9543    7.7153 C   0  0  0  0  0  0  0  0  0  0  0  0
    3.6917   -8.5600    6.3875 C   0  0  0  0  0  0  0  0  0  0  0  0
    3.8759   -7.2454    5.7678 C   0  0  0  0  0  0  0  0  0  0  0  0
    4.4179   -6.1468    6.3876 C   0  0  0  0  0  0  0  0  0  0  0  0
    4.8527   -5.0150    5.6729 C   0  0  0  0  0  0  0  0  0  0  0  0
    5.2514   -4.1038    5.0995 N   0  0  0  0  0  0  0  0  0  0  0  0
    4.6552   -6.0590    7.7718 C   0  0  0  0  0  0  0  0  0  0  0  0
    4.8341   -5.9311    8.8988 N   0  0  0  0  0  0  0  0  0  0  0  0
    0.2610    4.5983   -6.6375 H   0  0  0  0  0  0  0  0  0  0  0  0
   -5.9496    4.5414   -6.1618 H   0  0  0  0  0  0  0  0  0  0  0  0
   -8.1242    4.6305   -7.3857 H   0  0  0  0  0  0  0  0  0  0  0  0
   -5.7510    5.9369  -11.5355 H   0  0  0  0  0  0  0  0  0  0  0  0
   -3.6124    5.8803  -10.3592 H   0  0  0  0  0  0  0  0  0  0  0  0
   -0.8535    7.2532   -4.9863 H   0  0  0  0  0  0  0  0  0  0  0  0
   -2.4427    9.1172   -5.0770 H   0  0  0  0  0  0  0  0  0  0  0  0
   -4.7453    9.8858   -4.6608 H   0  0  0  0  0  0  0  0  0  0  0  0
   -5.7435    9.1020   -3.4269 H   0  0  0  0  0  0  0  0  0  0  0  0
   -4.2975   10.0776   -1.6420 H   0  0  0  0  0  0  0  0  0  0  0  0
   -4.9910   11.3428   -2.6625 H   0  0  0  0  0  0  0  0  0  0  0  0
   -3.3043   10.8601   -2.8711 H   0  0  0  0  0  0  0  0  0  0  0  0
   -4.8860    7.1875   -2.1606 H   0  0  0  0  0  0  0  0  0  0  0  0
   -3.3176    5.3040   -2.0868 H   0  0  0  0  0  0  0  0  0  0  0  0
    2.7847   -3.1139    6.7156 H   0  0  0  0  0  0  0  0  0  0  0  0
    1.9860   -3.8275    8.9227 H   0  0  0  0  0  0  0  0  0  0  0  0
   -0.4235   -6.4999    9.4772 H   0  0  0  0  0  0  0  0  0  0  0  0
    0.5127   -5.1990   10.2288 H   0  0  0  0  0  0  0  0  0  0  0  0
    1.2302   -7.3742   11.1370 H   0  0  0  0  0  0  0  0  0  0  0  0
    1.5605   -7.9788    9.5111 H   0  0  0  0  0  0  0  0  0  0  0  0
    2.5445   -6.6723   10.1861 H   0  0  0  0  0  0  0  0  0  0  0  0
    0.1760   -7.2668    7.1612 H   0  0  0  0  0  0  0  0  0  0  0  0
    0.9575   -6.5510    4.9495 H   0  0  0  0  0  0  0  0  0  0  0  0
    3.3007    0.6752   -1.1790 H   0  0  0  0  0  0  0  0  0  0  0  0
    2.4932    1.1075   -2.7084 H   0  0  0  0  0  0  0  0  0  0  0  0
    3.8342    3.0694   -0.7756 H   0  0  0  0  0  0  0  0  0  0  0  0
    4.5538    2.4554   -2.2686 H   0  0  0  0  0  0  0  0  0  0  0  0
    3.1277    3.4871   -2.3405 H   0  0  0  0  0  0  0  0  0  0  0  0
    1.9627   -2.4941   -0.2613 H   0  0  0  0  0  0  0  0  0  0  0  0
    2.0030   -0.9497   -1.1129 H   0  0  0  0  0  0  0  0  0  0  0  0
    4.5115   -0.8065   -0.4430 H   0  0  0  0  0  0  0  0  0  0  0  0
    4.1185   -2.1680   -1.4998 H   0  0  0  0  0  0  0  0  0  0  0  0
    4.3417   -2.4210    0.2302 H   0  0  0  0  0  0  0  0  0  0  0  0
    3.3684   -6.9555    2.3644 H   0  0  0  0  0  0  0  0  0  0  0  0
    3.1961  -11.5729    4.8640 H   0  0  0  0  0  0  0  0  0  0  0  0
    3.4935  -10.6225    9.0390 H   0  0  0  0  0  0  0  0  0  0  0  0
    3.8391   -8.2452    8.5133 H   0  0  0  0  0  0  0  0  0  0  0  0
  1  2  2  0  0  0  0
  2  3  1  0  0  0  0
  3  4  2  0  0  0  0
  3  5  1  0  0  0  0
  5  6  2  0  0  0  0
  6  7  1  0  0  0  0
  7  8  2  0  0  0  0
  8  9  1  0  0  0  0
  9 10  1  0  0  0  0
  9 11  2  0  0  0  0
 11 12  1  0  0  0  0
 11 13  1  0  0  0  0
 13 14  2  0  0  0  0
 14 15  1  0  0  0  0
 15 16  2  0  0  0  0
 16 17  1  0  0  0  0
 17 18  2  0  0  0  0
 18 19  1  0  0  0  0
 19 20  3  0  0  0  0
 18 21  1  0  0  0  0
 21 22  3  0  0  0  0
  1 23  1  0  0  0  0
 23 24  2  0  0  0  0
 24 25  1  0  0  0  0
 25 26  2  0  0  0  0
 26 27  1  0  0  0  0
 27 28  2  0  0  0  0
 28 29  1  0  0  0  0
 29 30  1  0  0  0  0
 28 31  1  0  0  0  0
 31 32  2  0  0  0  0
 24 33  1  0  0  0  0
 33 34  1  0  0  0  0
 34 35  1  0  0  0  0
 35 36  1  0  0  0  0
 36 37  1  0  0  0  0
 37 38  1  0  0  0  0
 38 39  2  0  0  0  0
 39 40  1  0  0  0  0
 40 41  1  0  0  0  0
 38 42  1  0  0  0  0
 42 43  1  0  0  0  0
 43 44  1  0  0  0  0
 44 45  1  0  0  0  0
 45 46  1  0  0  0  0
 46 47  1  0  0  0  0
 47 48  2  0  0  0  0
 48 49  1  0  0  0  0
 49 50  2  0  0  0  0
 50 51  1  0  0  0  0
 51 52  1  0  0  0  0
 50 53  1  0  0  0  0
 53 54  2  0  0  0  0
 46 55  2  0  0  0  0
 55 56  1  0  0  0  0
 56 57  1  0  0  0  0
 57 58  1  0  0  0  0
 58 59  1  0  0  0  0
 59 60  1  0  0  0  0
 60 61  1  0  0  0  0
 61 62  1  0  0  0  0
 62 63  1  0  0  0  0
 63 64  1  0  0  0  0
 64 65  1  0  0  0  0
 62 66  1  0  0  0  0
 66 67  1  0  0  0  0
 59 68  1  0  0  0  0
 68 69  1  0  0  0  0
 55 70  1  0  0  0  0
 70 71  2  0  0  0  0
 71 72  1  0  0  0  0
 72 73  2  0  0  0  0
 72 74  1  0  0  0  0
 74 75  2  0  0  0  0
 75 76  1  0  0  0  0
 76 77  1  0  0  0  0
 77 78  1  0  0  0  0
 77 79  1  0  0  0  0
 77 80  1  0  0  0  0
 76 81  2  0  0  0  0
 81 82  1  0  0  0  0
 82 83  2  0  0  0  0
 83 84  1  0  0  0  0
 84 85  2  0  0  0  0
 85 86  1  0  0  0  0
 86 87  3  0  0  0  0
 85 88  1  0  0  0  0
 88 89  3  0  0  0  0
 17  2  1  0  0  0  0
 65 23  1  0  0  0  0
 84 71  1  0  0  0  0
 16  5  1  0  0  0  0
 32 25  1  0  0  0  0
 64 33  2  0  0  0  0
 83 74  1  0  0  0  0
 14  7  1  0  0  0  0
 63 35  2  0  0  0  0
 61 36  2  0  0  0  0
 41 37  2  0  0  0  0
 60 42  2  0  0  0  0
 58 43  2  0  0  0  0
 57 45  2  0  0  0  0
 54 47  1  0  0  0  0
  1 90  1  0  0  0  0
  6 91  1  0  0  0  0
  8 92  1  0  0  0  0
 13 93  1  0  0  0  0
 15 94  1  0  0  0  0
 26 95  1  0  0  0  0
 27 96  1  0  0  0  0
 29 97  1  0  0  0  0
 29 98  1  0  0  0  0
 30 99  1  0  0  0  0
 30100  1  0  0  0  0
 30101  1  0  0  0  0
 31102  1  0  0  0  0
 32103  1  0  0  0  0
 48104  1  0  0  0  0
 49105  1  0  0  0  0
 51106  1  0  0  0  0
 51107  1  0  0  0  0
 52108  1  0  0  0  0
 52109  1  0  0  0  0
 52110  1  0  0  0  0
 53111  1  0  0  0  0
 54112  1  0  0  0  0
 66113  1  0  0  0  0
 66114  1  0  0  0  0
 67115  1  0  0  0  0
 67116  1  0  0  0  0
 67117  1  0  0  0  0
 68118  1  0  0  0  0
 68119  1  0  0  0  0
 69120  1  0  0  0  0
 69121  1  0  0  0  0
 69122  1  0  0  0  0
 70123  1  0  0  0  0
 75124  1  0  0  0  0
 81125  1  0  0  0  0
 82126  1  0  0  0  0
M  END
