126

C         -0.60360        4.75500       -6.00180
C         -1.80070        5.06280       -6.59940
C         -3.12590        4.78380       -6.00830
O         -3.37660        4.36430       -4.89740
C         -4.09680        4.99360       -7.10100
C         -5.45140        4.83650       -7.07260
C         -6.19300        5.06400       -8.25380
C         -7.59300        4.91530       -8.28040
C         -8.28560        5.12670       -9.43960
F         -9.61830        4.98160       -9.46350
C         -7.61010        5.49680      -10.61920
F         -8.31460        5.69610      -11.74180
C         -6.25210        5.65180      -10.62370
C         -5.50870        5.44170       -9.44510
C         -4.10310        5.60000       -9.44090
C         -3.40680        5.38340       -8.28190
C         -1.98250        5.47100       -7.97210
C         -1.00790        5.95720       -8.80710
C          0.33670        6.14810       -8.42880
N          1.43690        6.35400       -8.17090
C         -1.24110        6.36820      -10.13450
N         -1.37400        6.70780      -11.22330
C         -0.39910        4.50690       -4.63220
C         -1.05820        5.01420       -3.50940
C         -1.98280        6.13920       -3.53980
C         -1.74780        7.22750       -4.37970
C         -2.63860        8.27940       -4.42280
C         -3.78600        8.27770       -3.63580
C         -4.73320        9.44090       -3.66370
C         -4.30500       10.49940       -2.64450
C         -4.00380        7.20210       -2.78410
C         -3.11570        6.14680       -2.72840
C         -0.63190        4.36850       -2.34060
S         -1.13020        4.49110       -0.66920
C         -0.03340        3.21640       -0.27170
C          0.32380        2.43060        0.83540
C         -0.05750        2.48230        2.19490
C          0.46190        1.49700        3.10050
N          0.04640        1.68480        4.34280
S         -0.91430        2.98650        4.37280
N         -0.84310        3.35890        2.79980
C          1.23880        0.43520        2.58310
C          1.63370       -0.78250        3.15310
S          1.50110       -1.61890        4.66050
C          2.17670       -3.04080        3.90050
C          2.38750       -4.34390        4.36570
C          1.94090       -4.79060        5.68150
C          2.20770       -4.02130        6.81250
C          1.76300       -4.43010        8.05510
C          1.03130       -5.60120        8.20250
C          0.57100       -6.05540        9.55530
C          1.54020       -7.08760       10.13520
C          0.75680       -6.36030        7.06780
C          1.20120       -5.96420        5.82350
C          2.93080       -5.15980        3.36680
S          3.09730       -4.29600        1.83700
C          2.50230       -2.84740        2.54910
C          2.19540       -1.55240        2.12530
N          2.18480       -0.84450        0.95340
C          1.60660        0.38250        1.20740
C          1.25160        1.46160        0.36130
N          1.51410        1.70700       -0.97640
C          0.70750        2.74810       -1.36410
C          0.37240        3.41050       -2.54680
S          0.83600        3.32130       -4.20330
C          2.74320        1.44740       -1.69820
C          3.61700        2.69920       -1.77540
C          2.45500       -1.51570       -0.29880
C          3.95140       -1.73600       -0.51740
C          3.32580       -6.50630        3.35440
C          3.60630       -7.39160        4.36280
C          3.52940       -8.84070        4.05350
O          3.45150       -9.35270        2.96080
C          3.50940       -9.51560        5.37330
C          3.32750      -10.85310        5.65720
C          3.32390      -11.23180        6.99610
C          3.08340      -12.66760        7.37360
F          3.31370      -13.52160        6.36990
F          3.84930      -13.06450        8.40210
F          1.80730      -12.87100        7.76000
C          3.50200      -10.29600        8.01000
C          3.69700       -8.95430        7.71530
C          3.69170       -8.56000        6.38750
C          3.87590       -7.24540        5.76780
C          4.41790       -6.14680        6.38760
C          4.85270       -5.01500        5.67290
N          5.25140       -4.10380        5.09950
C          4.65520       -6.05900        7.77180
N          4.83410       -5.93110        8.89880
H          0.26100        4.59830       -6.63750
H         -5.94960        4.54140       -6.16180
H         -8.12420        4.63050       -7.38570
H         -5.75100        5.93690      -11.53550
H         -3.61240        5.88030      -10.35920
H         -0.85350        7.25320       -4.98630
H         -2.44270        9.11720       -5.07700
H         -4.74530        9.88580       -4.66080
H         -5.74350        9.10200       -3.42690
H         -4.29750       10.07760       -1.64200
H         -4.99100       11.34280       -2.66250
H         -3.30430       10.86010       -2.87110
H         -4.88600        7.18750       -2.16060
H         -3.31760        5.30400       -2.08680
H          2.78470       -3.11390        6.71560
H          1.98600       -3.82750        8.92270
H         -0.42350       -6.49990        9.47720
H          0.51270       -5.19900       10.22880
H          1.23020       -7.37420       11.13700
H          1.56050       -7.97880        9.51110
H          2.54450       -6.67230       10.18610
H          0.17600       -7.26680        7.16120
H          0.95750       -6.55100        4.94950
H          3.30070        0.67520       -1.17900
H          2.49320        1.10750       -2.70840
H          3.83420        3.06940       -0.77560
H          4.55380        2.45540       -2.26860
H          3.12770        3.48710       -2.34050
H          1.96270       -2.49410       -0.26130
H          2.00300       -0.94970       -1.11290
H          4.51150       -0.80650       -0.44300
H          4.11850       -2.16800       -1.49980
H          4.34170       -2.42100        0.23020
H          3.36840       -6.95550        2.36440
H          3.19610      -11.57290        4.86400
H          3.49350      -10.62250        9.03900
H          3.83910       -8.24520        8.51330
