
  xtb     02012223553D
 energy: -305.793503843342 gnorm: 0.000208471074 xtb: 6.4.1 (unknown)
181199  0     0  0            999 V2000
    6.2695    1.4665    6.1957 C   0  0  0  0  0  0  0  0  0  0  0  0
    7.4565    2.1408    6.0281 C   0  0  0  0  0  0  0  0  0  0  0  0
    8.1251    2.4998    4.7610 C   0  0  0  0  0  0  0  0  0  0  0  0
    7.9217    2.0830    3.6380 O   0  0  0  0  0  0  0  0  0  0  0  0
    9.1188    3.5347    5.1157 C   0  0  0  0  0  0  0  0  0  0  0  0
    9.9263    4.2513    4.2814 C   0  0  0  0  0  0  0  0  0  0  0  0
   10.7905    5.2233    4.8327 C   0  0  0  0  0  0  0  0  0  0  0  0
   11.6367    5.9996    4.0176 C   0  0  0  0  0  0  0  0  0  0  0  0
   12.4560    6.9402    4.5759 C   0  0  0  0  0  0  0  0  0  0  0  0
   13.2585    7.6810    3.7976 F   0  0  0  0  0  0  0  0  0  0  0  0
   12.4662    7.1435    5.9698 C   0  0  0  0  0  0  0  0  0  0  0  0
   13.2796    8.0737    6.4894 F   0  0  0  0  0  0  0  0  0  0  0  0
   11.6573    6.4045    6.7867 C   0  0  0  0  0  0  0  0  0  0  0  0
   10.7996    5.4274    6.2427 C   0  0  0  0  0  0  0  0  0  0  0  0
    9.9558    4.6619    7.0808 C   0  0  0  0  0  0  0  0  0  0  0  0
    9.1250    3.7265    6.5234 C   0  0  0  0  0  0  0  0  0  0  0  0
    8.1484    2.8132    7.1110 C   0  0  0  0  0  0  0  0  0  0  0  0
    7.9816    2.5976    8.4555 C   0  0  0  0  0  0  0  0  0  0  0  0
    8.6984    3.2861    9.4556 C   0  0  0  0  0  0  0  0  0  0  0  0
    9.2440    3.8185   10.3143 N   0  0  0  0  0  0  0  0  0  0  0  0
    7.1199    1.6402    9.0306 C   0  0  0  0  0  0  0  0  0  0  0  0
    6.4642    0.8706    9.5761 N   0  0  0  0  0  0  0  0  0  0  0  0
    5.4658    0.7934    5.2667 C   0  0  0  0  0  0  0  0  0  0  0  0
    3.8012    0.4494    5.7684 S   0  0  0  0  0  0  0  0  0  0  0  0
    3.4539   -0.1787    4.2207 C   0  0  0  0  0  0  0  0  0  0  0  0
    2.3311   -0.6225    3.4919 C   0  0  0  0  0  0  0  0  0  0  0  0
    2.7323   -0.9233    2.1888 C   0  0  0  0  0  0  0  0  0  0  0  0
    4.2211   -0.7498    2.0219 C   0  0  0  0  0  0  0  0  0  0  0  0
    4.5770   -0.1783    3.3751 C   0  0  0  0  0  0  0  0  0  0  0  0
    5.7032    0.3539    3.9642 C   0  0  0  0  0  0  0  0  0  0  0  0
    4.4753    0.1663    0.8409 C   0  0  0  0  0  0  0  0  0  0  0  0
    4.4737   -0.3710   -0.4403 C   0  0  0  0  0  0  0  0  0  0  0  0
    4.6363    0.4462   -1.5421 C   0  0  0  0  0  0  0  0  0  0  0  0
    4.8012    1.8171   -1.3936 C   0  0  0  0  0  0  0  0  0  0  0  0
    5.0270    2.6987   -2.5878 C   0  0  0  0  0  0  0  0  0  0  0  0
    6.5251    2.8678   -2.8485 C   0  0  0  0  0  0  0  0  0  0  0  0
    4.8020    2.3469   -0.1101 C   0  0  0  0  0  0  0  0  0  0  0  0
    4.6344    1.5351    0.9970 C   0  0  0  0  0  0  0  0  0  0  0  0
    4.9733   -2.0629    1.8733 C   0  0  0  0  0  0  0  0  0  0  0  0
    4.3613   -3.2904    2.0747 C   0  0  0  0  0  0  0  0  0  0  0  0
    5.0930   -4.4600    1.9693 C   0  0  0  0  0  0  0  0  0  0  0  0
    6.4469   -4.4314    1.6669 C   0  0  0  0  0  0  0  0  0  0  0  0
    7.2482   -5.6995    1.6064 C   0  0  0  0  0  0  0  0  0  0  0  0
    7.8269   -6.0293    2.9840 C   0  0  0  0  0  0  0  0  0  0  0  0
    7.0542   -3.1966    1.4716 C   0  0  0  0  0  0  0  0  0  0  0  0
    6.3296   -2.0256    1.5735 C   0  0  0  0  0  0  0  0  0  0  0  0
    1.6424   -1.1822    1.3679 C   0  0  0  0  0  0  0  0  0  0  0  0
    1.4341   -1.4365   -0.3370 S   0  0  0  0  0  0  0  0  0  0  0  0
   -0.2817   -1.3756   -0.1129 C   0  0  0  0  0  0  0  0  0  0  0  0
   -1.4064   -1.2973   -0.9874 C   0  0  0  0  0  0  0  0  0  0  0  0
   -1.4729   -1.2564   -2.3769 C   0  0  0  0  0  0  0  0  0  0  0  0
   -2.7013   -0.9985   -2.9382 C   0  0  0  0  0  0  0  0  0  0  0  0
   -3.0222   -0.7692   -4.4060 C   0  0  0  0  0  0  0  0  0  0  0  0
   -2.1077    0.3467   -4.8790 C   0  0  0  0  0  0  0  0  0  0  0  0
   -0.8483    0.0446   -5.3821 C   0  0  0  0  0  0  0  0  0  0  0  0
    0.0325    1.0542   -5.7194 C   0  0  0  0  0  0  0  0  0  0  0  0
   -0.3166    2.3892   -5.5611 C   0  0  0  0  0  0  0  0  0  0  0  0
    0.6711    3.4790   -5.8625 C   0  0  0  0  0  0  0  0  0  0  0  0
    1.5368    3.7625   -4.6327 C   0  0  0  0  0  0  0  0  0  0  0  0
   -1.5776    2.6854   -5.0621 C   0  0  0  0  0  0  0  0  0  0  0  0
   -2.4623    1.6788   -4.7204 C   0  0  0  0  0  0  0  0  0  0  0  0
   -2.9145   -2.0053   -5.2775 C   0  0  0  0  0  0  0  0  0  0  0  0
   -2.9717   -1.8642   -6.6592 C   0  0  0  0  0  0  0  0  0  0  0  0
   -2.9195   -2.9733   -7.4798 C   0  0  0  0  0  0  0  0  0  0  0  0
   -2.8132   -4.2514   -6.9446 C   0  0  0  0  0  0  0  0  0  0  0  0
   -2.8013   -5.4570   -7.8392 C   0  0  0  0  0  0  0  0  0  0  0  0
   -4.2306   -5.9202   -8.1282 C   0  0  0  0  0  0  0  0  0  0  0  0
   -2.7688   -4.3867   -5.5642 C   0  0  0  0  0  0  0  0  0  0  0  0
   -2.8218   -3.2787   -4.7368 C   0  0  0  0  0  0  0  0  0  0  0  0
   -4.4765   -0.3821   -4.3199 C   0  0  0  0  0  0  0  0  0  0  0  0
   -4.9202   -0.4369   -2.9916 C   0  0  0  0  0  0  0  0  0  0  0  0
   -3.8433   -0.7925   -2.1271 C   0  0  0  0  0  0  0  0  0  0  0  0
   -3.7829   -0.8768   -0.7352 C   0  0  0  0  0  0  0  0  0  0  0  0
   -2.5545   -1.1268   -0.1743 C   0  0  0  0  0  0  0  0  0  0  0  0
   -2.1811   -1.1659    1.2982 C   0  0  0  0  0  0  0  0  0  0  0  0
   -2.6205   -2.4428    1.9990 C   0  0  0  0  0  0  0  0  0  0  0  0
   -2.4337   -2.5503    3.3722 C   0  0  0  0  0  0  0  0  0  0  0  0
   -2.7863   -3.7068    4.0391 C   0  0  0  0  0  0  0  0  0  0  0  0
   -3.3283   -4.7876    3.3540 C   0  0  0  0  0  0  0  0  0  0  0  0
   -3.7614   -6.0234    4.0879 C   0  0  0  0  0  0  0  0  0  0  0  0
   -5.2149   -5.8876    4.5465 C   0  0  0  0  0  0  0  0  0  0  0  0
   -3.5046   -4.6767    1.9820 C   0  0  0  0  0  0  0  0  0  0  0  0
   -3.1504   -3.5215    1.3075 C   0  0  0  0  0  0  0  0  0  0  0  0
   -2.7187    0.0642    2.0008 C   0  0  0  0  0  0  0  0  0  0  0  0
   -1.9806    1.2379    2.0543 C   0  0  0  0  0  0  0  0  0  0  0  0
   -2.4893    2.3570    2.6875 C   0  0  0  0  0  0  0  0  0  0  0  0
   -3.7482    2.3364    3.2718 C   0  0  0  0  0  0  0  0  0  0  0  0
   -4.3144    3.5618    3.9284 C   0  0  0  0  0  0  0  0  0  0  0  0
   -5.1186    4.3850    2.9202 C   0  0  0  0  0  0  0  0  0  0  0  0
   -4.4936    1.1670    3.1914 C   0  0  0  0  0  0  0  0  0  0  0  0
   -3.9881    0.0445    2.5646 C   0  0  0  0  0  0  0  0  0  0  0  0
   -0.6789   -1.2161    1.2048 C   0  0  0  0  0  0  0  0  0  0  0  0
    0.4136   -1.1031    2.0600 C   0  0  0  0  0  0  0  0  0  0  0  0
    0.6183   -0.7238    3.7429 S   0  0  0  0  0  0  0  0  0  0  0  0
   -6.5623   -0.0164   -2.8031 S   0  0  0  0  0  0  0  0  0  0  0  0
   -6.6909    0.2502   -4.5401 C   0  0  0  0  0  0  0  0  0  0  0  0
   -5.4694   -0.0072   -5.1909 C   0  0  0  0  0  0  0  0  0  0  0  0
   -7.8148    0.6896   -5.2393 C   0  0  0  0  0  0  0  0  0  0  0  0
   -9.0770    1.0299   -4.8010 C   0  0  0  0  0  0  0  0  0  0  0  0
   -9.5404    0.9680   -3.4147 C   0  0  0  0  0  0  0  0  0  0  0  0
   -8.9186    0.6116   -2.4338 O   0  0  0  0  0  0  0  0  0  0  0  0
  -10.9485    1.4332   -3.4421 C   0  0  0  0  0  0  0  0  0  0  0  0
  -11.3091    1.7537   -4.7625 C   0  0  0  0  0  0  0  0  0  0  0  0
  -12.5824    2.2144   -5.0495 C   0  0  0  0  0  0  0  0  0  0  0  0
  -13.4811    2.3485   -4.0003 C   0  0  0  0  0  0  0  0  0  0  0  0
  -14.7147    2.7920   -4.2558 F   0  0  0  0  0  0  0  0  0  0  0  0
  -13.1384    2.0360   -2.6873 C   0  0  0  0  0  0  0  0  0  0  0  0
  -14.0324    2.1801   -1.7049 F   0  0  0  0  0  0  0  0  0  0  0  0
  -11.8520    1.5710   -2.4045 C   0  0  0  0  0  0  0  0  0  0  0  0
  -11.5265    1.2738   -1.1497 F   0  0  0  0  0  0  0  0  0  0  0  0
  -10.1543    1.5123   -5.6331 C   0  0  0  0  0  0  0  0  0  0  0  0
  -10.1388    1.7307   -6.9881 C   0  0  0  0  0  0  0  0  0  0  0  0
   -9.0410    1.5166   -7.8477 C   0  0  0  0  0  0  0  0  0  0  0  0
   -8.2023    1.3743   -8.6199 N   0  0  0  0  0  0  0  0  0  0  0  0
  -11.2384    2.2152   -7.7273 C   0  0  0  0  0  0  0  0  0  0  0  0
  -12.0912    2.6060   -8.3890 N   0  0  0  0  0  0  0  0  0  0  0  0
    5.8336    1.5150    7.1874 H   0  0  0  0  0  0  0  0  0  0  0  0
    9.9013    4.0827    3.2155 H   0  0  0  0  0  0  0  0  0  0  0  0
   11.6398    5.8560    2.9484 H   0  0  0  0  0  0  0  0  0  0  0  0
   11.6783    6.5725    7.8522 H   0  0  0  0  0  0  0  0  0  0  0  0
    9.9824    4.8446    8.1427 H   0  0  0  0  0  0  0  0  0  0  0  0
    6.6588    0.4627    3.4881 H   0  0  0  0  0  0  0  0  0  0  0  0
    4.3518   -1.4364   -0.5736 H   0  0  0  0  0  0  0  0  0  0  0  0
    4.6320    0.0116   -2.5314 H   0  0  0  0  0  0  0  0  0  0  0  0
    4.5570    2.2566   -3.4685 H   0  0  0  0  0  0  0  0  0  0  0  0
    4.5775    3.6788   -2.4160 H   0  0  0  0  0  0  0  0  0  0  0  0
    7.0112    3.3138   -1.9839 H   0  0  0  0  0  0  0  0  0  0  0  0
    6.6918    3.5088   -3.7111 H   0  0  0  0  0  0  0  0  0  0  0  0
    6.9865    1.9013   -3.0386 H   0  0  0  0  0  0  0  0  0  0  0  0
    4.9310    3.4108    0.0273 H   0  0  0  0  0  0  0  0  0  0  0  0
    4.6357    1.9718    1.9846 H   0  0  0  0  0  0  0  0  0  0  0  0
    3.3088   -3.3417    2.3129 H   0  0  0  0  0  0  0  0  0  0  0  0
    4.6005   -5.4092    2.1250 H   0  0  0  0  0  0  0  0  0  0  0  0
    6.6135   -6.5241    1.2761 H   0  0  0  0  0  0  0  0  0  0  0  0
    8.0650   -5.5880    0.8907 H   0  0  0  0  0  0  0  0  0  0  0  0
    8.4722   -5.2234    3.3263 H   0  0  0  0  0  0  0  0  0  0  0  0
    7.0268   -6.1574    3.7098 H   0  0  0  0  0  0  0  0  0  0  0  0
    8.4088   -6.9470    2.9426 H   0  0  0  0  0  0  0  0  0  0  0  0
    8.1078   -3.1522    1.2361 H   0  0  0  0  0  0  0  0  0  0  0  0
    6.8140   -1.0740    1.4126 H   0  0  0  0  0  0  0  0  0  0  0  0
   -0.5849   -1.3834   -2.9766 H   0  0  0  0  0  0  0  0  0  0  0  0
   -0.5573   -0.9873   -5.5164 H   0  0  0  0  0  0  0  0  0  0  0  0
    1.0081    0.8009   -6.1094 H   0  0  0  0  0  0  0  0  0  0  0  0
    1.3133    3.1782   -6.6927 H   0  0  0  0  0  0  0  0  0  0  0  0
    0.1442    4.3905   -6.1505 H   0  0  0  0  0  0  0  0  0  0  0  0
    2.0685    2.8639   -4.3278 H   0  0  0  0  0  0  0  0  0  0  0  0
    2.2640    4.5413   -4.8500 H   0  0  0  0  0  0  0  0  0  0  0  0
    0.9166    4.0876   -3.8003 H   0  0  0  0  0  0  0  0  0  0  0  0
   -1.8716    3.7173   -4.9334 H   0  0  0  0  0  0  0  0  0  0  0  0
   -3.4340    1.9349   -4.3235 H   0  0  0  0  0  0  0  0  0  0  0  0
   -3.0444   -0.8768   -7.0917 H   0  0  0  0  0  0  0  0  0  0  0  0
   -2.9594   -2.8460   -8.5521 H   0  0  0  0  0  0  0  0  0  0  0  0
   -2.2492   -6.2686   -7.3612 H   0  0  0  0  0  0  0  0  0  0  0  0
   -2.3054   -5.2138   -8.7810 H   0  0  0  0  0  0  0  0  0  0  0  0
   -4.7385   -6.1804   -7.2021 H   0  0  0  0  0  0  0  0  0  0  0  0
   -4.7940   -5.1277   -8.6156 H   0  0  0  0  0  0  0  0  0  0  0  0
   -4.2239   -6.7920   -8.7780 H   0  0  0  0  0  0  0  0  0  0  0  0
   -2.6899   -5.3721   -5.1274 H   0  0  0  0  0  0  0  0  0  0  0  0
   -2.7867   -3.4090   -3.6649 H   0  0  0  0  0  0  0  0  0  0  0  0
   -4.6636   -0.7125   -0.1340 H   0  0  0  0  0  0  0  0  0  0  0  0
   -2.0180   -1.7175    3.9212 H   0  0  0  0  0  0  0  0  0  0  0  0
   -2.6364   -3.7723    5.1071 H   0  0  0  0  0  0  0  0  0  0  0  0
   -3.1226   -6.1802    4.9592 H   0  0  0  0  0  0  0  0  0  0  0  0
   -3.6701   -6.8938    3.4350 H   0  0  0  0  0  0  0  0  0  0  0  0
   -5.5317   -6.7823    5.0770 H   0  0  0  0  0  0  0  0  0  0  0  0
   -5.8696   -5.7408    3.6904 H   0  0  0  0  0  0  0  0  0  0  0  0
   -5.3236   -5.0329    5.2104 H   0  0  0  0  0  0  0  0  0  0  0  0
   -3.9227   -5.5059    1.4293 H   0  0  0  0  0  0  0  0  0  0  0  0
   -3.2939   -3.4628    0.2386 H   0  0  0  0  0  0  0  0  0  0  0  0
   -1.0006    1.2823    1.6007 H   0  0  0  0  0  0  0  0  0  0  0  0
   -1.8955    3.2589    2.7305 H   0  0  0  0  0  0  0  0  0  0  0  0
   -3.5051    4.1744    4.3304 H   0  0  0  0  0  0  0  0  0  0  0  0
   -4.9658    3.2704    4.7548 H   0  0  0  0  0  0  0  0  0  0  0  0
   -5.9377    3.7942    2.5165 H   0  0  0  0  0  0  0  0  0  0  0  0
   -5.5310    5.2714    3.3963 H   0  0  0  0  0  0  0  0  0  0  0  0
   -4.4832    4.6972    2.0943 H   0  0  0  0  0  0  0  0  0  0  0  0
   -5.4802    1.1324    3.6305 H   0  0  0  0  0  0  0  0  0  0  0  0
   -4.5791   -0.8591    2.5244 H   0  0  0  0  0  0  0  0  0  0  0  0
   -5.3602    0.1037   -6.2550 H   0  0  0  0  0  0  0  0  0  0  0  0
   -7.6375    0.7828   -6.3039 H   0  0  0  0  0  0  0  0  0  0  0  0
  -12.9064    2.4725   -6.0438 H   0  0  0  0  0  0  0  0  0  0  0  0
  1  2  2  0  0  0  0
  2  3  1  0  0  0  0
  3  4  2  0  0  0  0
  3  5  1  0  0  0  0
  5  6  2  0  0  0  0
  6  7  1  0  0  0  0
  7  8  2  0  0  0  0
  8  9  1  0  0  0  0
  9 10  1  0  0  0  0
  9 11  2  0  0  0  0
 11 12  1  0  0  0  0
 11 13  1  0  0  0  0
 13 14  2  0  0  0  0
 14 15  1  0  0  0  0
 15 16  2  0  0  0  0
 16 17  1  0  0  0  0
 17 18  2  0  0  0  0
 18 19  1  0  0  0  0
 19 20  3  0  0  0  0
 18 21  1  0  0  0  0
 21 22  3  0  0  0  0
  1 23  1  0  0  0  0
 23 24  1  0  0  0  0
 24 25  1  0  0  0  0
 25 26  1  0  0  0  0
 26 27  2  0  0  0  0
 27 28  1  0  0  0  0
 28 29  1  0  0  0  0
 29 30  1  0  0  0  0
 28 31  1  0  0  0  0
 31 32  2  0  0  0  0
 32 33  1  0  0  0  0
 33 34  2  0  0  0  0
 34 35  1  0  0  0  0
 35 36  1  0  0  0  0
 34 37  1  0  0  0  0
 37 38  2  0  0  0  0
 28 39  1  0  0  0  0
 39 40  2  0  0  0  0
 40 41  1  0  0  0  0
 41 42  2  0  0  0  0
 42 43  1  0  0  0  0
 43 44  1  0  0  0  0
 42 45  1  0  0  0  0
 45 46  2  0  0  0  0
 27 47  1  0  0  0  0
 47 48  1  0  0  0  0
 48 49  1  0  0  0  0
 49 50  1  0  0  0  0
 50 51  2  0  0  0  0
 51 52  1  0  0  0  0
 52 53  1  0  0  0  0
 53 54  1  0  0  0  0
 54 55  2  0  0  0  0
 55 56  1  0  0  0  0
 56 57  2  0  0  0  0
 57 58  1  0  0  0  0
 58 59  1  0  0  0  0
 57 60  1  0  0  0  0
 60 61  2  0  0  0  0
 53 62  1  0  0  0  0
 62 63  2  0  0  0  0
 63 64  1  0  0  0  0
 64 65  2  0  0  0  0
 65 66  1  0  0  0  0
 66 67  1  0  0  0  0
 65 68  1  0  0  0  0
 68 69  2  0  0  0  0
 53 70  1  0  0  0  0
 70 71  2  0  0  0  0
 71 72  1  0  0  0  0
 72 73  1  0  0  0  0
 73 74  2  0  0  0  0
 74 75  1  0  0  0  0
 75 76  1  0  0  0  0
 76 77  2  0  0  0  0
 77 78  1  0  0  0  0
 78 79  2  0  0  0  0
 79 80  1  0  0  0  0
 80 81  1  0  0  0  0
 79 82  1  0  0  0  0
 82 83  2  0  0  0  0
 75 84  1  0  0  0  0
 84 85  2  0  0  0  0
 85 86  1  0  0  0  0
 86 87  2  0  0  0  0
 87 88  1  0  0  0  0
 88 89  1  0  0  0  0
 87 90  1  0  0  0  0
 90 91  2  0  0  0  0
 75 92  1  0  0  0  0
 92 93  1  0  0  0  0
 93 94  1  0  0  0  0
 71 95  1  0  0  0  0
 95 96  1  0  0  0  0
 96 97  2  0  0  0  0
 96 98  1  0  0  0  0
 98 99  2  0  0  0  0
 99100  1  0  0  0  0
100101  2  0  0  0  0
100102  1  0  0  0  0
102103  2  0  0  0  0
103104  1  0  0  0  0
104105  2  0  0  0  0
105106  1  0  0  0  0
105107  1  0  0  0  0
107108  1  0  0  0  0
107109  2  0  0  0  0
109110  1  0  0  0  0
103111  1  0  0  0  0
111112  2  0  0  0  0
112113  1  0  0  0  0
113114  3  0  0  0  0
112115  1  0  0  0  0
115116  3  0  0  0  0
 17  2  1  0  0  0  0
 30 23  2  0  0  0  0
 38 31  1  0  0  0  0
 46 39  1  0  0  0  0
 93 47  2  0  0  0  0
111 99  1  0  0  0  0
 16  5  1  0  0  0  0
 29 25  2  0  0  0  0
 92 49  2  0  0  0  0
109102  1  0  0  0  0
 14  7  1  0  0  0  0
 94 26  1  0  0  0  0
 74 50  1  0  0  0  0
 83 76  1  0  0  0  0
 91 84  1  0  0  0  0
 72 52  2  0  0  0  0
 61 54  1  0  0  0  0
 69 62  1  0  0  0  0
 97 70  1  0  0  0  0
  1117  1  0  0  0  0
  6118  1  0  0  0  0
  8119  1  0  0  0  0
 13120  1  0  0  0  0
 15121  1  0  0  0  0
 30122  1  0  0  0  0
 32123  1  0  0  0  0
 33124  1  0  0  0  0
 35125  1  0  0  0  0
 35126  1  0  0  0  0
 36127  1  0  0  0  0
 36128  1  0  0  0  0
 36129  1  0  0  0  0
 37130  1  0  0  0  0
 38131  1  0  0  0  0
 40132  1  0  0  0  0
 41133  1  0  0  0  0
 43134  1  0  0  0  0
 43135  1  0  0  0  0
 44136  1  0  0  0  0
 44137  1  0  0  0  0
 44138  1  0  0  0  0
 45139  1  0  0  0  0
 46140  1  0  0  0  0
 51141  1  0  0  0  0
 55142  1  0  0  0  0
 56143  1  0  0  0  0
 58144  1  0  0  0  0
 58145  1  0  0  0  0
 59146  1  0  0  0  0
 59147  1  0  0  0  0
 59148  1  0  0  0  0
 60149  1  0  0  0  0
 61150  1  0  0  0  0
 63151  1  0  0  0  0
 64152  1  0  0  0  0
 66153  1  0  0  0  0
 66154  1  0  0  0  0
 67155  1  0  0  0  0
 67156  1  0  0  0  0
 67157  1  0  0  0  0
 68158  1  0  0  0  0
 69159  1  0  0  0  0
 73160  1  0  0  0  0
 77161  1  0  0  0  0
 78162  1  0  0  0  0
 80163  1  0  0  0  0
 80164  1  0  0  0  0
 81165  1  0  0  0  0
 81166  1  0  0  0  0
 81167  1  0  0  0  0
 82168  1  0  0  0  0
 83169  1  0  0  0  0
 85170  1  0  0  0  0
 86171  1  0  0  0  0
 88172  1  0  0  0  0
 88173  1  0  0  0  0
 89174  1  0  0  0  0
 89175  1  0  0  0  0
 89176  1  0  0  0  0
 90177  1  0  0  0  0
 91178  1  0  0  0  0
 97179  1  0  0  0  0
 98180  1  0  0  0  0
104181  1  0  0  0  0
M  END
