75

C          2.49820        1.71320        0.03440
C          3.58440        2.12580       -0.68450
C          3.97770        1.74950       -2.06550
O          3.34180        1.14240       -2.90060
C          5.35060        2.25910       -2.24200
C          6.17160        2.11180       -3.32300
C          7.46490        2.67690       -3.28290
C          8.35320        2.55570       -4.36930
C          9.59970        3.11190       -4.30320
F         10.44400        2.99580       -5.33640
C         10.01160        3.81210       -3.15090
F         11.23820        4.34760       -3.11560
C          9.17270        3.94500       -2.08040
C          7.88030        3.38330       -2.11670
C          7.00580        3.51940       -1.01470
C          5.75290        2.96710       -1.07740
C          4.64780        2.95120       -0.12460
C          4.61400        3.65840        1.04740
C          3.52250        3.74400        1.93960
N          2.68370        3.89130        2.70980
C          5.68100        4.45620        1.51580
N          6.50890        5.11820        1.95560
C          1.37100        0.94220       -0.33080
S          0.27530        0.51050        0.98190
C         -0.76980       -0.31370       -0.11120
C         -1.95600       -0.98550        0.18870
C         -2.70560       -1.60600       -0.83590
C         -2.23920       -1.54540       -2.18230
C         -2.81500       -2.08830       -3.34840
C         -2.08410       -1.83620       -4.47950
C         -2.44110       -2.28150       -5.83070
O         -3.41680       -2.97560       -6.01380
C         -1.55600       -1.79650       -6.95520
C         -1.94420       -0.36440       -7.33250
S         -0.64550       -0.91640       -4.13230
C         -1.04310       -0.87090       -2.45650
C         -0.28790       -0.24470       -1.43930
C          0.91560        0.46590       -1.54190
C         -3.85130       -2.21650       -0.32600
C         -3.99260       -2.08610        1.05030
S         -2.67210       -1.17650        1.75120
C         -5.09490       -2.64250        1.73260
C         -5.40300       -2.64770        3.06360
C         -4.58530       -2.06140        4.13830
O         -3.54210       -1.44870        4.02590
C         -5.28560       -2.37430        5.39800
C         -4.90940       -2.05330        6.68660
C         -5.75010       -2.47700        7.70490
F         -5.42750       -2.19270        8.97530
C         -6.91610       -3.18800        7.45800
C         -7.28200       -3.50110        6.15810
C         -6.46140       -3.09250        5.11530
C         -6.57440       -3.26520        3.66810
C         -7.61070       -3.88470        3.02390
C         -7.74880       -4.02840        1.62590
N         -7.94090       -4.18080        0.50440
C         -8.71500       -4.47070        3.68150
N         -9.63450       -4.97050        4.15170
H          2.48470        1.99940        1.07990
H          5.83740        1.57030       -4.19490
H          8.05270        2.02320       -5.25810
H          9.50340        4.48500       -1.20690
H          7.35380        4.05440       -0.14630
H         -3.73300       -2.64630       -3.37820
H         -0.50800       -1.82890       -6.65280
H         -1.70520       -2.45120       -7.81480
H         -2.99260       -0.32300       -7.61840
H         -1.34210       -0.02730       -8.17210
H         -1.78350        0.31450       -6.49810
H          1.43590        0.62170       -2.46930
H         -4.56890       -2.74450       -0.92840
H         -5.78580       -3.14560        1.06690
H         -4.00610       -1.50110        6.89110
H         -7.53080       -3.49230        8.29040
H         -8.18970       -4.05370        5.98170
