
  xtb     02012219333D
 energy: -192.208760955501 gnorm: 0.000242582175 xtb: 6.4.1 (unknown)
 91103  0     0  0            999 V2000
    3.5327   -2.3423   -6.2798 C   0  0  0  0  0  0  0  0  0  0  0  0
    2.5621   -2.2673   -7.2549 C   0  0  0  0  0  0  0  0  0  0  0  0
    1.2096   -1.7713   -7.0525 C   0  0  0  0  0  0  0  0  0  0  0  0
    0.7327   -1.3152   -6.0180 O   0  0  0  0  0  0  0  0  0  0  0  0
    0.5058   -1.9229   -8.3337 C   0  0  0  0  0  0  0  0  0  0  0  0
   -0.7870   -1.6159   -8.6456 C   0  0  0  0  0  0  0  0  0  0  0  0
   -1.2513   -1.8623   -9.9569 C   0  0  0  0  0  0  0  0  0  0  0  0
   -2.5763   -1.5694  -10.3330 C   0  0  0  0  0  0  0  0  0  0  0  0
   -3.0010   -1.8208  -11.6078 C   0  0  0  0  0  0  0  0  0  0  0  0
   -4.2625   -1.5426  -11.9634 F   0  0  0  0  0  0  0  0  0  0  0  0
   -2.1210   -2.3738  -12.5592 C   0  0  0  0  0  0  0  0  0  0  0  0
   -2.5645   -2.6099  -13.8006 F   0  0  0  0  0  0  0  0  0  0  0  0
   -0.8287   -2.6679  -12.2235 C   0  0  0  0  0  0  0  0  0  0  0  0
   -0.3603   -2.4214  -10.9178 C   0  0  0  0  0  0  0  0  0  0  0  0
    0.9752   -2.7259  -10.5628 C   0  0  0  0  0  0  0  0  0  0  0  0
    1.4051   -2.4810   -9.2862 C   0  0  0  0  0  0  0  0  0  0  0  0
    2.6978   -2.6931   -8.6342 C   0  0  0  0  0  0  0  0  0  0  0  0
    3.8134   -3.2021   -9.2474 C   0  0  0  0  0  0  0  0  0  0  0  0
    3.8590   -3.5945  -10.6019 C   0  0  0  0  0  0  0  0  0  0  0  0
    3.9629   -3.9323  -11.6941 N   0  0  0  0  0  0  0  0  0  0  0  0
    5.0686   -3.4079   -8.6375 C   0  0  0  0  0  0  0  0  0  0  0  0
    6.1190   -3.6054   -8.2165 N   0  0  0  0  0  0  0  0  0  0  0  0
    3.4921   -1.9931   -4.9264 C   0  0  0  0  0  0  0  0  0  0  0  0
    4.5979   -2.2120   -4.0959 C   0  0  0  0  0  0  0  0  0  0  0  0
    4.4182   -1.8608   -2.7733 C   0  0  0  0  0  0  0  0  0  0  0  0
    5.4840   -2.0331   -1.3884 S   0  0  0  0  0  0  0  0  0  0  0  0
    4.2310   -1.3929   -0.3840 C   0  0  0  0  0  0  0  0  0  0  0  0
    3.9624   -1.1700    0.9718 C   0  0  0  0  0  0  0  0  0  0  0  0
    4.7103   -1.5011    2.1241 C   0  0  0  0  0  0  0  0  0  0  0  0
    4.1021   -1.3434    3.4113 C   0  0  0  0  0  0  0  0  0  0  0  0
    4.8833   -1.7613    4.3948 N   0  0  0  0  0  0  0  0  0  0  0  0
    6.2692   -2.2986    3.7558 S   0  0  0  0  0  0  0  0  0  0  0  0
    5.9237   -2.0247    2.1994 N   0  0  0  0  0  0  0  0  0  0  0  0
    2.8261   -0.7423    3.4924 C   0  0  0  0  0  0  0  0  0  0  0  0
    2.0525   -0.3813    4.6021 C   0  0  0  0  0  0  0  0  0  0  0  0
    0.9361    0.3131    4.1162 C   0  0  0  0  0  0  0  0  0  0  0  0
    0.9870    0.3738    2.7482 N   0  0  0  0  0  0  0  0  0  0  0  0
    0.1424    1.3174    2.0522 C   0  0  0  0  0  0  0  0  0  0  0  0
   -1.2678    0.7746    1.8224 C   0  0  0  0  0  0  0  0  0  0  0  0
    2.1241   -0.2961    2.3327 C   0  0  0  0  0  0  0  0  0  0  0  0
    2.6427   -0.6275    1.0538 C   0  0  0  0  0  0  0  0  0  0  0  0
    2.1283   -0.5491   -0.2286 N   0  0  0  0  0  0  0  0  0  0  0  0
    3.0764   -1.0347   -1.0905 C   0  0  0  0  0  0  0  0  0  0  0  0
    3.1562   -1.3106   -2.4567 C   0  0  0  0  0  0  0  0  0  0  0  0
    2.0464   -1.2328   -3.9533 Se  0  0  0  0  0  2  0  0  0  0  0  0
    0.7664   -0.4800   -0.7069 C   0  0  0  0  0  0  0  0  0  0  0  0
    0.0850   -1.8434   -0.6170 C   0  0  0  0  0  0  0  0  0  0  0  0
    0.0994    0.7633    5.1399 C   0  0  0  0  0  0  0  0  0  0  0  0
    0.5985    0.3833    6.4050 C   0  0  0  0  0  0  0  0  0  0  0  0
    2.0949   -0.5177    6.3222 S   0  0  0  0  0  0  0  0  0  0  0  0
   -0.1538    0.7746    7.5023 C   0  0  0  0  0  0  0  0  0  0  0  0
   -1.2998    1.4911    7.1897 C   0  0  0  0  0  0  0  0  0  0  0  0
   -1.4903    1.7111    5.3149 Se  0  0  0  0  0  2  0  0  0  0  0  0
   -2.3158    1.9663    8.0327 C   0  0  0  0  0  0  0  0  0  0  0  0
   -2.3319    2.1215    9.3935 C   0  0  0  0  0  0  0  0  0  0  0  0
   -3.6474    2.1583   10.0799 C   0  0  0  0  0  0  0  0  0  0  0  0
   -4.7314    2.2742    9.5636 O   0  0  0  0  0  0  0  0  0  0  0  0
   -3.3284    1.9718   11.5190 C   0  0  0  0  0  0  0  0  0  0  0  0
   -1.9323    1.9610   11.6930 C   0  0  0  0  0  0  0  0  0  0  0  0
   -1.3748    1.7651   12.9437 C   0  0  0  0  0  0  0  0  0  0  0  0
   -2.2350    1.5805   14.0174 C   0  0  0  0  0  0  0  0  0  0  0  0
   -1.7223    1.3745   15.2323 F   0  0  0  0  0  0  0  0  0  0  0  0
   -3.6198    1.5981   13.8663 C   0  0  0  0  0  0  0  0  0  0  0  0
   -4.4133    1.4203   14.9255 F   0  0  0  0  0  0  0  0  0  0  0  0
   -4.1745    1.7977   12.5994 C   0  0  0  0  0  0  0  0  0  0  0  0
   -5.4959    1.8095   12.4606 F   0  0  0  0  0  0  0  0  0  0  0  0
   -1.2983    2.1935   10.3921 C   0  0  0  0  0  0  0  0  0  0  0  0
   -0.0161    2.6502   10.2120 C   0  0  0  0  0  0  0  0  0  0  0  0
    0.4577    3.1195    8.9711 C   0  0  0  0  0  0  0  0  0  0  0  0
    0.8551    3.5332    7.9769 N   0  0  0  0  0  0  0  0  0  0  0  0
    0.9299    2.7823   11.2478 C   0  0  0  0  0  0  0  0  0  0  0  0
    1.7400    2.8874   12.0538 N   0  0  0  0  0  0  0  0  0  0  0  0
    4.4894   -2.7527   -6.5828 H   0  0  0  0  0  0  0  0  0  0  0  0
   -1.4462   -1.1937   -7.9026 H   0  0  0  0  0  0  0  0  0  0  0  0
   -3.2622   -1.1460   -9.6161 H   0  0  0  0  0  0  0  0  0  0  0  0
   -0.1685   -3.0909  -12.9644 H   0  0  0  0  0  0  0  0  0  0  0  0
    1.6215   -3.1486  -11.3146 H   0  0  0  0  0  0  0  0  0  0  0  0
    5.5110   -2.6405   -4.4737 H   0  0  0  0  0  0  0  0  0  0  0  0
    0.0697    2.2151    2.6803 H   0  0  0  0  0  0  0  0  0  0  0  0
    0.6316    1.6129    1.1227 H   0  0  0  0  0  0  0  0  0  0  0  0
   -1.2503   -0.2075    1.3585 H   0  0  0  0  0  0  0  0  0  0  0  0
   -1.7915    0.6851    2.7739 H   0  0  0  0  0  0  0  0  0  0  0  0
   -1.8274    1.4576    1.1893 H   0  0  0  0  0  0  0  0  0  0  0  0
    0.1968    0.2636   -0.1628 H   0  0  0  0  0  0  0  0  0  0  0  0
    0.8146   -0.1659   -1.7576 H   0  0  0  0  0  0  0  0  0  0  0  0
    0.0792   -2.2020    0.4107 H   0  0  0  0  0  0  0  0  0  0  0  0
    0.6125   -2.5690   -1.2330 H   0  0  0  0  0  0  0  0  0  0  0  0
   -0.9380   -1.7697   -0.9747 H   0  0  0  0  0  0  0  0  0  0  0  0
    0.1013    0.4939    8.5093 H   0  0  0  0  0  0  0  0  0  0  0  0
   -3.2748    2.1615    7.5567 H   0  0  0  0  0  0  0  0  0  0  0  0
   -0.3113    1.7399   13.1156 H   0  0  0  0  0  0  0  0  0  0  0  0
  1  2  2  0  0  0  0
  2  3  1  0  0  0  0
  3  4  2  0  0  0  0
  3  5  1  0  0  0  0
  5  6  2  0  0  0  0
  6  7  1  0  0  0  0
  7  8  2  0  0  0  0
  8  9  1  0  0  0  0
  9 10  1  0  0  0  0
  9 11  2  0  0  0  0
 11 12  1  0  0  0  0
 11 13  1  0  0  0  0
 13 14  2  0  0  0  0
 14 15  1  0  0  0  0
 15 16  2  0  0  0  0
 16 17  1  0  0  0  0
 17 18  2  0  0  0  0
 18 19  1  0  0  0  0
 19 20  3  0  0  0  0
 18 21  1  0  0  0  0
 21 22  3  0  0  0  0
  1 23  1  0  0  0  0
 23 24  2  0  0  0  0
 24 25  1  0  0  0  0
 25 26  1  0  0  0  0
 26 27  1  0  0  0  0
 27 28  1  0  0  0  0
 28 29  1  0  0  0  0
 29 30  1  0  0  0  0
 30 31  2  0  0  0  0
 31 32  1  0  0  0  0
 32 33  1  0  0  0  0
 30 34  1  0  0  0  0
 34 35  1  0  0  0  0
 35 36  2  0  0  0  0
 36 37  1  0  0  0  0
 37 38  1  0  0  0  0
 38 39  1  0  0  0  0
 37 40  1  0  0  0  0
 40 41  1  0  0  0  0
 41 42  1  0  0  0  0
 42 43  1  0  0  0  0
 43 44  1  0  0  0  0
 44 45  1  0  0  0  0
 42 46  1  0  0  0  0
 46 47  1  0  0  0  0
 36 48  1  0  0  0  0
 48 49  2  0  0  0  0
 49 50  1  0  0  0  0
 49 51  1  0  0  0  0
 51 52  2  0  0  0  0
 52 53  1  0  0  0  0
 52 54  1  0  0  0  0
 54 55  2  0  0  0  0
 55 56  1  0  0  0  0
 56 57  2  0  0  0  0
 56 58  1  0  0  0  0
 58 59  2  0  0  0  0
 59 60  1  0  0  0  0
 60 61  2  0  0  0  0
 61 62  1  0  0  0  0
 61 63  1  0  0  0  0
 63 64  1  0  0  0  0
 63 65  2  0  0  0  0
 65 66  1  0  0  0  0
 59 67  1  0  0  0  0
 67 68  2  0  0  0  0
 68 69  1  0  0  0  0
 69 70  3  0  0  0  0
 68 71  1  0  0  0  0
 71 72  3  0  0  0  0
 17  2  1  0  0  0  0
 45 23  1  0  0  0  0
 53 48  1  0  0  0  0
 67 55  1  0  0  0  0
 16  5  1  0  0  0  0
 44 25  2  0  0  0  0
 65 58  1  0  0  0  0
 14  7  1  0  0  0  0
 43 27  2  0  0  0  0
 41 28  2  0  0  0  0
 33 29  2  0  0  0  0
 40 34  2  0  0  0  0
 50 35  1  0  0  0  0
  1 73  1  0  0  0  0
  6 74  1  0  0  0  0
  8 75  1  0  0  0  0
 13 76  1  0  0  0  0
 15 77  1  0  0  0  0
 24 78  1  0  0  0  0
 38 79  1  0  0  0  0
 38 80  1  0  0  0  0
 39 81  1  0  0  0  0
 39 82  1  0  0  0  0
 39 83  1  0  0  0  0
 46 84  1  0  0  0  0
 46 85  1  0  0  0  0
 47 86  1  0  0  0  0
 47 87  1  0  0  0  0
 47 88  1  0  0  0  0
 51 89  1  0  0  0  0
 54 90  1  0  0  0  0
 60 91  1  0  0  0  0
M  END
