
  xtb     02012222153D
 energy: -187.272059341616 gnorm: 0.000760932586 xtb: 6.4.1 (unknown)
104115  0     0  0            999 V2000
   -3.7697   -0.2299   -7.0084 C   0  0  0  0  0  0  0  0  0  0  0  0
   -4.5058   -1.2369   -7.5663 C   0  0  0  0  0  0  0  0  0  0  0  0
   -4.6297   -1.2839   -9.0476 C   0  0  0  0  0  0  0  0  0  0  0  0
   -4.3330   -0.4088   -9.8283 O   0  0  0  0  0  0  0  0  0  0  0  0
   -5.1304   -2.6400   -9.3528 C   0  0  0  0  0  0  0  0  0  0  0  0
   -5.2996   -3.2395  -10.5668 C   0  0  0  0  0  0  0  0  0  0  0  0
   -5.7612   -4.5744  -10.6148 C   0  0  0  0  0  0  0  0  0  0  0  0
   -5.9498   -5.2402  -11.8414 C   0  0  0  0  0  0  0  0  0  0  0  0
   -6.3892   -6.5343  -11.8614 C   0  0  0  0  0  0  0  0  0  0  0  0
   -6.5658   -7.1673  -13.0293 F   0  0  0  0  0  0  0  0  0  0  0  0
   -6.6592   -7.2172  -10.6587 C   0  0  0  0  0  0  0  0  0  0  0  0
   -7.0878   -8.4856  -10.7084 F   0  0  0  0  0  0  0  0  0  0  0  0
   -6.4865   -6.5975   -9.4530 C   0  0  0  0  0  0  0  0  0  0  0  0
   -6.0358   -5.2634   -9.3980 C   0  0  0  0  0  0  0  0  0  0  0  0
   -5.8597   -4.6123   -8.1550 C   0  0  0  0  0  0  0  0  0  0  0  0
   -5.4183   -3.3170   -8.1338 C   0  0  0  0  0  0  0  0  0  0  0  0
   -5.1700   -2.3974   -7.0242 C   0  0  0  0  0  0  0  0  0  0  0  0
   -5.7046   -2.5225   -5.7662 C   0  0  0  0  0  0  0  0  0  0  0  0
   -5.6641   -1.4989   -4.8001 C   0  0  0  0  0  0  0  0  0  0  0  0
   -5.6717   -0.6792   -3.9963 N   0  0  0  0  0  0  0  0  0  0  0  0
   -6.4229   -3.6526   -5.3278 C   0  0  0  0  0  0  0  0  0  0  0  0
   -6.9937   -4.5598   -4.9167 N   0  0  0  0  0  0  0  0  0  0  0  0
   -3.1510   -0.1512   -5.7474 C   0  0  0  0  0  0  0  0  0  0  0  0
   -2.8545   -1.1509   -4.8317 C   0  0  0  0  0  0  0  0  0  0  0  0
   -2.1500   -0.6677   -3.7401 C   0  0  0  0  0  0  0  0  0  0  0  0
   -1.5449   -1.4102   -2.2899 S   0  0  0  0  0  0  0  0  0  0  0  0
   -0.9577    0.1321   -1.7745 C   0  0  0  0  0  0  0  0  0  0  0  0
   -0.2967    0.6141   -0.6036 C   0  0  0  0  0  0  0  0  0  0  0  0
   -0.1139    2.0057   -0.7811 C   0  0  0  0  0  0  0  0  0  0  0  0
   -0.6445    2.4599   -2.1296 C   0  0  0  0  0  0  0  0  0  0  0  0
    0.5573    2.9871   -2.9463 C   0  0  0  0  0  0  0  0  0  0  0  0
    0.2656    3.3127   -4.4043 C   0  0  0  0  0  0  0  0  0  0  0  0
   -1.7505    3.5192   -1.9965 C   0  0  0  0  0  0  0  0  0  0  0  0
   -2.8957    3.0641   -1.0992 C   0  0  0  0  0  0  0  0  0  0  0  0
   -1.1855    1.1658   -2.6707 C   0  0  0  0  0  0  0  0  0  0  0  0
   -1.8815    0.7165   -3.7907 C   0  0  0  0  0  0  0  0  0  0  0  0
   -2.5213    1.4087   -5.2296 S   0  0  0  0  0  0  0  0  0  0  0  0
    0.5223    2.7530    0.1814 C   0  0  0  0  0  0  0  0  0  0  0  0
    0.9686    2.0821    1.3178 C   0  0  0  0  0  0  0  0  0  0  0  0
    1.6871    2.5494    2.4582 C   0  0  0  0  0  0  0  0  0  0  0  0
    1.9388    1.5165    3.3509 C   0  0  0  0  0  0  0  0  0  0  0  0
    1.3485    0.2285    2.8322 C   0  0  0  0  0  0  0  0  0  0  0  0
    0.7733    0.6955    1.5030 C   0  0  0  0  0  0  0  0  0  0  0  0
    0.1312   -0.0513    0.5426 C   0  0  0  0  0  0  0  0  0  0  0  0
    0.1886   -0.3146    3.7023 C   0  0  0  0  0  0  0  0  0  0  0  0
    0.3335   -0.0946    5.2030 C   0  0  0  0  0  0  0  0  0  0  0  0
    2.4317   -0.8321    2.5374 C   0  0  0  0  0  0  0  0  0  0  0  0
    3.0226   -1.5421    3.7469 C   0  0  0  0  0  0  0  0  0  0  0  0
    2.7017    1.9636    4.4325 C   0  0  0  0  0  0  0  0  0  0  0  0
    3.0065    3.3410    4.3359 C   0  0  0  0  0  0  0  0  0  0  0  0
    2.3444    4.0833    2.9076 S   0  0  0  0  0  0  0  0  0  0  0  0
    3.7807    3.8170    5.3731 C   0  0  0  0  0  0  0  0  0  0  0  0
    4.0940    2.8222    6.3033 C   0  0  0  0  0  0  0  0  0  0  0  0
    3.3843    1.2756    5.8598 S   0  0  0  0  0  0  0  0  0  0  0  0
    4.9083    3.0794    7.4133 C   0  0  0  0  0  0  0  0  0  0  0  0
    5.3228    2.2511    8.4272 C   0  0  0  0  0  0  0  0  0  0  0  0
    4.9205    0.8537    8.6110 C   0  0  0  0  0  0  0  0  0  0  0  0
    4.2179    0.1739    7.8856 O   0  0  0  0  0  0  0  0  0  0  0  0
    5.5383    0.4178    9.8803 C   0  0  0  0  0  0  0  0  0  0  0  0
    5.4326   -0.8060   10.5070 C   0  0  0  0  0  0  0  0  0  0  0  0
    6.1080   -0.9633   11.7099 C   0  0  0  0  0  0  0  0  0  0  0  0
    6.0001   -2.6251   12.6242 Br  0  0  0  0  0  0  0  0  0  0  0  0
    6.8585    0.0656   12.2627 C   0  0  0  0  0  0  0  0  0  0  0  0
    6.9596    1.2916   11.6218 C   0  0  0  0  0  0  0  0  0  0  0  0
    6.2952    1.4736   10.4175 C   0  0  0  0  0  0  0  0  0  0  0  0
    6.2022    2.6236    9.5185 C   0  0  0  0  0  0  0  0  0  0  0  0
    6.8692    3.8095    9.6866 C   0  0  0  0  0  0  0  0  0  0  0  0
    7.7363    4.0820   10.7660 C   0  0  0  0  0  0  0  0  0  0  0  0
    8.4557    4.3655   11.6142 N   0  0  0  0  0  0  0  0  0  0  0  0
    6.8148    4.9186    8.8165 C   0  0  0  0  0  0  0  0  0  0  0  0
    6.8342    5.8607    8.1595 N   0  0  0  0  0  0  0  0  0  0  0  0
   -3.5653    0.5980   -7.6817 H   0  0  0  0  0  0  0  0  0  0  0  0
   -5.0829   -2.7041  -11.4786 H   0  0  0  0  0  0  0  0  0  0  0  0
   -5.7469   -4.7313  -12.7706 H   0  0  0  0  0  0  0  0  0  0  0  0
   -6.7013   -7.1337   -8.5419 H   0  0  0  0  0  0  0  0  0  0  0  0
   -6.0684   -5.1597   -7.2495 H   0  0  0  0  0  0  0  0  0  0  0  0
   -3.0968   -2.1872   -4.9804 H   0  0  0  0  0  0  0  0  0  0  0  0
    0.9274    3.8836   -2.4453 H   0  0  0  0  0  0  0  0  0  0  0  0
    1.3491    2.2345   -2.9030 H   0  0  0  0  0  0  0  0  0  0  0  0
    1.1597    3.7262   -4.8652 H   0  0  0  0  0  0  0  0  0  0  0  0
   -0.5314    4.0444   -4.4980 H   0  0  0  0  0  0  0  0  0  0  0  0
   -0.0149    2.4206   -4.9560 H   0  0  0  0  0  0  0  0  0  0  0  0
   -2.1443    3.7399   -2.9896 H   0  0  0  0  0  0  0  0  0  0  0  0
   -1.3106    4.4326   -1.5921 H   0  0  0  0  0  0  0  0  0  0  0  0
   -3.3758    2.1759   -1.5034 H   0  0  0  0  0  0  0  0  0  0  0  0
   -2.5363    2.8351   -0.0982 H   0  0  0  0  0  0  0  0  0  0  0  0
   -3.6432    3.8499   -1.0253 H   0  0  0  0  0  0  0  0  0  0  0  0
    0.6812    3.8153    0.0765 H   0  0  0  0  0  0  0  0  0  0  0  0
   -0.0386   -1.1112    0.6535 H   0  0  0  0  0  0  0  0  0  0  0  0
    0.0816   -1.3803    3.4946 H   0  0  0  0  0  0  0  0  0  0  0  0
   -0.7340    0.1741    3.3780 H   0  0  0  0  0  0  0  0  0  0  0  0
   -0.4967   -0.5751    5.7164 H   0  0  0  0  0  0  0  0  0  0  0  0
    1.2596   -0.5088    5.5876 H   0  0  0  0  0  0  0  0  0  0  0  0
    0.3055    0.9660    5.4406 H   0  0  0  0  0  0  0  0  0  0  0  0
    1.9889   -1.5808    1.8768 H   0  0  0  0  0  0  0  0  0  0  0  0
    3.2339   -0.3400    1.9806 H   0  0  0  0  0  0  0  0  0  0  0  0
    3.8003   -2.2257    3.4127 H   0  0  0  0  0  0  0  0  0  0  0  0
    2.2679   -2.1230    4.2689 H   0  0  0  0  0  0  0  0  0  0  0  0
    3.4679   -0.8397    4.4444 H   0  0  0  0  0  0  0  0  0  0  0  0
    4.1240    4.8313    5.4699 H   0  0  0  0  0  0  0  0  0  0  0  0
    5.2527    4.1058    7.4532 H   0  0  0  0  0  0  0  0  0  0  0  0
    4.8464   -1.6008   10.0727 H   0  0  0  0  0  0  0  0  0  0  0  0
    7.3679   -0.0909   13.2011 H   0  0  0  0  0  0  0  0  0  0  0  0
    7.5461    2.0755   12.0715 H   0  0  0  0  0  0  0  0  0  0  0  0
  1  2  2  0  0  0  0
  2  3  1  0  0  0  0
  3  4  2  0  0  0  0
  3  5  1  0  0  0  0
  5  6  2  0  0  0  0
  6  7  1  0  0  0  0
  7  8  2  0  0  0  0
  8  9  1  0  0  0  0
  9 10  1  0  0  0  0
  9 11  2  0  0  0  0
 11 12  1  0  0  0  0
 11 13  1  0  0  0  0
 13 14  2  0  0  0  0
 14 15  1  0  0  0  0
 15 16  2  0  0  0  0
 16 17  1  0  0  0  0
 17 18  2  0  0  0  0
 18 19  1  0  0  0  0
 19 20  3  0  0  0  0
 18 21  1  0  0  0  0
 21 22  3  0  0  0  0
  1 23  1  0  0  0  0
 23 24  2  0  0  0  0
 24 25  1  0  0  0  0
 25 26  1  0  0  0  0
 26 27  1  0  0  0  0
 27 28  1  0  0  0  0
 28 29  2  0  0  0  0
 29 30  1  0  0  0  0
 30 31  1  0  0  0  0
 31 32  1  0  0  0  0
 30 33  1  0  0  0  0
 33 34  1  0  0  0  0
 30 35  1  0  0  0  0
 35 36  1  0  0  0  0
 36 37  1  0  0  0  0
 29 38  1  0  0  0  0
 38 39  2  0  0  0  0
 39 40  1  0  0  0  0
 40 41  2  0  0  0  0
 41 42  1  0  0  0  0
 42 43  1  0  0  0  0
 43 44  2  0  0  0  0
 42 45  1  0  0  0  0
 45 46  1  0  0  0  0
 42 47  1  0  0  0  0
 47 48  1  0  0  0  0
 41 49  1  0  0  0  0
 49 50  2  0  0  0  0
 50 51  1  0  0  0  0
 50 52  1  0  0  0  0
 52 53  2  0  0  0  0
 53 54  1  0  0  0  0
 53 55  1  0  0  0  0
 55 56  2  0  0  0  0
 56 57  1  0  0  0  0
 57 58  2  0  0  0  0
 57 59  1  0  0  0  0
 59 60  2  0  0  0  0
 60 61  1  0  0  0  0
 61 62  1  0  0  0  0
 61 63  2  0  0  0  0
 63 64  1  0  0  0  0
 64 65  2  0  0  0  0
 65 66  1  0  0  0  0
 66 67  2  0  0  0  0
 67 68  1  0  0  0  0
 68 69  3  0  0  0  0
 67 70  1  0  0  0  0
 70 71  3  0  0  0  0
 17  2  1  0  0  0  0
 37 23  1  0  0  0  0
 43 39  1  0  0  0  0
 54 49  1  0  0  0  0
 66 56  1  0  0  0  0
 16  5  1  0  0  0  0
 36 25  2  0  0  0  0
 51 40  1  0  0  0  0
 65 59  1  0  0  0  0
 14  7  1  0  0  0  0
 35 27  2  0  0  0  0
 44 28  1  0  0  0  0
  1 72  1  0  0  0  0
  6 73  1  0  0  0  0
  8 74  1  0  0  0  0
 13 75  1  0  0  0  0
 15 76  1  0  0  0  0
 24 77  1  0  0  0  0
 31 78  1  0  0  0  0
 31 79  1  0  0  0  0
 32 80  1  0  0  0  0
 32 81  1  0  0  0  0
 32 82  1  0  0  0  0
 33 83  1  0  0  0  0
 33 84  1  0  0  0  0
 34 85  1  0  0  0  0
 34 86  1  0  0  0  0
 34 87  1  0  0  0  0
 38 88  1  0  0  0  0
 44 89  1  0  0  0  0
 45 90  1  0  0  0  0
 45 91  1  0  0  0  0
 46 92  1  0  0  0  0
 46 93  1  0  0  0  0
 46 94  1  0  0  0  0
 47 95  1  0  0  0  0
 47 96  1  0  0  0  0
 48 97  1  0  0  0  0
 48 98  1  0  0  0  0
 48 99  1  0  0  0  0
 52100  1  0  0  0  0
 55101  1  0  0  0  0
 60102  1  0  0  0  0
 63103  1  0  0  0  0
 64104  1  0  0  0  0
M  END
