147

C         -7.30490       -2.18640       -2.70160
C         -8.47700       -2.67700       -2.18080
C         -8.83290       -2.89620       -0.76350
O         -8.14020       -2.77760        0.22760
C        -10.25550       -3.29220       -0.76210
C        -11.05360       -3.57160        0.30900
C        -12.40280       -3.92440        0.08500
C        -13.27210       -4.22190        1.15230
C        -14.57390       -4.55680        0.90570
F        -15.40080       -4.83910        1.92270
C        -15.06210       -4.60910       -0.41500
F        -16.34370       -4.93990       -0.62610
C        -14.24250       -4.32630       -1.47130
C        -12.89470       -3.97780       -1.25110
C        -12.04060       -3.68500       -2.33900
C        -10.73450       -3.34780       -2.09830
C         -9.63440       -3.00420       -2.99620
C         -9.71080       -3.04100       -4.36570
C        -10.87890       -3.38020       -5.08110
N        -11.78980       -3.64200       -5.72930
C         -8.66530       -2.78140       -5.27700
N         -7.88110       -2.60350       -6.09790
C         -6.08250       -1.83960       -2.10540
C         -5.59910       -1.93310       -0.80670
C         -4.29550       -1.47790       -0.69770
Se        -3.08200       -1.34910        0.73500
C         -1.89820       -0.65770       -0.53420
C         -0.54700       -0.18890       -0.52360
C          0.38170       -0.12160        0.51230
C          1.63480        0.35300        0.20490
C          2.82740        0.54140        1.12420
C          2.43390        1.51560        2.21970
C          1.79090        1.05020        3.36000
C          1.39140        1.92950        4.34770
C          1.62080        3.29390        4.22450
C          1.15160        4.25140        5.28140
C         -0.27020        4.72810        4.97750
C          2.25210        3.75440        3.07740
C          2.65100        2.87900        2.08410
C          3.39150       -0.75100        1.68750
C          3.11190       -1.97970        1.10750
C          3.69380       -3.13340        1.60220
C          4.57250       -3.08770        2.67550
C          5.24570       -4.33270        3.17690
C          6.60150       -4.51600        2.49190
C          4.85800       -1.85200        3.24270
C          4.27720       -0.69720        2.75720
C          3.84690        1.09430        0.16290
C          3.30930        1.20110       -1.10970
C          1.94810        0.76410       -1.11210
C          1.01790        0.70290       -2.14640
C         -0.23430        0.22600       -1.83930
C         -1.42310        0.03400       -2.76210
C         -2.02470        1.33700       -3.26250
C         -2.92040        1.31030       -4.32460
C         -3.52940        2.47240       -4.75650
C         -3.26290        3.68870       -4.14050
C         -3.95960        4.94240       -4.58430
C         -5.27730        5.11700       -3.82640
C         -2.37620        3.70660       -3.07270
C         -1.76600        2.54570       -2.63260
C         -1.01630       -0.88100       -3.90110
C         -0.40810       -0.34970       -5.03170
C         -0.00030       -1.17550       -6.06130
C         -0.18620       -2.55030       -5.99050
C          0.29170       -3.44730       -7.09510
C          1.74170       -3.87030       -6.84980
C         -0.78100       -3.07680       -4.85230
C         -1.18800       -2.25500       -3.81710
C         -2.42470       -0.57230       -1.81470
C         -3.74030       -1.01670       -1.91300
S         -4.86430       -1.16520       -3.20020
Se         4.50420        1.84930       -2.39380
C          5.74020        1.91050       -0.97250
C          7.06650        2.27920       -0.86520
C          7.56450        2.12450        0.43130
S          6.33510        1.51320        1.53030
C          5.18630        1.47200        0.25070
C          8.89620        2.42740        0.74960
C          9.58190        2.30080        1.93100
C          9.04010        1.77410        3.18990
O          7.90050        1.40980        3.41830
C         10.16380        1.76410        4.14410
C         10.17340        1.33590        5.45680
C         11.35510        1.39880        6.18670
C         11.44330        0.94970        7.60820
C         12.48490        1.90300        5.53940
F         13.63470        1.96450        6.23630
C         12.50030        2.34200        4.22520
C         11.31300        2.27010        3.51410
C         10.97930        2.63110        2.13730
C         11.84960        3.18930        1.23750
C         13.19840        3.48860        1.52570
N         14.30170        3.75790        1.69070
C         11.54680        3.55540       -0.09070
N         11.38920        3.88240       -1.18090
H         -7.30390       -2.01920       -3.77240
H        -10.66040       -3.52210        1.31310
H        -12.91340       -4.18610        2.16910
H        -14.63190       -4.37190       -2.47640
H        -12.44690       -3.73290       -3.33590
H         -6.19030       -2.31600        0.00590
H          0.11510       -0.44200        1.50870
H          1.61740       -0.00910        3.48310
H          0.89840        1.54950        5.23120
H          1.81930        5.11430        5.32190
H          1.16590        3.76200        6.25720
H         -0.61040        5.42260        5.74200
H         -0.95410        3.88290        4.94620
H         -0.30300        5.22960        4.01280
H          2.43840        4.81240        2.95930
H          3.13830        3.26440        1.20020
H          2.43700       -2.04040        0.26570
H          3.46110       -4.08360        1.14270
H          4.61830       -5.20280        2.97390
H          5.39560       -4.26280        4.25620
H          6.47220       -4.60220        1.41530
H          7.24370       -3.66090        2.69100
H          7.09460       -5.41430        2.85590
H          5.54560       -1.78950        4.07340
H          4.51130        0.25210        3.21550
H          1.28470        1.02040       -3.14370
H         -3.13510        0.37550       -4.82180
H         -4.22090        2.43290       -5.58560
H         -3.32020        5.80770       -4.39870
H         -4.16530        4.89180       -5.65520
H         -5.09260        5.18380       -2.75650
H         -5.78450        6.02310       -4.14900
H         -5.93300        4.26820       -4.00770
H         -2.15800        4.64120       -2.57580
H         -1.08380        2.58520       -1.79570
H         -0.26870        0.71860       -5.11380
H          0.46440       -0.74480       -6.93670
H          0.22680       -2.92380       -8.05090
H         -0.33870       -4.33690       -7.14900
H          2.08970       -4.51770       -7.65110
H          2.38820       -2.99670       -6.80310
H          1.82510       -4.40740       -5.90760
H         -0.93240       -4.14390       -4.77440
H         -1.64510       -2.69090       -2.94020
H          7.67220        2.64260       -1.67720
H          9.45460        2.80790       -0.09740
H          9.26760        0.95570        5.90400
H         10.48790        0.56470        7.95200
H         12.20050        0.17290        7.71030
H         11.74440        1.77980        8.24650
H         13.41980        2.71530        3.80600
