144

C         -2.43790       -4.08450        6.82750
C         -1.71350       -4.04730        7.99360
C         -0.59960       -3.13660        8.27360
O         -0.19970       -2.21650        7.58200
C         -0.04220       -3.55560        9.57180
C          1.03420       -3.05070       10.24140
C          1.40750       -3.63140       11.47410
C          2.51540       -3.15780       12.20290
C          2.85880       -3.74280       13.38950
F          3.91500       -3.29260       14.08090
C          2.11040       -4.82290       13.89820
F          2.47080       -5.37710       15.06350
C          1.02920       -5.30360       13.21400
C          0.64970       -4.72350       11.98710
C         -0.46440       -5.21950       11.27080
C         -0.80720       -4.64410       10.07590
C         -1.87340       -4.94430        9.12110
C         -2.84120       -5.90000        9.29730
C         -3.88890       -6.18900        8.39870
N         -4.77150       -6.48420        7.72490
C         -2.92870       -6.73400       10.43180
N         -3.05610       -7.44280       11.32590
C         -2.32390       -3.31520        5.66220
C         -3.09310       -3.59210        4.52720
C         -2.78880       -2.76160        3.46890
S         -3.33560       -2.66800        1.81320
C         -2.21460       -1.36960        1.52700
C         -1.82620       -0.63600        0.40990
C         -2.17370       -0.56580       -1.05270
C         -2.00770       -1.87620       -1.79520
C         -1.17400       -2.87530       -1.31430
C         -1.00890       -4.05160       -2.02250
C         -1.65720       -4.25320       -3.23300
C         -1.51650       -5.54890       -3.97760
C         -2.62410       -6.52170       -3.56760
C         -2.47870       -3.24310       -3.71740
C         -2.65240       -2.06890       -3.01090
C         -3.60060       -0.04570       -1.14460
C         -3.88340        1.28800       -1.39880
C         -5.19460        1.72840       -1.43230
C         -6.24970        0.85570       -1.20580
C         -7.66790        1.34850       -1.20170
C         -8.06770        1.81480        0.19970
C         -5.95800       -0.47550       -0.93470
C         -4.65160       -0.92230       -0.90320
C         -1.14010        0.43440       -1.54160
C         -0.39740        0.96420       -0.45780
C         -0.83610        0.28370        0.71950
S         -0.34870        0.26570        2.37860
C         -1.48230       -1.01530        2.67530
C         -1.79640       -1.80970        3.77890
S         -1.22320       -1.96530        5.39350
C          0.58730        1.93090       -0.64190
C          0.86230        2.30790       -1.93600
C          1.87140        3.33530       -2.42090
C          3.30570        3.06340       -2.01380
C          4.25360        4.06970       -2.15900
C          5.57470        3.84270       -1.82720
C          5.98680        2.60470       -1.34920
C          7.41110        2.37970       -0.93170
C          7.60370        2.77260        0.53460
C          5.03940        1.59850       -1.22320
C          3.71520        1.81920       -1.55810
C          1.39020        4.69030       -1.92480
C          0.53940        5.47600       -2.68920
C          0.07260        6.68300       -2.20210
C          0.43160        7.13080       -0.93820
C         -0.04000        8.46330       -0.43240
C          0.93750        9.56640       -0.84330
C          1.27530        6.33570       -0.17320
C          1.74600        5.12950       -0.65570
C          1.74670        3.17180       -3.91410
C          0.74710        2.24260       -4.22310
C          0.17050        1.72440       -3.02470
C         -0.85360        0.79740       -2.83520
S          0.57750        1.95480       -5.89640
C          1.87970        3.09450       -6.22150
C          2.38050        3.65580       -5.03390
C          2.41450        3.41960       -7.47090
C          2.12160        2.94020       -8.72690
C          1.12210        1.91800       -9.04270
O          0.34580        1.36680       -8.28420
C          1.23680        1.67300      -10.49650
C          0.52720        0.77990      -11.27370
C          0.82640        0.72710      -12.62570
F          0.16550       -0.12600      -13.41830
C          1.81080        1.55290      -13.16770
F          2.08170        1.47900      -14.47590
C          2.52160        2.45180      -12.38560
C          2.22870        2.51080      -11.03230
C          2.78680        3.32920       -9.95320
C          3.75410        4.28720      -10.11580
C          4.29080        5.10290       -9.09750
N          4.77870        5.81020       -8.33500
C          4.35370        4.60340      -11.35360
N          4.88220        4.90930      -12.32550
H         -3.20510       -4.84600        6.75520
H          1.59570       -2.22390        9.83380
H          3.09860       -2.33210       11.82640
H          0.46710       -6.13120       13.61780
H         -1.01380       -6.04820       11.68660
H         -3.82220       -4.38160        4.49950
H         -0.64830       -2.73860       -0.38030
H         -0.36220       -4.82260       -1.62860
H         -0.54490       -5.99750       -3.76170
H         -1.57800       -5.36630       -5.05230
H         -3.60100       -6.09750       -3.78810
H         -2.57300       -6.72500       -2.50020
H         -2.52360       -7.46130       -4.10570
H         -2.98830       -3.37690       -4.66080
H         -3.30340       -1.29950       -3.40010
H         -3.08110        1.98930       -1.57610
H         -5.39840        2.76920       -1.64030
H         -8.33880        0.54800       -1.51920
H         -7.77250        2.18050       -1.90090
H         -9.09500        2.17120        0.20320
H         -7.41810        2.62260        0.52940
H         -7.98150        0.99550        0.90990
H         -6.76300       -1.17170       -0.74870
H         -4.44340       -1.96260       -0.69800
H          1.12160        2.34220        0.20030
H          3.94980        5.04040       -2.52360
H          6.29770        4.63740       -1.94230
H          7.67390        1.32790       -1.06010
H          8.07870        2.97810       -1.55480
H          7.35970        3.82260        0.68010
H          6.95400        2.17880        1.17380
H          8.63460        2.61010        0.84000
H          5.33990        0.62550       -0.86120
H          2.99930        1.01600       -1.46020
H          0.23870        5.14850       -3.67370
H         -0.58450        7.28420       -2.81430
H         -1.02690        8.68670       -0.84250
H         -0.11900        8.43960        0.65630
H          0.59610       10.53230       -0.47870
H          1.02120        9.61360       -1.92670
H          1.92510        9.36900       -0.43250
H          1.56560        6.66330        0.81480
H          2.40630        4.53010       -0.04600
H         -1.38170        0.37900       -3.67760
H          3.18190        4.37290       -5.03750
H          3.20640        4.15630       -7.40950
H         -0.23200        0.14290      -10.84900
H          3.27250        3.06560      -12.85490
