136

C          5.54230        0.85110        7.25900
C          6.57800       -0.03690        7.07130
C          6.62840       -1.08490        6.05400
O          5.78530       -1.35280        5.21240
C          7.91430       -1.78100        6.24190
C          8.42980       -2.82860        5.53650
C          9.69910       -3.33620        5.89360
C         10.28260       -4.41160        5.19670
C         11.51320       -4.88110        5.56210
F         12.06770       -5.90440        4.89610
C         12.21120       -4.29800        6.63770
F         13.41640       -4.77880        6.97340
C         11.67000       -3.25330        7.33350
C         10.40390       -2.74490        6.98120
C          9.84030       -1.66020        7.69310
C          8.61100       -1.18060        7.32730
C          7.79650       -0.08330        7.84990
C          8.16950        0.75410        8.87150
C          9.38530        0.64010        9.57700
N         10.35540        0.60230       10.19040
C          7.43120        1.85120        9.36120
N          6.91260        2.77030        9.81640
C          4.36250        1.03280        6.53670
C          3.45310        2.06200        6.85140
C          3.62050        2.99100        7.98000
C          2.80760        2.81420        9.09520
C          2.93150        3.64570       10.19100
C          3.86660        4.66600       10.17450
C          4.66090        4.85530        9.05950
C          4.55520        4.02780        7.95010
C          5.37360        4.31390        6.72290
C          4.59530        5.22960        5.77520
C          2.37070        2.07360        5.98640
S          0.98960        3.14390        5.83100
C          0.49550        2.24230        4.43820
C         -0.47640        2.29520        3.43260
C         -1.45970        3.27210        3.15980
C         -2.19330        3.18770        1.93240
N         -3.02920        4.20110        1.77130
S         -2.90740        5.17520        3.05850
N         -1.77970        4.34260        3.86900
C         -1.99680        2.06570        1.09720
C         -2.64200        1.68800       -0.08810
S         -3.80840        2.31670       -1.19960
C         -3.67490        0.84120       -2.12680
C         -4.29720        0.42110       -3.31400
C         -5.26600        1.27790       -4.00760
C         -6.58440        0.90360       -4.28130
C         -7.16850       -0.41810       -3.85570
C         -7.84190       -1.16140       -5.01020
C         -7.40870        1.82530       -4.91860
C         -6.95230        3.07450       -5.29260
C         -5.65050        3.44470       -5.00240
C         -4.82120        2.55590       -4.35130
C         -3.88290       -0.85740       -3.66770
S         -2.77340       -1.55080       -2.48220
C         -2.79090       -0.09010       -1.56760
C         -2.17300        0.41130       -0.41690
N         -1.24290        0.00540        0.50100
C         -1.08980        1.01730        1.43250
C         -0.23300        1.19420        2.55420
N          0.88740        0.52850        3.00770
C          1.33180        1.15910        4.13780
C          2.42180        1.06460        5.00460
S          3.83190        0.08200        5.15000
C          1.70290       -0.50890        2.42060
C          1.56750       -1.83570        3.16680
C         -0.79750       -1.36930        0.50070
C          0.21930       -1.64930       -0.60610
C         -4.21520       -1.68590       -4.76490
C         -4.46700       -1.28680       -6.04470
C         -4.04210        0.00930       -6.62100
O         -3.50530        0.93270       -6.04620
C         -4.25050       -0.11590       -8.07560
C         -3.94480        0.83720       -9.04450
C         -4.19060        0.42500      -10.33200
C         -4.69440       -0.84680      -10.63760
C         -4.99650       -1.79810       -9.69290
C         -4.75980       -1.39570       -8.37430
C         -4.94000       -2.12810       -7.12530
C         -5.53400       -3.35640       -6.98700
C         -5.78250       -3.98920       -5.75100
N         -6.03760       -4.55180       -4.78260
C         -6.01970       -4.13440       -8.05750
N         -6.43340       -4.81860       -8.88170
C         -4.67810       -0.58430      -12.12300
C         -6.03610       -0.26700      -12.78370
C         -5.65680        0.40230      -14.08500
C         -5.18190        1.60710      -13.79580
C         -5.23220        1.77260      -12.29400
C         -6.49360        0.95760      -11.98070
C         -4.11890        0.83430      -11.78200
H          5.64150        1.54850        8.08290
H          7.87890       -3.26270        4.71600
H          9.76080       -4.86890        4.37070
H         12.21820       -2.81770        8.15420
H         10.40080       -1.23700        8.51050
H          2.08620        2.00960        9.09830
H          2.30220        3.49390       11.05500
H          3.97560        5.31500       11.03000
H          5.38620        5.65500        9.04720
H          6.30460        4.80220        7.01600
H          5.62720        3.39000        6.19990
H          4.35260        6.16670        6.27050
H          5.18470        5.44720        4.88750
H          3.66500        4.75700        5.46770
H         -6.39610       -1.05360       -3.42390
H         -7.91220       -0.23250       -3.07460
H         -8.77630       -0.68570       -5.29570
H         -7.19200       -1.17620       -5.88220
H         -8.05680       -2.18720       -4.72030
H         -8.43610        1.55820       -5.11660
H         -7.61570        3.76180       -5.79680
H         -5.28480        4.42290       -5.27530
H         -3.80240        2.83160       -4.12930
H          2.74630       -0.18210        2.48850
H          1.45360       -0.60930        1.36880
H          2.10920       -2.61140        2.63360
H          0.52660       -2.13670        3.26680
H          1.99090       -1.74860        4.16340
H         -1.67740       -1.99980        0.32890
H         -0.40180       -1.61570        1.48230
H          0.61970       -2.65220       -0.48870
H          1.04160       -0.93730       -0.58810
H         -0.25590       -1.58230       -1.58050
H         -4.19840       -2.74950       -4.55300
H         -3.54690        1.80020       -8.76550
H         -5.36790       -2.77820       -9.94230
H         -4.06290       -1.25810      -12.71630
H         -6.71920       -1.10950      -12.84690
H         -5.71830       -0.07500      -15.04530
H         -4.76730        2.33700      -14.46610
H         -5.18340        2.78850      -11.91140
H         -6.64340        0.76230      -10.92040
H         -7.39090        1.41150      -12.39790
H         -3.13090        1.10680      -12.14880
