123

C         -5.72940       -2.49260       -3.42600
C         -5.36680       -3.36080       -4.43170
C         -4.00010       -3.74020       -4.78460
O         -2.96620       -3.42070       -4.22000
C         -4.10790       -4.60390       -5.97540
C         -3.11200       -5.18870       -6.70140
C         -3.45380       -5.97470       -7.82500
C         -2.46730       -6.59690       -8.61390
C         -2.82630       -7.34830       -9.69780
F         -1.88520       -7.93930      -10.44820
C         -4.18340       -7.51010      -10.03890
F         -4.50600       -8.25170      -11.10770
C         -5.16350       -6.91900       -9.29170
C         -4.82650       -6.13790       -8.16850
C         -5.83540       -5.52080       -7.39260
C         -5.48210       -4.76170       -6.30910
C         -6.28300       -4.00610       -5.34600
C         -7.65470       -3.94580       -5.34180
C         -8.47380       -4.61560       -6.27440
N         -9.19980       -5.12970       -7.00070
C         -8.46180       -3.23230       -4.43190
N         -9.20940       -2.68840       -3.74880
C         -4.95270       -1.80050       -2.49670
C         -5.51790       -0.89380       -1.57260
C         -6.91180       -0.46650       -1.59520
C         -7.66140       -0.46270       -0.42030
C         -8.99320       -0.10370       -0.44670
C         -9.60860        0.27660       -1.63380
C        -11.07630        0.57500       -1.67740
C        -11.85280       -0.71870       -1.93730
C         -8.84610        0.31500       -2.79510
C         -7.51610       -0.04940       -2.78110
C         -4.57370       -0.44770       -0.65470
S         -4.66170        0.67420        0.68990
C         -2.96520        0.45290        0.94300
C         -1.95370        0.89760        1.80570
C         -1.99510        1.71520        2.95750
C         -0.78240        1.94750        3.68840
N         -0.97760        2.68460        4.76990
S         -2.55020        3.05870        4.85990
N         -3.04320        2.29450        3.52080
C          0.43610        1.46210        3.16150
C          1.76440        1.71270        3.52770
S          2.64230        2.57320        4.74410
C          4.12920        2.17410        3.90590
C          5.45800        2.51870        4.13300
C          5.90390        3.38200        5.22060
C          6.77490        4.44510        4.98170
C          7.19390        5.25030        6.01990
C          6.76050        5.02140        7.32050
C          7.20150        5.91990        8.43680
C          6.29640        7.15150        8.51840
C          5.87020        3.97910        7.55050
C          5.44030        3.17110        6.51770
C          6.31100        1.95990        3.15670
S          5.41500        1.07240        1.92580
C          3.93460        1.40040        2.74800
C          2.57780        1.13550        2.54250
N          1.79870        0.51940        1.59940
C          0.47900        0.68910        1.96380
C         -0.74180        0.29200        1.36170
N         -1.02750       -0.54500        0.29800
C         -2.37040       -0.43600        0.03840
C         -3.28430       -0.96330       -0.87660
S         -3.22330       -2.02410       -2.23540
C         -0.34440       -1.75080       -0.12210
C         -0.90460       -2.97620        0.59970
C          2.37440        0.12200        0.33320
C          3.15240       -1.19000        0.43960
C          7.70170        2.03160        3.24990
C          8.68300        1.56940        2.40200
C          8.46670        0.88510        1.12910
O          7.40500        0.58010        0.61170
C          9.80970        0.61930        0.57440
C         10.14010       -0.00080       -0.61270
C         11.49210       -0.12370       -0.89670
F         11.86440       -0.72090       -2.04160
C         12.47600        0.34820       -0.04170
C         12.12760        0.96890        1.14910
C         10.78360        1.10650        1.46330
C         10.10860        1.70110        2.61880
C         10.74370        2.27040        3.69330
C         12.14570        2.35880        3.82540
N         13.27580        2.46740        3.99650
C         10.12520        2.84960        4.82130
N          9.72070        3.34700        5.77500
H         -6.78980       -2.29610       -3.32430
H         -2.07760       -5.05160       -6.42530
H         -1.42360       -6.48230       -8.36640
H         -6.19810       -7.05290       -9.56650
H         -6.86370       -5.66420       -7.68130
H         -7.20080       -0.77480        0.50530
H         -9.56850       -0.12640        0.46760
H        -11.28720        1.28890       -2.47580
H        -11.40070        1.01120       -0.73030
H        -11.70140       -1.42000       -1.12020
H        -11.50360       -1.18810       -2.85350
H        -12.91650       -0.51240       -2.02810
H         -9.30260        0.62770       -3.72260
H         -6.93020        0.01030       -3.68750
H          7.09990        4.65410        3.97230
H          7.87440        6.06470        5.82050
H          8.23100        6.23880        8.26510
H          7.16280        5.38060        9.38480
H          6.61630        7.80490        9.32640
H          5.26610        6.85300        8.69970
H          6.33070        7.71010        7.58570
H          5.51580        3.79280        8.55390
H          4.76370        2.35270        6.71450
H          0.71360       -1.67320        0.09550
H         -0.48810       -1.86050       -1.20120
H         -1.95560       -3.11870        0.36400
H         -0.35930       -3.86240        0.28720
H         -0.80040       -2.86130        1.67690
H          1.58220        0.07110       -0.41470
H          3.07040        0.90990        0.02500
H          4.06560       -1.03730        1.00760
H          2.57170       -1.96360        0.93790
H          3.42420       -1.53620       -0.55340
H          8.04180        2.52810        4.15030
H          9.38460       -0.37160       -1.28680
H         13.51230        0.22600       -0.31470
H         12.90270        1.33060        1.80380
