135

C         -3.04110       -2.67050       -6.85870
C         -2.12070       -3.43480       -7.54410
C         -0.94380       -4.08490       -6.97120
O         -0.63030       -4.16870       -5.79460
C         -0.17890       -4.62990       -8.10780
C          1.02370       -5.27320       -8.09680
C          1.59430       -5.67880       -9.32420
C          2.83990       -6.33320       -9.37380
C          3.37430       -6.70450      -10.57570
F          4.56250       -7.32450      -10.62100
C          2.68700       -6.44000      -11.77640
F          3.23580       -6.81400      -12.94080
C          1.47490       -5.80830      -11.75970
C          0.89740       -5.41090      -10.53740
C         -0.35270       -4.74890      -10.51290
C         -0.88510       -4.36060       -9.31260
C         -2.11840       -3.64950       -8.97520
C         -3.08130       -3.27600       -9.88050
C         -2.99920       -3.52610      -11.26560
N         -2.99400       -3.69620      -12.40130
C         -4.28560       -2.61060       -9.57580
N         -5.28790       -2.07260       -9.40960
C         -3.10240       -2.30410       -5.51510
C         -4.04400       -1.38360       -5.01050
C         -5.17060       -0.77970       -5.78270
C         -6.35170       -1.75040       -5.86870
C         -3.81730       -1.11040       -3.67100
S         -4.54620        0.03160       -2.55280
C         -3.37230       -0.42570       -1.36880
C         -2.92950       -0.01380       -0.10430
C         -3.30930        1.12290        0.65550
N         -4.28020        1.93260        0.23540
C         -4.55500        3.01610        0.94520
C         -5.48020        3.93180        0.32000
C         -6.40240        3.60350       -0.63840
C         -7.09300        4.71740       -1.14630
C         -6.68770        5.89940       -0.60130
C         -7.15160        7.27680       -0.92760
C         -6.12610        8.01420       -1.79190
S         -5.43880        5.65130        0.57390
C         -3.90030        3.23870        2.19640
C         -4.32970        4.20760        3.17320
C         -5.58860        4.65420        3.47630
C         -5.60770        5.52590        4.57820
C         -4.37460        5.73780        5.12270
C         -4.01300        6.63840        6.25330
C         -3.33980        7.91530        5.74500
S         -3.15590        4.84020        4.28490
N         -2.85870        2.50220        2.54710
C         -2.52280        1.46550        1.78140
C         -1.44330        0.61460        2.13030
C         -0.53380        0.69920        3.19550
S         -0.07560        1.81860        4.42570
C          1.15620        0.69740        4.95730
C          2.18760        0.79880        5.90310
C          2.36240        1.95430        6.82990
C          1.09350        2.23980        7.63190
C          2.95690       -0.35410        5.92470
S          2.35610       -1.58930        4.81820
C          1.15480       -0.50270        4.23010
C          0.21400       -0.48450        3.19690
N         -0.17240       -1.28170        2.14940
C          0.13480       -2.69530        2.14720
C          1.56230       -2.99100        1.69160
C         -1.16010       -0.60500        1.45530
C         -1.82500       -0.84960        0.23230
N         -1.59690       -1.72840       -0.81060
C         -2.50940       -1.44400       -1.79340
C         -2.73930       -1.82610       -3.11500
S         -1.97300       -2.84700       -4.26940
C         -0.38840       -2.43780       -1.16720
C          0.71110       -1.46440       -1.58610
C          4.13180       -0.66730        6.64910
C          5.19630        0.17270        6.81100
C          5.45760        1.34060        5.93500
O          4.68890        1.89970        5.18330
C          6.90370        1.61030        6.08280
C          7.67920        2.51750        5.38790
C          9.04390        2.58840        5.64500
C          9.94600        3.53030        4.91740
C          9.56460        1.72820        6.61440
F         10.88590        1.78680        6.86380
C          8.80970        0.81090        7.32740
C          7.45390        0.75020        7.04850
C          6.39740       -0.10900        7.56910
C          6.49010       -0.96900        8.63010
C          5.39290       -1.69450        9.14110
N          4.52860       -2.28680        9.61010
C          7.67420       -1.19080        9.36240
N          8.61450       -1.40750        9.98360
H         -3.82750       -2.23370       -7.45890
H          1.53650       -5.46350       -7.16620
H          3.37880       -6.54210       -8.46290
H          0.96220       -5.61330      -12.68870
H         -0.85120       -4.56000      -11.44960
H         -4.85470       -0.50630       -6.79070
H         -5.48900        0.12770       -5.26580
H         -6.06570       -2.66030       -6.39040
H         -7.16920       -1.28680       -6.41310
H         -6.69820       -2.01370       -4.87210
H         -6.56800        2.58780       -0.94740
H         -7.86490        4.64890       -1.89250
H         -8.10230        7.21150       -1.46090
H         -7.31180        7.83960       -0.00500
H         -5.95930        7.47590       -2.72200
H         -6.48050        9.01470       -2.02650
H         -5.17860        8.09430       -1.26400
H         -6.47140        4.34660        2.94450
H         -6.50620        5.97910        4.95870
H         -3.33140        6.12120        6.93230
H         -4.91950        6.89560        6.80510
H         -4.00610        8.45180        5.07340
H         -2.42940        7.66870        5.20420
H         -3.08640        8.56590        6.57820
H          2.62870        2.83180        6.23540
H          3.18730        1.74860        7.51350
H          0.80440        1.36370        8.20850
H          0.27100        2.51430        6.97720
H          1.27370        3.06140        8.32040
H          0.01530       -3.06260        3.17330
H         -0.60480       -3.20810        1.52990
H          1.77710       -2.54180        0.72700
H          1.70620       -4.06580        1.62170
H          2.27350       -2.59870        2.41270
H         -0.64000       -3.08770       -2.00890
H         -0.05320       -3.06770       -0.34820
H          1.60510       -2.01340       -1.86820
H          0.38380       -0.87800       -2.44140
H          0.95220       -0.78160       -0.77360
H          4.22050       -1.69210        6.99280
H          7.22300        3.15800        4.64850
H          9.38260        4.14640        4.22290
H         10.70170        2.97170        4.36540
H         10.47090        4.17270        5.62320
H          9.29060        0.17430        8.05190
