129

C         -1.28610       -1.69170        6.74170
C         -1.45440       -2.48670        7.84120
C         -0.72960       -2.12800        9.08790
O         -0.17720       -1.07970        9.33390
C         -0.77210       -3.34830        9.92260
C         -0.13820       -3.60520       11.10310
C         -0.28720       -4.87890       11.69800
C          0.35180       -5.19720       12.91200
C          0.20480       -6.43960       13.46250
F          0.81590       -6.74120       14.61700
C         -0.58610       -7.41540       12.82450
F         -0.71040       -8.62650       13.38490
C         -1.22040       -7.13550       11.64660
C         -1.09110       -5.86370       11.05390
C         -1.74790       -5.56280        9.83810
C         -1.59220       -4.32160        9.28530
C         -2.13690       -3.73350        8.06580
C         -3.26400       -4.15280        7.40570
C         -3.85730       -3.36550        6.40360
N         -4.35230       -2.70790        5.60280
C         -3.96980       -5.32440        7.73350
N         -4.57210       -6.27300        7.96970
C         -1.42100       -1.92980        5.35950
C         -1.44730       -3.10160        4.59310
C         -1.31190       -4.44560        5.16690
C         -0.24900       -4.65220        6.04710
C         -0.06730       -5.86720        6.67390
C         -0.95430       -6.90030        6.41870
C         -1.98910       -6.71420        5.52330
C         -2.19330       -5.49740        4.87730
C         -3.31950       -5.33990        3.89210
C         -4.56490       -6.16850        4.19920
C         -1.44730       -2.80980        3.22210
S         -1.35210       -3.80990        1.78710
C         -1.30480       -2.38280        0.81100
C         -1.20340       -2.01560       -0.54050
C         -1.22180       -2.76920       -1.73640
C         -1.14650       -2.08130       -2.99550
N         -1.22680       -2.90720       -4.02600
S         -1.38040       -4.41770       -3.46600
N         -1.34770       -4.07810       -1.88390
C         -0.91070       -0.68670       -3.00290
C         -0.54600        0.19120       -4.03230
S         -0.30670        0.16640       -5.74640
C          0.30580        1.80610       -5.64760
C          0.81010        2.67650       -6.60250
C          0.95030        2.34110       -8.02700
C          0.17010        2.95020       -9.01250
C         -0.93560        3.90560       -8.66520
C         -2.21780        3.12890       -8.35700
C          0.37220        2.58290      -10.33620
C          1.31980        1.63840      -10.68310
C          2.07600        1.02450       -9.69920
C          1.88780        1.37300       -8.37620
C          1.23480        3.89010       -6.02760
S          0.95810        3.93070       -4.28740
C          0.29490        2.34000       -4.34480
C         -0.20790        1.41280       -3.42960
N         -0.39170        1.32950       -2.07490
C         -0.83510        0.05600       -1.78890
C         -1.13450       -0.59430       -0.56750
N         -1.26880       -0.11130        0.72200
C         -1.35260       -1.19770        1.55450
C         -1.42910       -1.43740        2.92710
S         -1.40470       -0.48250        4.35350
C         -1.84190        1.15080        1.14240
C         -3.32630        1.00060        1.47470
C          0.16640        2.33560       -1.19750
C         -0.66530        3.61780       -1.18320
C          1.83470        4.89700       -6.78690
C          2.37260        6.10380       -6.40220
C          2.50520        6.58270       -5.02670
O          2.05290        6.07810       -4.01150
C          3.31690        7.81130       -5.09590
C          3.76340        8.59920       -4.07560
C          4.55800        9.72750       -4.37890
C          5.05190       10.57100       -3.36540
C          5.82350       11.65260       -3.68600
F          6.29420       12.45350       -2.71940
C          6.13300       11.93750       -5.03060
F          6.89190       13.00450       -5.31540
C          5.66730       11.13730       -6.03620
C          4.86990       10.01420       -5.73910
C          4.38580        9.18050       -6.77440
C          3.61780        8.09200       -6.45800
C          2.98870        7.06700       -7.28980
C          2.95250        7.07540       -8.66130
C          3.57800        8.05770       -9.45670
N          4.06930        8.82390      -10.15660
C          2.25830        6.15360       -9.47180
N          1.69920        5.46730      -10.20430
H         -0.88500       -0.70910        6.98240
H          0.47280       -2.85120       11.57550
H          0.96130       -4.46100       13.41230
H         -1.82590       -7.89280       11.17370
H         -2.34540       -6.32460        9.36290
H          0.44560       -3.84440        6.22880
H          0.76020       -6.00740        7.35320
H         -0.83150       -7.85450        6.90850
H         -2.65790       -7.53500        5.32230
H         -3.60670       -4.28850        3.83540
H         -2.94570       -5.63010        2.90490
H         -5.37180       -5.86050        3.53890
H         -4.39140       -7.22940        4.03990
H         -4.89050       -6.02020        5.22590
H         -0.66970        4.51380       -7.79930
H         -1.10760        4.57630       -9.50790
H         -3.02910        3.81370       -8.12120
H         -2.50940        2.52530       -9.21320
H         -2.06550        2.46500       -7.50850
H         -0.22080        3.05540      -11.10430
H          1.46570        1.37690      -11.72020
H          2.81180        0.27860       -9.95950
H          2.47660        0.90620       -7.59960
H         -1.74090        1.87300        0.34000
H         -1.29690        1.50240        2.02420
H         -3.73630        1.96980        1.74450
H         -3.47750        0.32060        2.30810
H         -3.86860        0.61930        0.61190
H          1.16790        2.58040       -1.56850
H          0.27660        1.91090       -0.19930
H         -0.58450        4.12730       -2.13900
H         -0.29370        4.28440       -0.41040
H         -1.71800        3.41550       -0.99740
H          1.89830        4.64930       -7.84060
H          3.51780        8.36360       -3.05120
H          4.82420       10.36610       -2.33100
H          5.91310       11.37020       -7.06050
H          4.64270        9.42390       -7.79250
