
  xtb     02012215593D
 energy: -148.733360881007 gnorm: 0.000314813193 xtb: 6.4.1 (unknown)
 78 86  0     0  0            999 V2000
   -2.5974   -1.3835   -4.3478 C   0  0  0  0  0  0  0  0  0  0  0  0
   -3.0089   -0.5110   -5.3209 C   0  0  0  0  0  0  0  0  0  0  0  0
   -4.2429   -0.8574   -6.0746 C   0  0  0  0  0  0  0  0  0  0  0  0
   -4.8079   -1.9273   -6.0890 O   0  0  0  0  0  0  0  0  0  0  0  0
   -4.6549    0.3921   -6.7467 C   0  0  0  0  0  0  0  0  0  0  0  0
   -5.7913    0.6516   -7.4553 C   0  0  0  0  0  0  0  0  0  0  0  0
   -5.9980    1.9523   -7.9683 C   0  0  0  0  0  0  0  0  0  0  0  0
   -7.1579    2.2762   -8.6982 C   0  0  0  0  0  0  0  0  0  0  0  0
   -7.3404    3.5450   -9.1726 C   0  0  0  0  0  0  0  0  0  0  0  0
   -8.4470    3.8528   -9.8636 F   0  0  0  0  0  0  0  0  0  0  0  0
   -6.3725    4.5419   -8.9401 C   0  0  0  0  0  0  0  0  0  0  0  0
   -6.5782    5.7779   -9.4156 F   0  0  0  0  0  0  0  0  0  0  0  0
   -5.2358    4.2574   -8.2368 C   0  0  0  0  0  0  0  0  0  0  0  0
   -5.0177    2.9592   -7.7340 C   0  0  0  0  0  0  0  0  0  0  0  0
   -3.8435    2.6556   -7.0059 C   0  0  0  0  0  0  0  0  0  0  0  0
   -3.6632    1.3880   -6.5227 C   0  0  0  0  0  0  0  0  0  0  0  0
   -2.5671    0.7873   -5.7603 C   0  0  0  0  0  0  0  0  0  0  0  0
   -1.2930    1.2992   -5.7022 C   0  0  0  0  0  0  0  0  0  0  0  0
   -0.9268    2.5569   -6.2213 C   0  0  0  0  0  0  0  0  0  0  0  0
   -0.5734    3.5830   -6.5970 N   0  0  0  0  0  0  0  0  0  0  0  0
   -0.1842    0.6139   -5.1740 C   0  0  0  0  0  0  0  0  0  0  0  0
    0.7583    0.1051   -4.7583 N   0  0  0  0  0  0  0  0  0  0  0  0
   -1.7652   -1.1991   -3.2345 C   0  0  0  0  0  0  0  0  0  0  0  0
   -1.3259   -2.6389   -2.3036 S   0  0  0  0  0  0  0  0  0  0  0  0
   -0.4477   -1.6737   -1.1913 C   0  0  0  0  0  0  0  0  0  0  0  0
    0.3273   -1.7610   -0.0391 C   0  0  0  0  0  0  0  0  0  0  0  0
    0.9109   -2.9415    1.0941 S   0  0  0  0  0  0  0  0  0  0  0  0
    1.6723   -1.6632    2.0050 C   0  0  0  0  0  0  0  0  0  0  0  0
    1.4913   -0.3901    1.4485 C   0  0  0  0  0  0  0  0  0  0  0  0
    0.7189   -0.4398    0.2841 C   0  0  0  0  0  0  0  0  0  0  0  0
    0.1902    0.4415   -0.6120 N   0  0  0  0  0  0  0  0  0  0  0  0
   -0.5133   -0.2952   -1.5296 C   0  0  0  0  0  0  0  0  0  0  0  0
   -1.2640   -0.0336   -2.6649 C   0  0  0  0  0  0  0  0  0  0  0  0
    0.5345    1.8361   -0.7400 C   0  0  0  0  0  0  0  0  0  0  0  0
    1.7240    2.0219   -1.6789 C   0  0  0  0  0  0  0  0  0  0  0  0
    2.2490    0.8885    2.3632 S   0  0  0  0  0  0  0  0  0  0  0  0
    2.8014   -0.2884    3.5155 C   0  0  0  0  0  0  0  0  0  0  0  0
    3.5036   -0.3674    4.7156 C   0  0  0  0  0  0  0  0  0  0  0  0
    3.5224   -1.7377    5.0840 C   0  0  0  0  0  0  0  0  0  0  0  0
    2.8467   -2.4767    4.1481 N   0  0  0  0  0  0  0  0  0  0  0  0
    2.7199   -3.9123    4.1183 C   0  0  0  0  0  0  0  0  0  0  0  0
    3.8785   -4.5578    3.3627 C   0  0  0  0  0  0  0  0  0  0  0  0
    2.4166   -1.6097    3.1883 C   0  0  0  0  0  0  0  0  0  0  0  0
    4.1732   -1.9896    6.2868 C   0  0  0  0  0  0  0  0  0  0  0  0
    4.6623   -0.8286    6.8589 C   0  0  0  0  0  0  0  0  0  0  0  0
    4.3183    0.6058    5.8706 S   0  0  0  0  0  0  0  0  0  0  0  0
    5.3587   -0.5887    8.0628 C   0  0  0  0  0  0  0  0  0  0  0  0
    5.6948   -1.4052    9.1069 C   0  0  0  0  0  0  0  0  0  0  0  0
    6.3779   -0.7920   10.1828 C   0  0  0  0  0  0  0  0  0  0  0  0
    6.9380   -0.2695   11.0367 N   0  0  0  0  0  0  0  0  0  0  0  0
    5.4314   -2.8450    9.3050 C   0  0  0  0  0  0  0  0  0  0  0  0
    5.0177   -3.6350    8.4858 O   0  0  0  0  0  0  0  0  0  0  0  0
    5.7228   -3.1896   10.5621 O   0  0  0  0  0  0  0  0  0  0  0  0
    5.5259   -4.5554   10.9216 C   0  0  0  0  0  0  0  0  0  0  0  0
    5.7073   -4.6806   12.4219 C   0  0  0  0  0  0  0  0  0  0  0  0
   -3.0708   -2.3596   -4.4124 H   0  0  0  0  0  0  0  0  0  0  0  0
   -6.5254   -0.1226   -7.6186 H   0  0  0  0  0  0  0  0  0  0  0  0
   -7.9084    1.5239   -8.8840 H   0  0  0  0  0  0  0  0  0  0  0  0
   -4.5033    5.0319   -8.0710 H   0  0  0  0  0  0  0  0  0  0  0  0
   -3.1228    3.4401   -6.8388 H   0  0  0  0  0  0  0  0  0  0  0  0
   -1.4888    0.9486   -3.0368 H   0  0  0  0  0  0  0  0  0  0  0  0
    0.7712    2.2199    0.2557 H   0  0  0  0  0  0  0  0  0  0  0  0
   -0.3395    2.3686   -1.1243 H   0  0  0  0  0  0  0  0  0  0  0  0
    1.5134    1.5792   -2.6506 H   0  0  0  0  0  0  0  0  0  0  0  0
    2.6079    1.5426   -1.2654 H   0  0  0  0  0  0  0  0  0  0  0  0
    1.9312    3.0796   -1.8117 H   0  0  0  0  0  0  0  0  0  0  0  0
    2.6964   -4.2701    5.1502 H   0  0  0  0  0  0  0  0  0  0  0  0
    1.7717   -4.1603    3.6333 H   0  0  0  0  0  0  0  0  0  0  0  0
    3.9022   -4.2055    2.3342 H   0  0  0  0  0  0  0  0  0  0  0  0
    3.7598   -5.6372    3.3578 H   0  0  0  0  0  0  0  0  0  0  0  0
    4.8240   -4.3118    3.8401 H   0  0  0  0  0  0  0  0  0  0  0  0
    4.3037   -2.9523    6.7436 H   0  0  0  0  0  0  0  0  0  0  0  0
    5.6564    0.4486    8.1879 H   0  0  0  0  0  0  0  0  0  0  0  0
    4.5208   -4.8630   10.6098 H   0  0  0  0  0  0  0  0  0  0  0  0
    6.2533   -5.1704   10.3786 H   0  0  0  0  0  0  0  0  0  0  0  0
    5.5795   -5.7169   12.7209 H   0  0  0  0  0  0  0  0  0  0  0  0
    4.9762   -4.0658   12.9396 H   0  0  0  0  0  0  0  0  0  0  0  0
    6.7011   -4.3451   12.7045 H   0  0  0  0  0  0  0  0  0  0  0  0
  1  2  2  0  0  0  0
  2  3  1  0  0  0  0
  3  4  2  0  0  0  0
  3  5  1  0  0  0  0
  5  6  2  0  0  0  0
  6  7  1  0  0  0  0
  7  8  2  0  0  0  0
  8  9  1  0  0  0  0
  9 10  1  0  0  0  0
  9 11  2  0  0  0  0
 11 12  1  0  0  0  0
 11 13  1  0  0  0  0
 13 14  2  0  0  0  0
 14 15  1  0  0  0  0
 15 16  2  0  0  0  0
 16 17  1  0  0  0  0
 17 18  2  0  0  0  0
 18 19  1  0  0  0  0
 19 20  3  0  0  0  0
 18 21  1  0  0  0  0
 21 22  3  0  0  0  0
  1 23  1  0  0  0  0
 23 24  1  0  0  0  0
 24 25  1  0  0  0  0
 25 26  1  0  0  0  0
 26 27  1  0  0  0  0
 27 28  1  0  0  0  0
 28 29  2  0  0  0  0
 29 30  1  0  0  0  0
 30 31  1  0  0  0  0
 31 32  1  0  0  0  0
 32 33  1  0  0  0  0
 31 34  1  0  0  0  0
 34 35  1  0  0  0  0
 29 36  1  0  0  0  0
 36 37  1  0  0  0  0
 37 38  1  0  0  0  0
 38 39  2  0  0  0  0
 39 40  1  0  0  0  0
 40 41  1  0  0  0  0
 41 42  1  0  0  0  0
 40 43  1  0  0  0  0
 39 44  1  0  0  0  0
 44 45  2  0  0  0  0
 45 46  1  0  0  0  0
 45 47  1  0  0  0  0
 47 48  2  0  0  0  0
 48 49  1  0  0  0  0
 49 50  3  0  0  0  0
 48 51  1  0  0  0  0
 51 52  2  0  0  0  0
 51 53  1  0  0  0  0
 53 54  1  0  0  0  0
 54 55  1  0  0  0  0
 17  2  1  0  0  0  0
 33 23  2  0  0  0  0
 43 37  2  0  0  0  0
 16  5  1  0  0  0  0
 32 25  2  0  0  0  0
 46 38  1  0  0  0  0
 14  7  1  0  0  0  0
 30 26  2  0  0  0  0
 43 28  1  0  0  0  0
  1 56  1  0  0  0  0
  6 57  1  0  0  0  0
  8 58  1  0  0  0  0
 13 59  1  0  0  0  0
 15 60  1  0  0  0  0
 33 61  1  0  0  0  0
 34 62  1  0  0  0  0
 34 63  1  0  0  0  0
 35 64  1  0  0  0  0
 35 65  1  0  0  0  0
 35 66  1  0  0  0  0
 41 67  1  0  0  0  0
 41 68  1  0  0  0  0
 42 69  1  0  0  0  0
 42 70  1  0  0  0  0
 42 71  1  0  0  0  0
 44 72  1  0  0  0  0
 47 73  1  0  0  0  0
 54 74  1  0  0  0  0
 54 75  1  0  0  0  0
 55 76  1  0  0  0  0
 55 77  1  0  0  0  0
 55 78  1  0  0  0  0
M  END
