104

C         -3.76970       -0.22990       -7.00840
C         -4.50580       -1.23690       -7.56630
C         -4.62970       -1.28390       -9.04760
O         -4.33300       -0.40880       -9.82830
C         -5.13040       -2.64000       -9.35280
C         -5.29960       -3.23950      -10.56680
C         -5.76120       -4.57440      -10.61480
C         -5.94980       -5.24020      -11.84140
C         -6.38920       -6.53430      -11.86140
F         -6.56580       -7.16730      -13.02930
C         -6.65920       -7.21720      -10.65870
F         -7.08780       -8.48560      -10.70840
C         -6.48650       -6.59750       -9.45300
C         -6.03580       -5.26340       -9.39800
C         -5.85970       -4.61230       -8.15500
C         -5.41830       -3.31700       -8.13380
C         -5.17000       -2.39740       -7.02420
C         -5.70460       -2.52250       -5.76620
C         -5.66410       -1.49890       -4.80010
N         -5.67170       -0.67920       -3.99630
C         -6.42290       -3.65260       -5.32780
N         -6.99370       -4.55980       -4.91670
C         -3.15100       -0.15120       -5.74740
C         -2.85450       -1.15090       -4.83170
C         -2.15000       -0.66770       -3.74010
S         -1.54490       -1.41020       -2.28990
C         -0.95770        0.13210       -1.77450
C         -0.29670        0.61410       -0.60360
C         -0.11390        2.00570       -0.78110
C         -0.64450        2.45990       -2.12960
C          0.55730        2.98710       -2.94630
C          0.26560        3.31270       -4.40430
C         -1.75050        3.51920       -1.99650
C         -2.89570        3.06410       -1.09920
C         -1.18550        1.16580       -2.67070
C         -1.88150        0.71650       -3.79070
S         -2.52130        1.40870       -5.22960
C          0.52230        2.75300        0.18140
C          0.96860        2.08210        1.31780
C          1.68710        2.54940        2.45820
C          1.93880        1.51650        3.35090
C          1.34850        0.22850        2.83220
C          0.77330        0.69550        1.50300
C          0.13120       -0.05130        0.54260
C          0.18860       -0.31460        3.70230
C          0.33350       -0.09460        5.20300
C          2.43170       -0.83210        2.53740
C          3.02260       -1.54210        3.74690
C          2.70170        1.96360        4.43250
C          3.00650        3.34100        4.33590
S          2.34440        4.08330        2.90760
C          3.78070        3.81700        5.37310
C          4.09400        2.82220        6.30330
S          3.38430        1.27560        5.85980
C          4.90830        3.07940        7.41330
C          5.32280        2.25110        8.42720
C          4.92050        0.85370        8.61100
O          4.21790        0.17390        7.88560
C          5.53830        0.41780        9.88030
C          5.43260       -0.80600       10.50700
C          6.10800       -0.96330       11.70990
Br         6.00010       -2.62510       12.62420
C          6.85850        0.06560       12.26270
C          6.95960        1.29160       11.62180
C          6.29520        1.47360       10.41750
C          6.20220        2.62360        9.51850
C          6.86920        3.80950        9.68660
C          7.73630        4.08200       10.76600
N          8.45570        4.36550       11.61420
C          6.81480        4.91860        8.81650
N          6.83420        5.86070        8.15950
H         -3.56530        0.59800       -7.68170
H         -5.08290       -2.70410      -11.47860
H         -5.74690       -4.73130      -12.77060
H         -6.70130       -7.13370       -8.54190
H         -6.06840       -5.15970       -7.24950
H         -3.09680       -2.18720       -4.98040
H          0.92740        3.88360       -2.44530
H          1.34910        2.23450       -2.90300
H          1.15970        3.72620       -4.86520
H         -0.53140        4.04440       -4.49800
H         -0.01490        2.42060       -4.95600
H         -2.14430        3.73990       -2.98960
H         -1.31060        4.43260       -1.59210
H         -3.37580        2.17590       -1.50340
H         -2.53630        2.83510       -0.09820
H         -3.64320        3.84990       -1.02530
H          0.68120        3.81530        0.07650
H         -0.03860       -1.11120        0.65350
H          0.08160       -1.38030        3.49460
H         -0.73400        0.17410        3.37800
H         -0.49670       -0.57510        5.71640
H          1.25960       -0.50880        5.58760
H          0.30550        0.96600        5.44060
H          1.98890       -1.58080        1.87680
H          3.23390       -0.34000        1.98060
H          3.80030       -2.22570        3.41270
H          2.26790       -2.12300        4.26890
H          3.46790       -0.83970        4.44440
H          4.12400        4.83130        5.46990
H          5.25270        4.10580        7.45320
H          4.84640       -1.60080       10.07270
H          7.36790       -0.09090       13.20110
H          7.54610        2.07550       12.07150
