
  xtb     02012223063D
 energy: -200.694821951557 gnorm: 0.000888248142 xtb: 6.4.1 (unknown)
113125  0     0  0            999 V2000
   -2.3684   -9.0671   -1.4637 C   0  0  0  0  0  0  0  0  0  0  0  0
   -1.8823   -9.9207   -0.5046 C   0  0  0  0  0  0  0  0  0  0  0  0
   -1.2359   -9.5187    0.7488 C   0  0  0  0  0  0  0  0  0  0  0  0
   -1.0014   -8.3876    1.1366 O   0  0  0  0  0  0  0  0  0  0  0  0
   -0.9207  -10.7662    1.4676 C   0  0  0  0  0  0  0  0  0  0  0  0
   -0.3289  -10.9219    2.6873 C   0  0  0  0  0  0  0  0  0  0  0  0
   -0.1280  -12.2271    3.1895 C   0  0  0  0  0  0  0  0  0  0  0  0
    0.4740  -12.4469    4.4436 C   0  0  0  0  0  0  0  0  0  0  0  0
    0.6541  -13.7205    4.9062 C   0  0  0  0  0  0  0  0  0  0  0  0
    1.2262  -13.9281    6.1005 F   0  0  0  0  0  0  0  0  0  0  0  0
    0.2422  -14.8266    4.1364 C   0  0  0  0  0  0  0  0  0  0  0  0
    0.4318  -16.0634    4.6152 F   0  0  0  0  0  0  0  0  0  0  0  0
   -0.3447  -14.6447    2.9153 C   0  0  0  0  0  0  0  0  0  0  0  0
   -0.5458  -13.3444    2.4104 C   0  0  0  0  0  0  0  0  0  0  0  0
   -1.1554  -13.1487    1.1494 C   0  0  0  0  0  0  0  0  0  0  0  0
   -1.3423  -11.8747    0.6820 C   0  0  0  0  0  0  0  0  0  0  0  0
   -1.9368  -11.3690   -0.5546 C   0  0  0  0  0  0  0  0  0  0  0  0
   -2.4360  -12.1528   -1.5635 C   0  0  0  0  0  0  0  0  0  0  0  0
   -3.0097  -11.6907   -2.7664 C   0  0  0  0  0  0  0  0  0  0  0  0
   -3.4845  -11.4026   -3.7722 N   0  0  0  0  0  0  0  0  0  0  0  0
   -2.4388  -13.5635   -1.5390 C   0  0  0  0  0  0  0  0  0  0  0  0
   -2.4718  -14.7102   -1.5841 N   0  0  0  0  0  0  0  0  0  0  0  0
   -2.3610   -7.6671   -1.5287 C   0  0  0  0  0  0  0  0  0  0  0  0
   -2.9222   -6.9819   -2.6106 C   0  0  0  0  0  0  0  0  0  0  0  0
   -2.7931   -5.6123   -2.4866 C   0  0  0  0  0  0  0  0  0  0  0  0
   -3.2609   -4.2563   -3.4734 S   0  0  0  0  0  0  0  0  0  0  0  0
   -2.5527   -3.1549   -2.3034 C   0  0  0  0  0  0  0  0  0  0  0  0
   -2.5065   -1.7797   -2.4325 C   0  0  0  0  0  0  0  0  0  0  0  0
   -1.8910   -1.0589   -1.4184 C   0  0  0  0  0  0  0  0  0  0  0  0
   -1.6017    0.3407   -1.2812 C   0  0  0  0  0  0  0  0  0  0  0  0
   -0.8534    0.5420   -0.1589 C   0  0  0  0  0  0  0  0  0  0  0  0
   -0.6820   -0.7133    0.6471 C   0  0  0  0  0  0  0  0  0  0  0  0
    0.7878   -1.0497    0.9360 C   0  0  0  0  0  0  0  0  0  0  0  0
    1.6485   -1.0079   -0.3213 C   0  0  0  0  0  0  0  0  0  0  0  0
   -1.4993   -0.5331    1.9494 C   0  0  0  0  0  0  0  0  0  0  0  0
   -1.5804   -1.7580    2.8500 C   0  0  0  0  0  0  0  0  0  0  0  0
   -1.3267   -1.7186   -0.2867 C   0  0  0  0  0  0  0  0  0  0  0  0
   -1.3611   -3.0820   -0.1760 C   0  0  0  0  0  0  0  0  0  0  0  0
   -1.9853   -3.8206   -1.1911 C   0  0  0  0  0  0  0  0  0  0  0  0
   -2.1317   -5.2205   -1.3149 C   0  0  0  0  0  0  0  0  0  0  0  0
   -1.6704   -6.5614   -0.3465 S   0  0  0  0  0  0  0  0  0  0  0  0
   -0.4488    1.9111   -0.0709 C   0  0  0  0  0  0  0  0  0  0  0  0
   -0.9821    2.5785   -1.2108 C   0  0  0  0  0  0  0  0  0  0  0  0
   -1.7873    1.6128   -2.0671 C   0  0  0  0  0  0  0  0  0  0  0  0
   -3.2496    2.1055   -2.0682 C   0  0  0  0  0  0  0  0  0  0  0  0
   -4.2502    1.1940   -2.7642 C   0  0  0  0  0  0  0  0  0  0  0  0
   -1.1851    1.4078   -3.4729 C   0  0  0  0  0  0  0  0  0  0  0  0
   -1.2381    2.6053   -4.4124 C   0  0  0  0  0  0  0  0  0  0  0  0
   -0.7862    3.9219   -1.3823 C   0  0  0  0  0  0  0  0  0  0  0  0
    0.0034    4.6061   -0.4475 C   0  0  0  0  0  0  0  0  0  0  0  0
    0.5527    3.9240    0.6646 C   0  0  0  0  0  0  0  0  0  0  0  0
    0.3203    2.5771    0.8715 C   0  0  0  0  0  0  0  0  0  0  0  0
    1.5142    4.9639    1.7006 S   0  0  0  0  0  0  0  0  0  0  0  0
    1.1998    6.3175    0.6531 C   0  0  0  0  0  0  0  0  0  0  0  0
    1.5915    7.6504    0.6657 C   0  0  0  0  0  0  0  0  0  0  0  0
    1.0772    8.3490   -0.4153 C   0  0  0  0  0  0  0  0  0  0  0  0
    0.0822    7.3111   -1.4451 S   0  0  0  0  0  0  0  0  0  0  0  0
    0.3834    5.9661   -0.4268 C   0  0  0  0  0  0  0  0  0  0  0  0
    1.1750    9.6927   -0.8263 C   0  0  0  0  0  0  0  0  0  0  0  0
    1.9230   10.7372   -0.3557 C   0  0  0  0  0  0  0  0  0  0  0  0
    2.9846   10.7241    0.6782 C   0  0  0  0  0  0  0  0  0  0  0  0
    3.2963    9.8331    1.4407 O   0  0  0  0  0  0  0  0  0  0  0  0
    3.6316   12.0488    0.5985 C   0  0  0  0  0  0  0  0  0  0  0  0
    4.7195   12.5105    1.3142 C   0  0  0  0  0  0  0  0  0  0  0  0
    5.1935   13.7964    1.0820 C   0  0  0  0  0  0  0  0  0  0  0  0
    6.3663   14.3626    1.8129 C   0  0  0  0  0  0  0  0  0  0  0  0
    4.5306   14.5630    0.1205 C   0  0  0  0  0  0  0  0  0  0  0  0
    4.9868   15.8067   -0.1165 F   0  0  0  0  0  0  0  0  0  0  0  0
    3.4348   14.1260   -0.6055 C   0  0  0  0  0  0  0  0  0  0  0  0
    2.9772   12.8409   -0.3581 C   0  0  0  0  0  0  0  0  0  0  0  0
    1.8702   12.0765   -0.9239 C   0  0  0  0  0  0  0  0  0  0  0  0
    0.9252   12.5792   -1.7791 C   0  0  0  0  0  0  0  0  0  0  0  0
   -0.2114   11.8942   -2.2606 C   0  0  0  0  0  0  0  0  0  0  0  0
   -1.1689   11.4249   -2.6878 N   0  0  0  0  0  0  0  0  0  0  0  0
    0.9367   13.9013   -2.2745 C   0  0  0  0  0  0  0  0  0  0  0  0
    0.8862   14.9594   -2.7159 N   0  0  0  0  0  0  0  0  0  0  0  0
   -2.8414   -9.5232   -2.3250 H   0  0  0  0  0  0  0  0  0  0  0  0
   -0.0199  -10.0615    3.2612 H   0  0  0  0  0  0  0  0  0  0  0  0
    0.7946  -11.6105    5.0448 H   0  0  0  0  0  0  0  0  0  0  0  0
   -0.6544  -15.5024    2.3389 H   0  0  0  0  0  0  0  0  0  0  0  0
   -1.4602  -14.0163    0.5875 H   0  0  0  0  0  0  0  0  0  0  0  0
   -3.3923   -7.4852   -3.4360 H   0  0  0  0  0  0  0  0  0  0  0  0
   -2.9215   -1.3042   -3.3056 H   0  0  0  0  0  0  0  0  0  0  0  0
    0.8448   -2.0470    1.3730 H   0  0  0  0  0  0  0  0  0  0  0  0
    1.1777   -0.3389    1.6668 H   0  0  0  0  0  0  0  0  0  0  0  0
    1.2644   -1.6970   -1.0705 H   0  0  0  0  0  0  0  0  0  0  0  0
    1.6606   -0.0076   -0.7485 H   0  0  0  0  0  0  0  0  0  0  0  0
    2.6711   -1.2920   -0.0843 H   0  0  0  0  0  0  0  0  0  0  0  0
   -2.5129   -0.2339    1.6696 H   0  0  0  0  0  0  0  0  0  0  0  0
   -1.0548    0.2941    2.5073 H   0  0  0  0  0  0  0  0  0  0  0  0
   -2.1421   -1.5059    3.7468 H   0  0  0  0  0  0  0  0  0  0  0  0
   -0.5928   -2.0928    3.1551 H   0  0  0  0  0  0  0  0  0  0  0  0
   -2.0929   -2.5754    2.3506 H   0  0  0  0  0  0  0  0  0  0  0  0
   -0.9065   -3.6123    0.6460 H   0  0  0  0  0  0  0  0  0  0  0  0
   -3.2753    3.0923   -2.5321 H   0  0  0  0  0  0  0  0  0  0  0  0
   -3.5528    2.2299   -1.0250 H   0  0  0  0  0  0  0  0  0  0  0  0
   -5.2353    1.6550   -2.7376 H   0  0  0  0  0  0  0  0  0  0  0  0
   -4.3145    0.2333   -2.2610 H   0  0  0  0  0  0  0  0  0  0  0  0
   -3.9833    1.0345   -3.8056 H   0  0  0  0  0  0  0  0  0  0  0  0
   -0.1420    1.1075   -3.3408 H   0  0  0  0  0  0  0  0  0  0  0  0
   -1.7038    0.5699   -3.9398 H   0  0  0  0  0  0  0  0  0  0  0  0
   -0.8555    2.3097   -5.3870 H   0  0  0  0  0  0  0  0  0  0  0  0
   -0.6214    3.4207   -4.0464 H   0  0  0  0  0  0  0  0  0  0  0  0
   -2.2554    2.9625   -4.5460 H   0  0  0  0  0  0  0  0  0  0  0  0
   -1.2126    4.4769   -2.2027 H   0  0  0  0  0  0  0  0  0  0  0  0
    0.7277    2.0732    1.7330 H   0  0  0  0  0  0  0  0  0  0  0  0
    2.2211    8.1023    1.4090 H   0  0  0  0  0  0  0  0  0  0  0  0
    0.5541    9.9089   -1.6884 H   0  0  0  0  0  0  0  0  0  0  0  0
    5.1920   11.8707    2.0441 H   0  0  0  0  0  0  0  0  0  0  0  0
    6.7490   13.6526    2.5402 H   0  0  0  0  0  0  0  0  0  0  0  0
    7.1595   14.6156    1.1096 H   0  0  0  0  0  0  0  0  0  0  0  0
    6.0826   15.2821    2.3242 H   0  0  0  0  0  0  0  0  0  0  0  0
    2.9858   14.7848   -1.3301 H   0  0  0  0  0  0  0  0  0  0  0  0
  1  2  2  0  0  0  0
  2  3  1  0  0  0  0
  3  4  2  0  0  0  0
  3  5  1  0  0  0  0
  5  6  2  0  0  0  0
  6  7  1  0  0  0  0
  7  8  2  0  0  0  0
  8  9  1  0  0  0  0
  9 10  1  0  0  0  0
  9 11  2  0  0  0  0
 11 12  1  0  0  0  0
 11 13  1  0  0  0  0
 13 14  2  0  0  0  0
 14 15  1  0  0  0  0
 15 16  2  0  0  0  0
 16 17  1  0  0  0  0
 17 18  2  0  0  0  0
 18 19  1  0  0  0  0
 19 20  3  0  0  0  0
 18 21  1  0  0  0  0
 21 22  3  0  0  0  0
  1 23  1  0  0  0  0
 23 24  2  0  0  0  0
 24 25  1  0  0  0  0
 25 26  1  0  0  0  0
 26 27  1  0  0  0  0
 27 28  2  0  0  0  0
 28 29  1  0  0  0  0
 29 30  1  0  0  0  0
 30 31  2  0  0  0  0
 31 32  1  0  0  0  0
 32 33  1  0  0  0  0
 33 34  1  0  0  0  0
 32 35  1  0  0  0  0
 35 36  1  0  0  0  0
 32 37  1  0  0  0  0
 37 38  1  0  0  0  0
 38 39  2  0  0  0  0
 39 40  1  0  0  0  0
 40 41  1  0  0  0  0
 31 42  1  0  0  0  0
 42 43  2  0  0  0  0
 43 44  1  0  0  0  0
 44 45  1  0  0  0  0
 45 46  1  0  0  0  0
 44 47  1  0  0  0  0
 47 48  1  0  0  0  0
 43 49  1  0  0  0  0
 49 50  2  0  0  0  0
 50 51  1  0  0  0  0
 51 52  2  0  0  0  0
 51 53  1  0  0  0  0
 53 54  1  0  0  0  0
 54 55  1  0  0  0  0
 55 56  2  0  0  0  0
 56 57  1  0  0  0  0
 57 58  1  0  0  0  0
 56 59  1  0  0  0  0
 59 60  2  0  0  0  0
 60 61  1  0  0  0  0
 61 62  2  0  0  0  0
 61 63  1  0  0  0  0
 63 64  2  0  0  0  0
 64 65  1  0  0  0  0
 65 66  1  0  0  0  0
 65 67  2  0  0  0  0
 67 68  1  0  0  0  0
 67 69  1  0  0  0  0
 69 70  2  0  0  0  0
 70 71  1  0  0  0  0
 71 72  2  0  0  0  0
 72 73  1  0  0  0  0
 73 74  3  0  0  0  0
 72 75  1  0  0  0  0
 75 76  3  0  0  0  0
 17  2  1  0  0  0  0
 41 23  1  0  0  0  0
 52 42  1  0  0  0  0
 58 54  2  0  0  0  0
 71 60  1  0  0  0  0
 16  5  1  0  0  0  0
 40 25  2  0  0  0  0
 58 50  1  0  0  0  0
 70 63  1  0  0  0  0
 14  7  1  0  0  0  0
 39 27  1  0  0  0  0
 37 29  2  0  0  0  0
 44 30  1  0  0  0  0
  1 77  1  0  0  0  0
  6 78  1  0  0  0  0
  8 79  1  0  0  0  0
 13 80  1  0  0  0  0
 15 81  1  0  0  0  0
 24 82  1  0  0  0  0
 28 83  1  0  0  0  0
 33 84  1  0  0  0  0
 33 85  1  0  0  0  0
 34 86  1  0  0  0  0
 34 87  1  0  0  0  0
 34 88  1  0  0  0  0
 35 89  1  0  0  0  0
 35 90  1  0  0  0  0
 36 91  1  0  0  0  0
 36 92  1  0  0  0  0
 36 93  1  0  0  0  0
 38 94  1  0  0  0  0
 45 95  1  0  0  0  0
 45 96  1  0  0  0  0
 46 97  1  0  0  0  0
 46 98  1  0  0  0  0
 46 99  1  0  0  0  0
 47100  1  0  0  0  0
 47101  1  0  0  0  0
 48102  1  0  0  0  0
 48103  1  0  0  0  0
 48104  1  0  0  0  0
 49105  1  0  0  0  0
 52106  1  0  0  0  0
 55107  1  0  0  0  0
 59108  1  0  0  0  0
 64109  1  0  0  0  0
 66110  1  0  0  0  0
 66111  1  0  0  0  0
 66112  1  0  0  0  0
 69113  1  0  0  0  0
M  END
