
  xtb     02012215273D
 energy: -199.256809991327 gnorm: 0.000671706594 xtb: 6.4.1 (unknown)
107119  0     0  0            999 V2000
    7.2613   -1.9265    3.2611 C   0  0  0  0  0  0  0  0  0  0  0  0
    7.6465   -1.4328    4.4873 C   0  0  0  0  0  0  0  0  0  0  0  0
    6.8068   -0.8802    5.5661 C   0  0  0  0  0  0  0  0  0  0  0  0
    5.6163   -0.6245    5.5650 O   0  0  0  0  0  0  0  0  0  0  0  0
    7.7068   -0.6892    6.7214 C   0  0  0  0  0  0  0  0  0  0  0  0
    7.3937   -0.2441    7.9727 C   0  0  0  0  0  0  0  0  0  0  0  0
    8.4160   -0.1512    8.9431 C   0  0  0  0  0  0  0  0  0  0  0  0
    8.1502    0.3009   10.2500 C   0  0  0  0  0  0  0  0  0  0  0  0
    9.1581    0.3761   11.1699 C   0  0  0  0  0  0  0  0  0  0  0  0
    8.9026    0.8063   12.4144 F   0  0  0  0  0  0  0  0  0  0  0  0
   10.4721    0.0041   10.8241 C   0  0  0  0  0  0  0  0  0  0  0  0
   11.4403    0.0885   11.7474 F   0  0  0  0  0  0  0  0  0  0  0  0
   10.7608   -0.4382    9.5637 C   0  0  0  0  0  0  0  0  0  0  0  0
    9.7444   -0.5269    8.5916 C   0  0  0  0  0  0  0  0  0  0  0  0
   10.0361   -0.9801    7.2842 C   0  0  0  0  0  0  0  0  0  0  0  0
    9.0299   -1.0562    6.3580 C   0  0  0  0  0  0  0  0  0  0  0  0
    9.0205   -1.4665    4.9556 C   0  0  0  0  0  0  0  0  0  0  0  0
   10.1460   -1.7549    4.2253 C   0  0  0  0  0  0  0  0  0  0  0  0
   10.1990   -2.0575    2.8482 C   0  0  0  0  0  0  0  0  0  0  0  0
   10.3502   -2.2897    1.7330 N   0  0  0  0  0  0  0  0  0  0  0  0
   11.4522   -1.7456    4.7579 C   0  0  0  0  0  0  0  0  0  0  0  0
   12.5403   -1.7597    5.1244 N   0  0  0  0  0  0  0  0  0  0  0  0
    6.0216   -1.9527    2.6114 C   0  0  0  0  0  0  0  0  0  0  0  0
    5.9946   -2.7613    1.0265 S   0  0  0  0  0  0  0  0  0  0  0  0
    4.3335   -2.3822    0.8456 C   0  0  0  0  0  0  0  0  0  0  0  0
    3.2664   -2.5304   -0.0334 C   0  0  0  0  0  0  0  0  0  0  0  0
    2.9339   -3.2863   -1.5651 S   0  0  0  0  0  0  0  0  0  0  0  0
    1.3098   -2.7119   -1.4398 C   0  0  0  0  0  0  0  0  0  0  0  0
    0.1424   -2.7503   -2.2248 C   0  0  0  0  0  0  0  0  0  0  0  0
   -0.1469   -3.2395   -3.5192 C   0  0  0  0  0  0  0  0  0  0  0  0
   -1.4344   -2.9623   -4.1059 C   0  0  0  0  0  0  0  0  0  0  0  0
   -1.5293   -3.4221   -5.3440 N   0  0  0  0  0  0  0  0  0  0  0  0
   -0.1373   -4.1446   -5.7366 S   0  0  0  0  0  0  0  0  0  0  0  0
    0.6489   -3.8993   -4.3460 N   0  0  0  0  0  0  0  0  0  0  0  0
   -2.4216   -2.3146   -3.3299 C   0  0  0  0  0  0  0  0  0  0  0  0
   -3.7701   -1.9739   -3.5478 C   0  0  0  0  0  0  0  0  0  0  0  0
   -4.9414   -2.0425   -4.7915 S   0  0  0  0  0  0  0  0  0  0  0  0
   -6.1046   -1.2375   -3.7364 C   0  0  0  0  0  0  0  0  0  0  0  0
   -5.6122   -0.9775   -2.4679 C   0  0  0  0  0  0  0  0  0  0  0  0
   -6.3999   -0.3784   -1.3433 C   0  0  0  0  0  0  0  0  0  0  0  0
   -5.8116    0.9552   -0.8777 C   0  0  0  0  0  0  0  0  0  0  0  0
   -4.2823   -1.4316   -2.3628 C   0  0  0  0  0  0  0  0  0  0  0  0
   -3.2936   -1.4414   -1.3889 N   0  0  0  0  0  0  0  0  0  0  0  0
   -2.1469   -1.9361   -1.9957 C   0  0  0  0  0  0  0  0  0  0  0  0
   -0.8354   -2.0353   -1.4984 C   0  0  0  0  0  0  0  0  0  0  0  0
   -0.2892   -1.5266   -0.3255 N   0  0  0  0  0  0  0  0  0  0  0  0
    1.0285   -1.9632   -0.2854 C   0  0  0  0  0  0  0  0  0  0  0  0
    2.1490   -1.8794    0.5553 C   0  0  0  0  0  0  0  0  0  0  0  0
    2.5080   -1.3718    1.7790 N   0  0  0  0  0  0  0  0  0  0  0  0
    3.8372   -1.6625    1.9648 C   0  0  0  0  0  0  0  0  0  0  0  0
    4.7789   -1.4267    2.9505 C   0  0  0  0  0  0  0  0  0  0  0  0
    1.6804   -0.7950    2.8096 C   0  0  0  0  0  0  0  0  0  0  0  0
    1.8250    0.7231    2.8856 C   0  0  0  0  0  0  0  0  0  0  0  0
   -0.6449   -0.1910    0.1259 C   0  0  0  0  0  0  0  0  0  0  0  0
    0.1957    0.8715   -0.5812 C   0  0  0  0  0  0  0  0  0  0  0  0
   -3.5990   -1.7671   -0.0062 C   0  0  0  0  0  0  0  0  0  0  0  0
   -4.2544   -3.1441    0.1024 C   0  0  0  0  0  0  0  0  0  0  0  0
   -7.4155   -1.0576   -4.2784 C   0  0  0  0  0  0  0  0  0  0  0  0
   -8.1788    0.0574   -4.2128 C   0  0  0  0  0  0  0  0  0  0  0  0
   -9.8626    0.0786   -4.7310 S   0  0  0  0  0  0  0  0  0  0  0  0
   -9.9927    1.7821   -4.3603 C   0  0  0  0  0  0  0  0  0  0  0  0
  -11.1826    2.4570   -4.4341 C   0  0  0  0  0  0  0  0  0  0  0  0
  -12.3457    1.7920   -4.8721 C   0  0  0  0  0  0  0  0  0  0  0  0
  -13.2928    1.2555   -5.2333 N   0  0  0  0  0  0  0  0  0  0  0  0
  -11.3661    3.7996   -4.0557 C   0  0  0  0  0  0  0  0  0  0  0  0
  -11.5934    4.8797   -3.7396 N   0  0  0  0  0  0  0  0  0  0  0  0
   -8.7943    2.2975   -3.9726 N   0  0  0  0  0  0  0  0  0  0  0  0
   -8.5738    3.6923   -3.7677 C   0  0  0  0  0  0  0  0  0  0  0  0
   -8.2685    4.1505   -2.4964 C   0  0  0  0  0  0  0  0  0  0  0  0
   -8.0329    5.4998   -2.3047 C   0  0  0  0  0  0  0  0  0  0  0  0
   -8.0988    6.3764   -3.3740 C   0  0  0  0  0  0  0  0  0  0  0  0
   -8.3892    5.9069   -4.6437 C   0  0  0  0  0  0  0  0  0  0  0  0
   -8.6228    4.5600   -4.8487 C   0  0  0  0  0  0  0  0  0  0  0  0
   -7.7303    1.4090   -3.8761 C   0  0  0  0  0  0  0  0  0  0  0  0
   -6.6002    1.7620   -3.6323 O   0  0  0  0  0  0  0  0  0  0  0  0
    8.0479   -2.3918    2.6788 H   0  0  0  0  0  0  0  0  0  0  0  0
    6.3796    0.0318    8.2191 H   0  0  0  0  0  0  0  0  0  0  0  0
    7.1493    0.5893   10.5304 H   0  0  0  0  0  0  0  0  0  0  0  0
   11.7727   -0.7178    9.3149 H   0  0  0  0  0  0  0  0  0  0  0  0
   11.0510   -1.2594    7.0534 H   0  0  0  0  0  0  0  0  0  0  0  0
   -6.4192   -1.0823   -0.5056 H   0  0  0  0  0  0  0  0  0  0  0  0
   -7.4304   -0.2254   -1.6670 H   0  0  0  0  0  0  0  0  0  0  0  0
   -6.3911    1.3468   -0.0445 H   0  0  0  0  0  0  0  0  0  0  0  0
   -4.7782    0.8408   -0.5620 H   0  0  0  0  0  0  0  0  0  0  0  0
   -5.8314    1.6724   -1.6922 H   0  0  0  0  0  0  0  0  0  0  0  0
    4.6137   -0.9080    3.8764 H   0  0  0  0  0  0  0  0  0  0  0  0
    1.9857   -1.2326    3.7654 H   0  0  0  0  0  0  0  0  0  0  0  0
    0.6440   -1.0838    2.6219 H   0  0  0  0  0  0  0  0  0  0  0  0
    2.8548    0.9873    3.1102 H   0  0  0  0  0  0  0  0  0  0  0  0
    1.5457    1.1911    1.9458 H   0  0  0  0  0  0  0  0  0  0  0  0
    1.1884    1.1140    3.6746 H   0  0  0  0  0  0  0  0  0  0  0  0
   -0.5119   -0.1245    1.2075 H   0  0  0  0  0  0  0  0  0  0  0  0
   -1.6934   -0.0138   -0.1099 H   0  0  0  0  0  0  0  0  0  0  0  0
   -0.0866    1.8605   -0.2304 H   0  0  0  0  0  0  0  0  0  0  0  0
    0.0279    0.8234   -1.6550 H   0  0  0  0  0  0  0  0  0  0  0  0
    1.2562    0.7183   -0.3945 H   0  0  0  0  0  0  0  0  0  0  0  0
   -2.6692   -1.7810    0.5623 H   0  0  0  0  0  0  0  0  0  0  0  0
   -4.2581   -1.0035    0.4103 H   0  0  0  0  0  0  0  0  0  0  0  0
   -3.5862   -3.9086   -0.2887 H   0  0  0  0  0  0  0  0  0  0  0  0
   -5.1822   -3.1787   -0.4635 H   0  0  0  0  0  0  0  0  0  0  0  0
   -4.4706   -3.3693    1.1433 H   0  0  0  0  0  0  0  0  0  0  0  0
   -7.8181   -1.9072   -4.8188 H   0  0  0  0  0  0  0  0  0  0  0  0
   -8.2213    3.4559   -1.6714 H   0  0  0  0  0  0  0  0  0  0  0  0
   -7.8019    5.8657   -1.3161 H   0  0  0  0  0  0  0  0  0  0  0  0
   -7.9216    7.4294   -3.2182 H   0  0  0  0  0  0  0  0  0  0  0  0
   -8.4346    6.5887   -5.4785 H   0  0  0  0  0  0  0  0  0  0  0  0
   -8.8461    4.1825   -5.8359 H   0  0  0  0  0  0  0  0  0  0  0  0
  1  2  2  0  0  0  0
  2  3  1  0  0  0  0
  3  4  2  0  0  0  0
  3  5  1  0  0  0  0
  5  6  2  0  0  0  0
  6  7  1  0  0  0  0
  7  8  2  0  0  0  0
  8  9  1  0  0  0  0
  9 10  1  0  0  0  0
  9 11  2  0  0  0  0
 11 12  1  0  0  0  0
 11 13  1  0  0  0  0
 13 14  2  0  0  0  0
 14 15  1  0  0  0  0
 15 16  2  0  0  0  0
 16 17  1  0  0  0  0
 17 18  2  0  0  0  0
 18 19  1  0  0  0  0
 19 20  3  0  0  0  0
 18 21  1  0  0  0  0
 21 22  3  0  0  0  0
  1 23  1  0  0  0  0
 23 24  1  0  0  0  0
 24 25  1  0  0  0  0
 25 26  1  0  0  0  0
 26 27  1  0  0  0  0
 27 28  1  0  0  0  0
 28 29  1  0  0  0  0
 29 30  1  0  0  0  0
 30 31  1  0  0  0  0
 31 32  2  0  0  0  0
 32 33  1  0  0  0  0
 33 34  1  0  0  0  0
 31 35  1  0  0  0  0
 35 36  1  0  0  0  0
 36 37  1  0  0  0  0
 37 38  1  0  0  0  0
 38 39  2  0  0  0  0
 39 40  1  0  0  0  0
 40 41  1  0  0  0  0
 39 42  1  0  0  0  0
 42 43  1  0  0  0  0
 43 44  1  0  0  0  0
 44 45  1  0  0  0  0
 45 46  1  0  0  0  0
 46 47  1  0  0  0  0
 47 48  1  0  0  0  0
 48 49  1  0  0  0  0
 49 50  1  0  0  0  0
 50 51  1  0  0  0  0
 49 52  1  0  0  0  0
 52 53  1  0  0  0  0
 46 54  1  0  0  0  0
 54 55  1  0  0  0  0
 43 56  1  0  0  0  0
 56 57  1  0  0  0  0
 38 58  1  0  0  0  0
 58 59  2  0  0  0  0
 59 60  1  0  0  0  0
 60 61  1  0  0  0  0
 61 62  2  0  0  0  0
 62 63  1  0  0  0  0
 63 64  3  0  0  0  0
 62 65  1  0  0  0  0
 65 66  3  0  0  0  0
 61 67  1  0  0  0  0
 67 68  1  0  0  0  0
 68 69  2  0  0  0  0
 69 70  1  0  0  0  0
 70 71  2  0  0  0  0
 71 72  1  0  0  0  0
 72 73  2  0  0  0  0
 67 74  1  0  0  0  0
 74 75  2  0  0  0  0
 17  2  1  0  0  0  0
 51 23  2  0  0  0  0
 74 59  1  0  0  0  0
 16  5  1  0  0  0  0
 50 25  2  0  0  0  0
 73 68  1  0  0  0  0
 14  7  1  0  0  0  0
 48 26  2  0  0  0  0
 47 28  2  0  0  0  0
 45 29  2  0  0  0  0
 34 30  2  0  0  0  0
 44 35  2  0  0  0  0
 42 36  2  0  0  0  0
  1 76  1  0  0  0  0
  6 77  1  0  0  0  0
  8 78  1  0  0  0  0
 13 79  1  0  0  0  0
 15 80  1  0  0  0  0
 40 81  1  0  0  0  0
 40 82  1  0  0  0  0
 41 83  1  0  0  0  0
 41 84  1  0  0  0  0
 41 85  1  0  0  0  0
 51 86  1  0  0  0  0
 52 87  1  0  0  0  0
 52 88  1  0  0  0  0
 53 89  1  0  0  0  0
 53 90  1  0  0  0  0
 53 91  1  0  0  0  0
 54 92  1  0  0  0  0
 54 93  1  0  0  0  0
 55 94  1  0  0  0  0
 55 95  1  0  0  0  0
 55 96  1  0  0  0  0
 56 97  1  0  0  0  0
 56 98  1  0  0  0  0
 57 99  1  0  0  0  0
 57100  1  0  0  0  0
 57101  1  0  0  0  0
 58102  1  0  0  0  0
 69103  1  0  0  0  0
 70104  1  0  0  0  0
 71105  1  0  0  0  0
 72106  1  0  0  0  0
 73107  1  0  0  0  0
M  END
