
  xtb     02012222243D
 energy: -203.662097223718 gnorm: 0.000395088807 xtb: 6.4.1 (unknown)
107120  0     0  0            999 V2000
   -3.9988    4.7515    6.0220 C   0  0  0  0  0  0  0  0  0  0  0  0
   -3.5700    4.8168    7.3277 C   0  0  0  0  0  0  0  0  0  0  0  0
   -2.3702    4.2125    7.9371 C   0  0  0  0  0  0  0  0  0  0  0  0
   -1.6036    3.3859    7.4779 O   0  0  0  0  0  0  0  0  0  0  0  0
   -2.2469    4.8243    9.2757 C   0  0  0  0  0  0  0  0  0  0  0  0
   -1.2596    4.6442   10.2003 C   0  0  0  0  0  0  0  0  0  0  0  0
   -1.3245    5.3543   11.4196 C   0  0  0  0  0  0  0  0  0  0  0  0
   -0.3288    5.2141   12.4055 C   0  0  0  0  0  0  0  0  0  0  0  0
   -0.4131    5.9191   13.5732 C   0  0  0  0  0  0  0  0  0  0  0  0
    0.5377    5.7861   14.5097 F   0  0  0  0  0  0  0  0  0  0  0  0
   -1.4947    6.7913   13.8063 C   0  0  0  0  0  0  0  0  0  0  0  0
   -1.5509    7.4696   14.9610 F   0  0  0  0  0  0  0  0  0  0  0  0
   -2.4767    6.9476   12.8688 C   0  0  0  0  0  0  0  0  0  0  0  0
   -2.4187    6.2362   11.6535 C   0  0  0  0  0  0  0  0  0  0  0  0
   -3.4297    6.3945   10.6776 C   0  0  0  0  0  0  0  0  0  0  0  0
   -3.3455    5.6959    9.5024 C   0  0  0  0  0  0  0  0  0  0  0  0
   -4.2132    5.6507    8.3280 C   0  0  0  0  0  0  0  0  0  0  0  0
   -5.4437    6.2516    8.2456 C   0  0  0  0  0  0  0  0  0  0  0  0
   -6.3564    6.1411    7.1751 C   0  0  0  0  0  0  0  0  0  0  0  0
   -7.1726    6.0901    6.3683 N   0  0  0  0  0  0  0  0  0  0  0  0
   -5.9991    7.0481    9.2688 C   0  0  0  0  0  0  0  0  0  0  0  0
   -6.5052    7.7128   10.0567 N   0  0  0  0  0  0  0  0  0  0  0  0
   -3.5181    4.0365    4.9174 C   0  0  0  0  0  0  0  0  0  0  0  0
   -4.2914    4.4073    3.3587 S   0  0  0  0  0  0  0  0  0  0  0  0
   -3.2633    3.2865    2.5694 C   0  0  0  0  0  0  0  0  0  0  0  0
   -2.9649    2.7704    1.3150 C   0  0  0  0  0  0  0  0  0  0  0  0
   -3.5052    2.9987   -0.3179 S   0  0  0  0  0  0  0  0  0  0  0  0
   -2.3360    1.8279   -0.7973 C   0  0  0  0  0  0  0  0  0  0  0  0
   -1.9809    1.2132   -2.0051 C   0  0  0  0  0  0  0  0  0  0  0  0
   -2.5663    1.2545   -3.2913 C   0  0  0  0  0  0  0  0  0  0  0  0
   -2.1206    0.3243   -4.2919 C   0  0  0  0  0  0  0  0  0  0  0  0
   -2.8185    0.4178   -5.4130 N   0  0  0  0  0  0  0  0  0  0  0  0
   -3.9307    1.5789   -5.2313 S   0  0  0  0  0  0  0  0  0  0  0  0
   -3.5708    2.0053   -3.7143 N   0  0  0  0  0  0  0  0  0  0  0  0
   -1.0076   -0.4977   -4.0077 C   0  0  0  0  0  0  0  0  0  0  0  0
   -0.2656   -1.4013   -4.7874 C   0  0  0  0  0  0  0  0  0  0  0  0
   -0.3067   -2.1169   -6.3583 S   0  0  0  0  0  0  0  0  0  0  0  0
    1.1833   -2.9656   -6.0006 C   0  0  0  0  0  0  0  0  0  0  0  0
    2.0007   -3.8237   -6.7483 C   0  0  0  0  0  0  0  0  0  0  0  0
    1.6557   -4.3639   -8.0940 C   0  0  0  0  0  0  0  0  0  0  0  0
    0.2045   -4.8267   -8.1979 C   0  0  0  0  0  0  0  0  0  0  0  0
    3.1254   -4.2019   -6.0158 C   0  0  0  0  0  0  0  0  0  0  0  0
    3.1128   -3.5505   -4.3740 S   0  0  0  0  0  0  0  0  0  0  0  0
    1.6610   -2.6915   -4.7089 C   0  0  0  0  0  0  0  0  0  0  0  0
    0.8364   -1.8015   -4.0208 C   0  0  0  0  0  0  0  0  0  0  0  0
    0.7972   -1.1966   -2.7882 N   0  0  0  0  0  0  0  0  0  0  0  0
   -0.3468   -0.4206   -2.7512 C   0  0  0  0  0  0  0  0  0  0  0  0
   -0.9277    0.3227   -1.6995 C   0  0  0  0  0  0  0  0  0  0  0  0
   -0.6789    0.3435   -0.3282 N   0  0  0  0  0  0  0  0  0  0  0  0
   -1.5516    1.2741    0.2292 C   0  0  0  0  0  0  0  0  0  0  0  0
   -1.9138    1.8240    1.4772 C   0  0  0  0  0  0  0  0  0  0  0  0
   -1.5693    1.7758    2.8077 N   0  0  0  0  0  0  0  0  0  0  0  0
   -2.3841    2.6499    3.4807 C   0  0  0  0  0  0  0  0  0  0  0  0
   -2.5285    3.0675    4.7933 C   0  0  0  0  0  0  0  0  0  0  0  0
   -0.5792    0.9835    3.4891 C   0  0  0  0  0  0  0  0  0  0  0  0
   -1.1784   -0.2921    4.0787 C   0  0  0  0  0  0  0  0  0  0  0  0
   -0.2286   -0.8396    0.3929 C   0  0  0  0  0  0  0  0  0  0  0  0
    1.1380   -0.7275    1.0913 C   0  0  0  0  0  0  0  0  0  0  0  0
    2.0185   -0.8935   -2.0749 C   0  0  0  0  0  0  0  0  0  0  0  0
    2.9944   -0.1027   -2.9454 C   0  0  0  0  0  0  0  0  0  0  0  0
    4.1997   -5.0509   -6.3400 C   0  0  0  0  0  0  0  0  0  0  0  0
    4.7948   -5.1941   -7.5673 C   0  0  0  0  0  0  0  0  0  0  0  0
    4.7510   -4.1790   -8.6392 C   0  0  0  0  0  0  0  0  0  0  0  0
    4.1032   -3.1542   -8.6755 O   0  0  0  0  0  0  0  0  0  0  0  0
    5.7734   -4.6078   -9.6220 C   0  0  0  0  0  0  0  0  0  0  0  0
    6.1415   -3.9837  -10.7951 C   0  0  0  0  0  0  0  0  0  0  0  0
    7.1449   -4.5817  -11.5463 C   0  0  0  0  0  0  0  0  0  0  0  0
    7.6901   -3.7727  -13.1769 Br  0  0  0  0  0  0  0  0  0  0  0  0
    7.7616   -5.7559  -11.1353 C   0  0  0  0  0  0  0  0  0  0  0  0
    7.3867   -6.3737   -9.9516 C   0  0  0  0  0  0  0  0  0  0  0  0
    6.3832   -5.7972   -9.1868 C   0  0  0  0  0  0  0  0  0  0  0  0
    5.7749   -6.1978   -7.9214 C   0  0  0  0  0  0  0  0  0  0  0  0
    6.0233   -7.3619   -7.2411 C   0  0  0  0  0  0  0  0  0  0  0  0
    5.3347   -7.7676   -6.0786 C   0  0  0  0  0  0  0  0  0  0  0  0
    4.7950   -8.1684   -5.1476 N   0  0  0  0  0  0  0  0  0  0  0  0
    6.9781   -8.3203   -7.6379 C   0  0  0  0  0  0  0  0  0  0  0  0
    7.7466   -9.1284   -7.9099 N   0  0  0  0  0  0  0  0  0  0  0  0
   -4.8381    5.3908    5.7739 H   0  0  0  0  0  0  0  0  0  0  0  0
   -0.4382    3.9724   10.0022 H   0  0  0  0  0  0  0  0  0  0  0  0
    0.5058    4.5504   12.2421 H   0  0  0  0  0  0  0  0  0  0  0  0
   -3.2985    7.6188   13.0635 H   0  0  0  0  0  0  0  0  0  0  0  0
   -4.2413    7.0725   10.8850 H   0  0  0  0  0  0  0  0  0  0  0  0
    2.3193   -5.2015   -8.3194 H   0  0  0  0  0  0  0  0  0  0  0  0
    1.8500   -3.5846   -8.8374 H   0  0  0  0  0  0  0  0  0  0  0  0
   -0.0236   -5.5445   -7.4129 H   0  0  0  0  0  0  0  0  0  0  0  0
    0.0462   -5.3069   -9.1601 H   0  0  0  0  0  0  0  0  0  0  0  0
   -0.4847   -3.9912   -8.1178 H   0  0  0  0  0  0  0  0  0  0  0  0
   -1.9629    2.7205    5.6377 H   0  0  0  0  0  0  0  0  0  0  0  0
   -0.1686    1.5949    4.2978 H   0  0  0  0  0  0  0  0  0  0  0  0
    0.2217    0.7563    2.7910 H   0  0  0  0  0  0  0  0  0  0  0  0
   -1.6306   -0.9068    3.3035 H   0  0  0  0  0  0  0  0  0  0  0  0
   -0.4054   -0.8699    4.5781 H   0  0  0  0  0  0  0  0  0  0  0  0
   -1.9465   -0.0421    4.8059 H   0  0  0  0  0  0  0  0  0  0  0  0
   -0.9961   -1.0694    1.1375 H   0  0  0  0  0  0  0  0  0  0  0  0
   -0.2110   -1.6666   -0.3203 H   0  0  0  0  0  0  0  0  0  0  0  0
    1.4987    0.2990    1.0806 H   0  0  0  0  0  0  0  0  0  0  0  0
    1.0644   -1.0636    2.1217 H   0  0  0  0  0  0  0  0  0  0  0  0
    1.8838   -1.3539    0.6121 H   0  0  0  0  0  0  0  0  0  0  0  0
    2.4832   -1.8303   -1.7519 H   0  0  0  0  0  0  0  0  0  0  0  0
    1.7561   -0.2857   -1.2146 H   0  0  0  0  0  0  0  0  0  0  0  0
    3.3214   -0.6859   -3.8012 H   0  0  0  0  0  0  0  0  0  0  0  0
    2.5225    0.8095   -3.3047 H   0  0  0  0  0  0  0  0  0  0  0  0
    3.8686    0.1645   -2.3582 H   0  0  0  0  0  0  0  0  0  0  0  0
    4.6281   -5.5908   -5.5030 H   0  0  0  0  0  0  0  0  0  0  0  0
    5.6621   -3.0694  -11.1089 H   0  0  0  0  0  0  0  0  0  0  0  0
    8.5410   -6.1896  -11.7427 H   0  0  0  0  0  0  0  0  0  0  0  0
    7.8820   -7.2806   -9.6458 H   0  0  0  0  0  0  0  0  0  0  0  0
  1  2  2  0  0  0  0
  2  3  1  0  0  0  0
  3  4  2  0  0  0  0
  3  5  1  0  0  0  0
  5  6  2  0  0  0  0
  6  7  1  0  0  0  0
  7  8  2  0  0  0  0
  8  9  1  0  0  0  0
  9 10  1  0  0  0  0
  9 11  2  0  0  0  0
 11 12  1  0  0  0  0
 11 13  1  0  0  0  0
 13 14  2  0  0  0  0
 14 15  1  0  0  0  0
 15 16  2  0  0  0  0
 16 17  1  0  0  0  0
 17 18  2  0  0  0  0
 18 19  1  0  0  0  0
 19 20  3  0  0  0  0
 18 21  1  0  0  0  0
 21 22  3  0  0  0  0
  1 23  1  0  0  0  0
 23 24  1  0  0  0  0
 24 25  1  0  0  0  0
 25 26  1  0  0  0  0
 26 27  1  0  0  0  0
 27 28  1  0  0  0  0
 28 29  1  0  0  0  0
 29 30  1  0  0  0  0
 30 31  1  0  0  0  0
 31 32  2  0  0  0  0
 32 33  1  0  0  0  0
 33 34  1  0  0  0  0
 31 35  1  0  0  0  0
 35 36  1  0  0  0  0
 36 37  1  0  0  0  0
 37 38  1  0  0  0  0
 38 39  1  0  0  0  0
 39 40  1  0  0  0  0
 40 41  1  0  0  0  0
 39 42  2  0  0  0  0
 42 43  1  0  0  0  0
 43 44  1  0  0  0  0
 44 45  1  0  0  0  0
 45 46  1  0  0  0  0
 46 47  1  0  0  0  0
 47 48  1  0  0  0  0
 48 49  1  0  0  0  0
 49 50  1  0  0  0  0
 50 51  1  0  0  0  0
 51 52  1  0  0  0  0
 52 53  1  0  0  0  0
 53 54  1  0  0  0  0
 52 55  1  0  0  0  0
 55 56  1  0  0  0  0
 49 57  1  0  0  0  0
 57 58  1  0  0  0  0
 46 59  1  0  0  0  0
 59 60  1  0  0  0  0
 42 61  1  0  0  0  0
 61 62  2  0  0  0  0
 62 63  1  0  0  0  0
 63 64  2  0  0  0  0
 63 65  1  0  0  0  0
 65 66  2  0  0  0  0
 66 67  1  0  0  0  0
 67 68  1  0  0  0  0
 67 69  2  0  0  0  0
 69 70  1  0  0  0  0
 70 71  2  0  0  0  0
 71 72  1  0  0  0  0
 72 73  2  0  0  0  0
 73 74  1  0  0  0  0
 74 75  3  0  0  0  0
 73 76  1  0  0  0  0
 76 77  3  0  0  0  0
 17  2  1  0  0  0  0
 54 23  2  0  0  0  0
 72 62  1  0  0  0  0
 16  5  1  0  0  0  0
 53 25  2  0  0  0  0
 71 65  1  0  0  0  0
 14  7  1  0  0  0  0
 51 26  2  0  0  0  0
 50 28  2  0  0  0  0
 48 29  2  0  0  0  0
 34 30  2  0  0  0  0
 47 35  2  0  0  0  0
 45 36  2  0  0  0  0
 44 38  2  0  0  0  0
  1 78  1  0  0  0  0
  6 79  1  0  0  0  0
  8 80  1  0  0  0  0
 13 81  1  0  0  0  0
 15 82  1  0  0  0  0
 40 83  1  0  0  0  0
 40 84  1  0  0  0  0
 41 85  1  0  0  0  0
 41 86  1  0  0  0  0
 41 87  1  0  0  0  0
 54 88  1  0  0  0  0
 55 89  1  0  0  0  0
 55 90  1  0  0  0  0
 56 91  1  0  0  0  0
 56 92  1  0  0  0  0
 56 93  1  0  0  0  0
 57 94  1  0  0  0  0
 57 95  1  0  0  0  0
 58 96  1  0  0  0  0
 58 97  1  0  0  0  0
 58 98  1  0  0  0  0
 59 99  1  0  0  0  0
 59100  1  0  0  0  0
 60101  1  0  0  0  0
 60102  1  0  0  0  0
 60103  1  0  0  0  0
 61104  1  0  0  0  0
 66105  1  0  0  0  0
 69106  1  0  0  0  0
 70107  1  0  0  0  0
M  END
