
  xtb     02012219173D
 energy: -300.873927998237 gnorm: 0.000544771700 xtb: 6.4.1 (unknown)
176195  0     0  0            999 V2000
   -3.0071   -7.8698    4.3687 C   0  0  0  0  0  0  0  0  0  0  0  0
   -2.8442   -9.2357    4.3565 C   0  0  0  0  0  0  0  0  0  0  0  0
   -2.2647  -10.0859    3.2977 C   0  0  0  0  0  0  0  0  0  0  0  0
   -1.9167   -9.7853    2.1724 O   0  0  0  0  0  0  0  0  0  0  0  0
   -2.1764  -11.4430    3.8744 C   0  0  0  0  0  0  0  0  0  0  0  0
   -1.6667  -12.5719    3.3020 C   0  0  0  0  0  0  0  0  0  0  0  0
   -1.6662  -13.7750    4.0419 C   0  0  0  0  0  0  0  0  0  0  0  0
   -1.1505  -14.9695    3.5030 C   0  0  0  0  0  0  0  0  0  0  0  0
   -1.1594  -16.1180    4.2436 C   0  0  0  0  0  0  0  0  0  0  0  0
   -0.6672  -17.2546    3.7292 F   0  0  0  0  0  0  0  0  0  0  0  0
   -1.6828  -16.1223    5.5516 C   0  0  0  0  0  0  0  0  0  0  0  0
   -1.6778  -17.2638    6.2547 F   0  0  0  0  0  0  0  0  0  0  0  0
   -2.1905  -14.9789    6.1015 C   0  0  0  0  0  0  0  0  0  0  0  0
   -2.1965  -13.7778    5.3641 C   0  0  0  0  0  0  0  0  0  0  0  0
   -2.7210  -12.5911    5.9262 C   0  0  0  0  0  0  0  0  0  0  0  0
   -2.7135  -11.4363    5.1890 C   0  0  0  0  0  0  0  0  0  0  0  0
   -3.1752  -10.0824    5.4888 C   0  0  0  0  0  0  0  0  0  0  0  0
   -3.8393   -9.7276    6.6366 C   0  0  0  0  0  0  0  0  0  0  0  0
   -4.3638   -8.4559    6.9491 C   0  0  0  0  0  0  0  0  0  0  0  0
   -4.8371   -7.4658    7.2907 N   0  0  0  0  0  0  0  0  0  0  0  0
   -4.1260  -10.6222    7.6890 C   0  0  0  0  0  0  0  0  0  0  0  0
   -4.3918  -11.2910    8.5838 N   0  0  0  0  0  0  0  0  0  0  0  0
   -2.7406   -6.8859    3.4086 C   0  0  0  0  0  0  0  0  0  0  0  0
   -2.2753   -6.9398    2.0940 C   0  0  0  0  0  0  0  0  0  0  0  0
   -2.1525   -5.6898    1.5267 C   0  0  0  0  0  0  0  0  0  0  0  0
   -1.6765   -5.1352    0.2040 C   0  0  0  0  0  0  0  0  0  0  0  0
   -0.2593   -5.6110   -0.0612 C   0  0  0  0  0  0  0  0  0  0  0  0
    0.8445   -4.8039    0.1669 C   0  0  0  0  0  0  0  0  0  0  0  0
    2.1191   -5.2761   -0.0900 C   0  0  0  0  0  0  0  0  0  0  0  0
    2.3218   -6.5647   -0.5629 C   0  0  0  0  0  0  0  0  0  0  0  0
    3.7020   -7.0510   -0.8979 C   0  0  0  0  0  0  0  0  0  0  0  0
    4.0411   -6.7176   -2.3524 C   0  0  0  0  0  0  0  0  0  0  0  0
    1.2120   -7.3752   -0.7685 C   0  0  0  0  0  0  0  0  0  0  0  0
   -0.0633   -6.9074   -0.5212 C   0  0  0  0  0  0  0  0  0  0  0  0
   -2.5787   -5.4711   -0.9729 C   0  0  0  0  0  0  0  0  0  0  0  0
   -3.8480   -6.0016   -0.8001 C   0  0  0  0  0  0  0  0  0  0  0  0
   -4.6482   -6.2651   -1.8973 C   0  0  0  0  0  0  0  0  0  0  0  0
   -4.2081   -5.9949   -3.1856 C   0  0  0  0  0  0  0  0  0  0  0  0
   -5.0615   -6.3293   -4.3747 C   0  0  0  0  0  0  0  0  0  0  0  0
   -4.7920   -7.7629   -4.8368 C   0  0  0  0  0  0  0  0  0  0  0  0
   -2.9392   -5.4531   -3.3499 C   0  0  0  0  0  0  0  0  0  0  0  0
   -2.1334   -5.1922   -2.2591 C   0  0  0  0  0  0  0  0  0  0  0  0
   -1.7936   -3.6562    0.4736 C   0  0  0  0  0  0  0  0  0  0  0  0
   -2.3065   -3.4130    1.7471 C   0  0  0  0  0  0  0  0  0  0  0  0
   -2.5156   -4.6474    2.3974 C   0  0  0  0  0  0  0  0  0  0  0  0
   -3.0302   -5.2129    3.9201 S   0  0  0  0  0  0  0  0  0  0  0  0
   -2.4729   -1.7339    2.1251 S   0  0  0  0  0  0  0  0  0  0  0  0
   -1.8290   -1.3335    0.5636 C   0  0  0  0  0  0  0  0  0  0  0  0
   -1.5233   -2.4666   -0.1954 C   0  0  0  0  0  0  0  0  0  0  0  0
   -0.7805   -2.0724   -1.7121 S   0  0  0  0  0  0  0  0  0  0  0  0
   -0.8011   -0.3706   -1.2890 C   0  0  0  0  0  0  0  0  0  0  0  0
   -0.2368    0.6304   -2.0678 C   0  0  0  0  0  0  0  0  0  0  0  0
    0.3590    0.3560   -3.3623 C   0  0  0  0  0  0  0  0  0  0  0  0
    0.1174    0.9937   -4.5451 C   0  0  0  0  0  0  0  0  0  0  0  0
    0.8498    0.4579   -5.6230 C   0  0  0  0  0  0  0  0  0  0  0  0
    1.6568   -0.5779   -5.2668 C   0  0  0  0  0  0  0  0  0  0  0  0
    2.5454   -1.4045   -6.1299 C   0  0  0  0  0  0  0  0  0  0  0  0
    1.9603   -2.8018   -6.3460 C   0  0  0  0  0  0  0  0  0  0  0  0
    1.5136   -0.9273   -3.5757 S   0  0  0  0  0  0  0  0  0  0  0  0
   -0.2634    1.9331   -1.5390 C   0  0  0  0  0  0  0  0  0  0  0  0
   -0.9307    2.1911   -0.3153 C   0  0  0  0  0  0  0  0  0  0  0  0
   -1.5499    1.1996    0.4324 C   0  0  0  0  0  0  0  0  0  0  0  0
   -2.2693    1.5266    1.6512 C   0  0  0  0  0  0  0  0  0  0  0  0
   -1.8390    2.2570    2.7200 C   0  0  0  0  0  0  0  0  0  0  0  0
   -2.8231    2.4048    3.7189 C   0  0  0  0  0  0  0  0  0  0  0  0
   -4.0077    1.8141    3.4057 C   0  0  0  0  0  0  0  0  0  0  0  0
   -5.2489    1.7193    4.2227 C   0  0  0  0  0  0  0  0  0  0  0  0
   -5.4432    0.2990    4.7586 C   0  0  0  0  0  0  0  0  0  0  0  0
   -3.9295    1.0475    1.8541 S   0  0  0  0  0  0  0  0  0  0  0  0
   -1.4407   -0.1162   -0.0485 C   0  0  0  0  0  0  0  0  0  0  0  0
   -0.8572    3.8757    0.1675 S   0  0  0  0  0  0  0  0  0  0  0  0
    0.1418    4.2309   -1.2060 C   0  0  0  0  0  0  0  0  0  0  0  0
    0.8284    5.3590   -1.6466 C   0  0  0  0  0  0  0  0  0  0  0  0
    1.5769    5.0784   -2.7885 C   0  0  0  0  0  0  0  0  0  0  0  0
    1.4163    3.4494   -3.3504 S   0  0  0  0  0  0  0  0  0  0  0  0
    0.3514    3.1148   -2.0206 C   0  0  0  0  0  0  0  0  0  0  0  0
    2.3207    6.2255   -3.1392 C   0  0  0  0  0  0  0  0  0  0  0  0
    3.4346    6.7031   -4.3370 S   0  0  0  0  0  0  0  0  0  0  0  0
    3.5927    8.2935   -3.5706 C   0  0  0  0  0  0  0  0  0  0  0  0
    2.7722    8.3981   -2.4474 C   0  0  0  0  0  0  0  0  0  0  0  0
    2.0665    7.2396   -2.2005 C   0  0  0  0  0  0  0  0  0  0  0  0
    1.0555    6.7743   -1.1771 C   0  0  0  0  0  0  0  0  0  0  0  0
    1.5701    6.7165    0.2501 C   0  0  0  0  0  0  0  0  0  0  0  0
    0.6578    6.5670    1.2872 C   0  0  0  0  0  0  0  0  0  0  0  0
    1.0957    6.4491    2.5917 C   0  0  0  0  0  0  0  0  0  0  0  0
    2.4515    6.4772    2.8936 C   0  0  0  0  0  0  0  0  0  0  0  0
    2.9219    6.3996    4.3173 C   0  0  0  0  0  0  0  0  0  0  0  0
    2.9951    7.7996    4.9303 C   0  0  0  0  0  0  0  0  0  0  0  0
    3.3568    6.6274    1.8521 C   0  0  0  0  0  0  0  0  0  0  0  0
    2.9253    6.7384    0.5425 C   0  0  0  0  0  0  0  0  0  0  0  0
   -0.1660    7.6712   -1.2775 C   0  0  0  0  0  0  0  0  0  0  0  0
   -1.3186    7.2776   -1.9389 C   0  0  0  0  0  0  0  0  0  0  0  0
   -2.3964    8.1402   -2.0351 C   0  0  0  0  0  0  0  0  0  0  0  0
   -2.3435    9.4136   -1.4866 C   0  0  0  0  0  0  0  0  0  0  0  0
   -3.5282   10.3332   -1.5559 C   0  0  0  0  0  0  0  0  0  0  0  0
   -4.4058   10.1675   -0.3134 C   0  0  0  0  0  0  0  0  0  0  0  0
   -1.1821    9.8026   -0.8296 C   0  0  0  0  0  0  0  0  0  0  0  0
   -0.1051    8.9452   -0.7260 C   0  0  0  0  0  0  0  0  0  0  0  0
    4.4888    9.1794   -4.1837 C   0  0  0  0  0  0  0  0  0  0  0  0
    4.9342   10.4287   -3.8235 C   0  0  0  0  0  0  0  0  0  0  0  0
    4.6513   11.1882   -2.5896 C   0  0  0  0  0  0  0  0  0  0  0  0
    3.8765   10.9363   -1.6888 O   0  0  0  0  0  0  0  0  0  0  0  0
    5.5362   12.3731   -2.6393 C   0  0  0  0  0  0  0  0  0  0  0  0
    5.6768   13.3664   -1.6917 C   0  0  0  0  0  0  0  0  0  0  0  0
    6.5904   14.3708   -1.9719 C   0  0  0  0  0  0  0  0  0  0  0  0
    6.7656   15.3601   -1.0792 F   0  0  0  0  0  0  0  0  0  0  0  0
    7.3351   14.3912   -3.1416 C   0  0  0  0  0  0  0  0  0  0  0  0
    7.1799   13.3874   -4.0858 C   0  0  0  0  0  0  0  0  0  0  0  0
    6.2716   12.3685   -3.8349 C   0  0  0  0  0  0  0  0  0  0  0  0
    5.8847   11.1928   -4.6137 C   0  0  0  0  0  0  0  0  0  0  0  0
    6.3277   10.9198   -5.8824 C   0  0  0  0  0  0  0  0  0  0  0  0
    7.2539   11.7196   -6.5854 C   0  0  0  0  0  0  0  0  0  0  0  0
    8.0034   12.3173   -7.2174 N   0  0  0  0  0  0  0  0  0  0  0  0
    5.9290    9.8399   -6.6989 C   0  0  0  0  0  0  0  0  0  0  0  0
    5.6596    9.0089   -7.4454 N   0  0  0  0  0  0  0  0  0  0  0  0
   -3.3910   -7.4564    5.2939 H   0  0  0  0  0  0  0  0  0  0  0  0
   -1.2676  -12.5454    2.2994 H   0  0  0  0  0  0  0  0  0  0  0  0
   -0.7460  -14.9822    2.5031 H   0  0  0  0  0  0  0  0  0  0  0  0
   -2.5883  -14.9998    7.1041 H   0  0  0  0  0  0  0  0  0  0  0  0
   -3.1114  -12.6294    6.9298 H   0  0  0  0  0  0  0  0  0  0  0  0
   -2.0432   -7.8708    1.6109 H   0  0  0  0  0  0  0  0  0  0  0  0
    0.7183   -3.7996    0.5431 H   0  0  0  0  0  0  0  0  0  0  0  0
    2.9682   -4.6302    0.0823 H   0  0  0  0  0  0  0  0  0  0  0  0
    4.4330   -6.5765   -0.2401 H   0  0  0  0  0  0  0  0  0  0  0  0
    3.7606   -8.1313   -0.7524 H   0  0  0  0  0  0  0  0  0  0  0  0
    5.0420   -7.0638   -2.5995 H   0  0  0  0  0  0  0  0  0  0  0  0
    3.3318   -7.1954   -3.0245 H   0  0  0  0  0  0  0  0  0  0  0  0
    3.9945   -5.6429   -2.5141 H   0  0  0  0  0  0  0  0  0  0  0  0
    1.3479   -8.3854   -1.1267 H   0  0  0  0  0  0  0  0  0  0  0  0
   -0.9152   -7.5481   -0.6938 H   0  0  0  0  0  0  0  0  0  0  0  0
   -4.2163   -6.2179    0.1918 H   0  0  0  0  0  0  0  0  0  0  0  0
   -5.6324   -6.6852   -1.7468 H   0  0  0  0  0  0  0  0  0  0  0  0
   -4.8432   -5.6403   -5.1929 H   0  0  0  0  0  0  0  0  0  0  0  0
   -6.1169   -6.2281   -4.1139 H   0  0  0  0  0  0  0  0  0  0  0  0
   -5.4093   -8.0077   -5.6980 H   0  0  0  0  0  0  0  0  0  0  0  0
   -5.0155   -8.4660   -4.0377 H   0  0  0  0  0  0  0  0  0  0  0  0
   -3.7465   -7.8808   -5.1131 H   0  0  0  0  0  0  0  0  0  0  0  0
   -2.5777   -5.2310   -4.3436 H   0  0  0  0  0  0  0  0  0  0  0  0
   -1.1476   -4.7745   -2.4047 H   0  0  0  0  0  0  0  0  0  0  0  0
   -0.5918    1.7960   -4.6459 H   0  0  0  0  0  0  0  0  0  0  0  0
    0.7811    0.8334   -6.6283 H   0  0  0  0  0  0  0  0  0  0  0  0
    3.5294   -1.4968   -5.6639 H   0  0  0  0  0  0  0  0  0  0  0  0
    2.6675   -0.9022   -7.0916 H   0  0  0  0  0  0  0  0  0  0  0  0
    0.9862   -2.7336   -6.8249 H   0  0  0  0  0  0  0  0  0  0  0  0
    2.6185   -3.3924   -6.9780 H   0  0  0  0  0  0  0  0  0  0  0  0
    1.8416   -3.3120   -5.3925 H   0  0  0  0  0  0  0  0  0  0  0  0
   -0.8399    2.6464    2.8031 H   0  0  0  0  0  0  0  0  0  0  0  0
   -2.6551    2.9342    4.6398 H   0  0  0  0  0  0  0  0  0  0  0  0
   -5.1777    2.4225    5.0549 H   0  0  0  0  0  0  0  0  0  0  0  0
   -6.1139    1.9941    3.6140 H   0  0  0  0  0  0  0  0  0  0  0  0
   -4.5965    0.0083    5.3762 H   0  0  0  0  0  0  0  0  0  0  0  0
   -6.3478    0.2426    5.3582 H   0  0  0  0  0  0  0  0  0  0  0  0
   -5.5259   -0.4064    3.9347 H   0  0  0  0  0  0  0  0  0  0  0  0
    2.7318    9.2921   -1.8538 H   0  0  0  0  0  0  0  0  0  0  0  0
   -0.4005    6.5481    1.0704 H   0  0  0  0  0  0  0  0  0  0  0  0
    0.3731    6.3311    3.3864 H   0  0  0  0  0  0  0  0  0  0  0  0
    2.2331    5.7865    4.9020 H   0  0  0  0  0  0  0  0  0  0  0  0
    3.9101    5.9372    4.3571 H   0  0  0  0  0  0  0  0  0  0  0  0
    2.0157    8.2724    4.9106 H   0  0  0  0  0  0  0  0  0  0  0  0
    3.3352    7.7462    5.9618 H   0  0  0  0  0  0  0  0  0  0  0  0
    3.6865    8.4227    4.3677 H   0  0  0  0  0  0  0  0  0  0  0  0
    4.4159    6.6530    2.0655 H   0  0  0  0  0  0  0  0  0  0  0  0
    3.6496    6.8475   -0.2512 H   0  0  0  0  0  0  0  0  0  0  0  0
   -1.3827    6.2944   -2.3818 H   0  0  0  0  0  0  0  0  0  0  0  0
   -3.2899    7.8172   -2.5501 H   0  0  0  0  0  0  0  0  0  0  0  0
   -4.1191   10.1110   -2.4466 H   0  0  0  0  0  0  0  0  0  0  0  0
   -3.1885   11.3688   -1.6203 H   0  0  0  0  0  0  0  0  0  0  0  0
   -5.2637   10.8339   -0.3620 H   0  0  0  0  0  0  0  0  0  0  0  0
   -4.7645    9.1434   -0.2377 H   0  0  0  0  0  0  0  0  0  0  0  0
   -3.8370   10.3976    0.5847 H   0  0  0  0  0  0  0  0  0  0  0  0
   -1.1192   10.7911   -0.3981 H   0  0  0  0  0  0  0  0  0  0  0  0
    0.7889    9.2615   -0.2094 H   0  0  0  0  0  0  0  0  0  0  0  0
    4.9172    8.7770   -5.0942 H   0  0  0  0  0  0  0  0  0  0  0  0
    5.1043   13.3598   -0.7780 H   0  0  0  0  0  0  0  0  0  0  0  0
    8.0345   15.1958   -3.3051 H   0  0  0  0  0  0  0  0  0  0  0  0
    7.7671   13.4148   -4.9883 H   0  0  0  0  0  0  0  0  0  0  0  0
  1  2  2  0  0  0  0
  2  3  1  0  0  0  0
  3  4  2  0  0  0  0
  3  5  1  0  0  0  0
  5  6  2  0  0  0  0
  6  7  1  0  0  0  0
  7  8  2  0  0  0  0
  8  9  1  0  0  0  0
  9 10  1  0  0  0  0
  9 11  2  0  0  0  0
 11 12  1  0  0  0  0
 11 13  1  0  0  0  0
 13 14  2  0  0  0  0
 14 15  1  0  0  0  0
 15 16  2  0  0  0  0
 16 17  1  0  0  0  0
 17 18  2  0  0  0  0
 18 19  1  0  0  0  0
 19 20  3  0  0  0  0
 18 21  1  0  0  0  0
 21 22  3  0  0  0  0
  1 23  1  0  0  0  0
 23 24  2  0  0  0  0
 24 25  1  0  0  0  0
 25 26  1  0  0  0  0
 26 27  1  0  0  0  0
 27 28  2  0  0  0  0
 28 29  1  0  0  0  0
 29 30  2  0  0  0  0
 30 31  1  0  0  0  0
 31 32  1  0  0  0  0
 30 33  1  0  0  0  0
 33 34  2  0  0  0  0
 26 35  1  0  0  0  0
 35 36  2  0  0  0  0
 36 37  1  0  0  0  0
 37 38  2  0  0  0  0
 38 39  1  0  0  0  0
 39 40  1  0  0  0  0
 38 41  1  0  0  0  0
 41 42  2  0  0  0  0
 26 43  1  0  0  0  0
 43 44  2  0  0  0  0
 44 45  1  0  0  0  0
 45 46  1  0  0  0  0
 44 47  1  0  0  0  0
 47 48  1  0  0  0  0
 48 49  2  0  0  0  0
 49 50  1  0  0  0  0
 50 51  1  0  0  0  0
 51 52  2  0  0  0  0
 52 53  1  0  0  0  0
 53 54  2  0  0  0  0
 54 55  1  0  0  0  0
 55 56  2  0  0  0  0
 56 57  1  0  0  0  0
 57 58  1  0  0  0  0
 56 59  1  0  0  0  0
 52 60  1  0  0  0  0
 60 61  2  0  0  0  0
 61 62  1  0  0  0  0
 62 63  1  0  0  0  0
 63 64  2  0  0  0  0
 64 65  1  0  0  0  0
 65 66  2  0  0  0  0
 66 67  1  0  0  0  0
 67 68  1  0  0  0  0
 66 69  1  0  0  0  0
 62 70  2  0  0  0  0
 61 71  1  0  0  0  0
 71 72  1  0  0  0  0
 72 73  1  0  0  0  0
 73 74  2  0  0  0  0
 74 75  1  0  0  0  0
 75 76  1  0  0  0  0
 74 77  1  0  0  0  0
 77 78  1  0  0  0  0
 78 79  1  0  0  0  0
 79 80  2  0  0  0  0
 80 81  1  0  0  0  0
 81 82  1  0  0  0  0
 82 83  1  0  0  0  0
 83 84  2  0  0  0  0
 84 85  1  0  0  0  0
 85 86  2  0  0  0  0
 86 87  1  0  0  0  0
 87 88  1  0  0  0  0
 86 89  1  0  0  0  0
 89 90  2  0  0  0  0
 82 91  1  0  0  0  0
 91 92  2  0  0  0  0
 92 93  1  0  0  0  0
 93 94  2  0  0  0  0
 94 95  1  0  0  0  0
 95 96  1  0  0  0  0
 94 97  1  0  0  0  0
 97 98  2  0  0  0  0
 79 99  1  0  0  0  0
 99100  2  0  0  0  0
100101  1  0  0  0  0
101102  2  0  0  0  0
101103  1  0  0  0  0
103104  2  0  0  0  0
104105  1  0  0  0  0
105106  1  0  0  0  0
105107  2  0  0  0  0
107108  1  0  0  0  0
108109  2  0  0  0  0
109110  1  0  0  0  0
110111  2  0  0  0  0
111112  1  0  0  0  0
112113  3  0  0  0  0
111114  1  0  0  0  0
114115  3  0  0  0  0
 17  2  1  0  0  0  0
 46 23  1  0  0  0  0
 70 48  1  0  0  0  0
 76 72  2  0  0  0  0
 81 77  2  0  0  0  0
 90 83  1  0  0  0  0
 98 91  1  0  0  0  0
110100  1  0  0  0  0
 16  5  1  0  0  0  0
 45 25  2  0  0  0  0
 70 51  1  0  0  0  0
 82 73  1  0  0  0  0
109103  1  0  0  0  0
 14  7  1  0  0  0  0
 34 27  1  0  0  0  0
 42 35  1  0  0  0  0
 49 43  1  0  0  0  0
 59 53  1  0  0  0  0
 76 60  1  0  0  0  0
 69 63  1  0  0  0  0
  1116  1  0  0  0  0
  6117  1  0  0  0  0
  8118  1  0  0  0  0
 13119  1  0  0  0  0
 15120  1  0  0  0  0
 24121  1  0  0  0  0
 28122  1  0  0  0  0
 29123  1  0  0  0  0
 31124  1  0  0  0  0
 31125  1  0  0  0  0
 32126  1  0  0  0  0
 32127  1  0  0  0  0
 32128  1  0  0  0  0
 33129  1  0  0  0  0
 34130  1  0  0  0  0
 36131  1  0  0  0  0
 37132  1  0  0  0  0
 39133  1  0  0  0  0
 39134  1  0  0  0  0
 40135  1  0  0  0  0
 40136  1  0  0  0  0
 40137  1  0  0  0  0
 41138  1  0  0  0  0
 42139  1  0  0  0  0
 54140  1  0  0  0  0
 55141  1  0  0  0  0
 57142  1  0  0  0  0
 57143  1  0  0  0  0
 58144  1  0  0  0  0
 58145  1  0  0  0  0
 58146  1  0  0  0  0
 64147  1  0  0  0  0
 65148  1  0  0  0  0
 67149  1  0  0  0  0
 67150  1  0  0  0  0
 68151  1  0  0  0  0
 68152  1  0  0  0  0
 68153  1  0  0  0  0
 80154  1  0  0  0  0
 84155  1  0  0  0  0
 85156  1  0  0  0  0
 87157  1  0  0  0  0
 87158  1  0  0  0  0
 88159  1  0  0  0  0
 88160  1  0  0  0  0
 88161  1  0  0  0  0
 89162  1  0  0  0  0
 90163  1  0  0  0  0
 92164  1  0  0  0  0
 93165  1  0  0  0  0
 95166  1  0  0  0  0
 95167  1  0  0  0  0
 96168  1  0  0  0  0
 96169  1  0  0  0  0
 96170  1  0  0  0  0
 97171  1  0  0  0  0
 98172  1  0  0  0  0
 99173  1  0  0  0  0
104174  1  0  0  0  0
107175  1  0  0  0  0
108176  1  0  0  0  0
M  END
