176

C         -3.00710       -7.86980        4.36870
C         -2.84420       -9.23570        4.35650
C         -2.26470      -10.08590        3.29770
O         -1.91670       -9.78530        2.17240
C         -2.17640      -11.44300        3.87440
C         -1.66670      -12.57190        3.30200
C         -1.66620      -13.77500        4.04190
C         -1.15050      -14.96950        3.50300
C         -1.15940      -16.11800        4.24360
F         -0.66720      -17.25460        3.72920
C         -1.68280      -16.12230        5.55160
F         -1.67780      -17.26380        6.25470
C         -2.19050      -14.97890        6.10150
C         -2.19650      -13.77780        5.36410
C         -2.72100      -12.59110        5.92620
C         -2.71350      -11.43630        5.18900
C         -3.17520      -10.08240        5.48880
C         -3.83930       -9.72760        6.63660
C         -4.36380       -8.45590        6.94910
N         -4.83710       -7.46580        7.29070
C         -4.12600      -10.62220        7.68900
N         -4.39180      -11.29100        8.58380
C         -2.74060       -6.88590        3.40860
C         -2.27530       -6.93980        2.09400
C         -2.15250       -5.68980        1.52670
C         -1.67650       -5.13520        0.20400
C         -0.25930       -5.61100       -0.06120
C          0.84450       -4.80390        0.16690
C          2.11910       -5.27610       -0.09000
C          2.32180       -6.56470       -0.56290
C          3.70200       -7.05100       -0.89790
C          4.04110       -6.71760       -2.35240
C          1.21200       -7.37520       -0.76850
C         -0.06330       -6.90740       -0.52120
C         -2.57870       -5.47110       -0.97290
C         -3.84800       -6.00160       -0.80010
C         -4.64820       -6.26510       -1.89730
C         -4.20810       -5.99490       -3.18560
C         -5.06150       -6.32930       -4.37470
C         -4.79200       -7.76290       -4.83680
C         -2.93920       -5.45310       -3.34990
C         -2.13340       -5.19220       -2.25910
C         -1.79360       -3.65620        0.47360
C         -2.30650       -3.41300        1.74710
C         -2.51560       -4.64740        2.39740
S         -3.03020       -5.21290        3.92010
S         -2.47290       -1.73390        2.12510
C         -1.82900       -1.33350        0.56360
C         -1.52330       -2.46660       -0.19540
S         -0.78050       -2.07240       -1.71210
C         -0.80110       -0.37060       -1.28900
C         -0.23680        0.63040       -2.06780
C          0.35900        0.35600       -3.36230
C          0.11740        0.99370       -4.54510
C          0.84980        0.45790       -5.62300
C          1.65680       -0.57790       -5.26680
C          2.54540       -1.40450       -6.12990
C          1.96030       -2.80180       -6.34600
S          1.51360       -0.92730       -3.57570
C         -0.26340        1.93310       -1.53900
C         -0.93070        2.19110       -0.31530
C         -1.54990        1.19960        0.43240
C         -2.26930        1.52660        1.65120
C         -1.83900        2.25700        2.72000
C         -2.82310        2.40480        3.71890
C         -4.00770        1.81410        3.40570
C         -5.24890        1.71930        4.22270
C         -5.44320        0.29900        4.75860
S         -3.92950        1.04750        1.85410
C         -1.44070       -0.11620       -0.04850
S         -0.85720        3.87570        0.16750
C          0.14180        4.23090       -1.20600
C          0.82840        5.35900       -1.64660
C          1.57690        5.07840       -2.78850
S          1.41630        3.44940       -3.35040
C          0.35140        3.11480       -2.02060
C          2.32070        6.22550       -3.13920
S          3.43460        6.70310       -4.33700
C          3.59270        8.29350       -3.57060
C          2.77220        8.39810       -2.44740
C          2.06650        7.23960       -2.20050
C          1.05550        6.77430       -1.17710
C          1.57010        6.71650        0.25010
C          0.65780        6.56700        1.28720
C          1.09570        6.44910        2.59170
C          2.45150        6.47720        2.89360
C          2.92190        6.39960        4.31730
C          2.99510        7.79960        4.93030
C          3.35680        6.62740        1.85210
C          2.92530        6.73840        0.54250
C         -0.16600        7.67120       -1.27750
C         -1.31860        7.27760       -1.93890
C         -2.39640        8.14020       -2.03510
C         -2.34350        9.41360       -1.48660
C         -3.52820       10.33320       -1.55590
C         -4.40580       10.16750       -0.31340
C         -1.18210        9.80260       -0.82960
C         -0.10510        8.94520       -0.72600
C          4.48880        9.17940       -4.18370
C          4.93420       10.42870       -3.82350
C          4.65130       11.18820       -2.58960
O          3.87650       10.93630       -1.68880
C          5.53620       12.37310       -2.63930
C          5.67680       13.36640       -1.69170
C          6.59040       14.37080       -1.97190
F          6.76560       15.36010       -1.07920
C          7.33510       14.39120       -3.14160
C          7.17990       13.38740       -4.08580
C          6.27160       12.36850       -3.83490
C          5.88470       11.19280       -4.61370
C          6.32770       10.91980       -5.88240
C          7.25390       11.71960       -6.58540
N          8.00340       12.31730       -7.21740
C          5.92900        9.83990       -6.69890
N          5.65960        9.00890       -7.44540
H         -3.39100       -7.45640        5.29390
H         -1.26760      -12.54540        2.29940
H         -0.74600      -14.98220        2.50310
H         -2.58830      -14.99980        7.10410
H         -3.11140      -12.62940        6.92980
H         -2.04320       -7.87080        1.61090
H          0.71830       -3.79960        0.54310
H          2.96820       -4.63020        0.08230
H          4.43300       -6.57650       -0.24010
H          3.76060       -8.13130       -0.75240
H          5.04200       -7.06380       -2.59950
H          3.33180       -7.19540       -3.02450
H          3.99450       -5.64290       -2.51410
H          1.34790       -8.38540       -1.12670
H         -0.91520       -7.54810       -0.69380
H         -4.21630       -6.21790        0.19180
H         -5.63240       -6.68520       -1.74680
H         -4.84320       -5.64030       -5.19290
H         -6.11690       -6.22810       -4.11390
H         -5.40930       -8.00770       -5.69800
H         -5.01550       -8.46600       -4.03770
H         -3.74650       -7.88080       -5.11310
H         -2.57770       -5.23100       -4.34360
H         -1.14760       -4.77450       -2.40470
H         -0.59180        1.79600       -4.64590
H          0.78110        0.83340       -6.62830
H          3.52940       -1.49680       -5.66390
H          2.66750       -0.90220       -7.09160
H          0.98620       -2.73360       -6.82490
H          2.61850       -3.39240       -6.97800
H          1.84160       -3.31200       -5.39250
H         -0.83990        2.64640        2.80310
H         -2.65510        2.93420        4.63980
H         -5.17770        2.42250        5.05490
H         -6.11390        1.99410        3.61400
H         -4.59650        0.00830        5.37620
H         -6.34780        0.24260        5.35820
H         -5.52590       -0.40640        3.93470
H          2.73180        9.29210       -1.85380
H         -0.40050        6.54810        1.07040
H          0.37310        6.33110        3.38640
H          2.23310        5.78650        4.90200
H          3.91010        5.93720        4.35710
H          2.01570        8.27240        4.91060
H          3.33520        7.74620        5.96180
H          3.68650        8.42270        4.36770
H          4.41590        6.65300        2.06550
H          3.64960        6.84750       -0.25120
H         -1.38270        6.29440       -2.38180
H         -3.28990        7.81720       -2.55010
H         -4.11910       10.11100       -2.44660
H         -3.18850       11.36880       -1.62030
H         -5.26370       10.83390       -0.36200
H         -4.76450        9.14340       -0.23770
H         -3.83700       10.39760        0.58470
H         -1.11920       10.79110       -0.39810
H          0.78890        9.26150       -0.20940
H          4.91720        8.77700       -5.09420
H          5.10430       13.35980       -0.77800
H          8.03450       15.19580       -3.30510
H          7.76710       13.41480       -4.98830
