105

C          2.67910       -3.99320       -4.58120
C          2.07790       -3.55090       -5.73930
C          1.20940       -2.38290       -5.84340
O          0.87250       -1.62060       -4.95000
C          0.80970       -2.29310       -7.26060
C          0.00260       -1.37610       -7.86800
C         -0.24240       -1.49040       -9.25520
C         -1.06650       -0.57240       -9.93400
C         -1.28580       -0.70660      -11.27650
F         -2.07110        0.16940      -11.92050
C         -0.69250       -1.76150      -11.99690
F         -0.92480       -1.86810      -13.31280
C          0.11170       -2.66850      -11.36540
C          0.35780       -2.55790       -9.98250
C          1.18920       -3.49290       -9.32270
C          1.41370       -3.36330       -7.97840
C          2.20760       -4.16020       -7.04260
C          2.92560       -5.28230       -7.37570
C          3.68450       -6.07500       -6.49010
N          4.32200       -6.78160       -5.84560
C          3.00060       -5.80990       -8.68090
N          3.10450       -6.29310       -9.71760
C          2.60410       -3.49840       -3.28390
C          3.30700       -4.13630       -2.22830
O          4.05680       -5.19660       -2.52170
C          4.74520       -5.88030       -1.48290
C          5.50190       -7.02780       -2.12810
C          3.08180       -3.51540       -1.00060
S          3.63570       -3.81300        0.64600
C          2.70660       -2.45910        1.17420
C          2.43820       -1.75570        2.35530
C          2.97050       -1.90030        3.65550
C          2.59870       -0.95190        4.66320
N          3.21150       -1.17120        5.81570
S          4.17140       -2.46440        5.64780
N          3.84210       -2.79320        4.09720
C          1.62030        0.01830        4.35360
C          0.96040        0.94420        5.17070
S          0.97770        1.48220        6.81030
C         -0.40220        2.52070        6.45660
C         -1.17510        3.40260        7.21170
O         -1.07450        3.73650        8.49740
C         -0.08360        3.11800        9.30700
C         -0.22660        3.69140       10.70590
C         -2.20810        3.99710        6.44230
S         -2.18190        3.45030        4.77350
C         -0.82760        2.43720        5.11970
C         -0.03720        1.54150        4.39220
N         -0.00180        1.03120        3.12330
C          1.02280        0.10920        3.06040
C          1.53040       -0.70980        2.01560
N          1.29250       -0.76220        0.65160
C          2.00770       -1.81780        0.14650
C          2.22040       -2.40900       -1.10290
S          1.68040       -2.11500       -2.71650
C          0.91360        0.29190       -0.26640
C          2.06650        1.27280       -0.46950
C         -1.10130        1.29090        2.22150
C         -0.97080        2.64880        1.53300
C         -3.11070        4.87980        7.02910
C         -4.17670        5.55630        6.48130
C         -4.56640        5.51300        5.07360
O         -4.03960        4.86970        4.18040
C         -5.72960        6.41120        4.94530
C         -6.48080        6.74080        3.83010
Cl        -6.11240        6.08070        2.28890
C         -7.54940        7.62300        3.97620
C         -7.84490        8.15370        5.21860
C         -7.09720        7.83250        6.34640
C         -6.03430        6.95780        6.20720
C         -5.07850        6.43430        7.18750
C         -5.07820        6.73300        8.52690
C         -5.99740        7.60480        9.14660
N         -6.70620        8.30200        9.72140
C         -4.18090        6.22150        9.48790
N         -3.50460        5.85190       10.34020
H          3.31530       -4.86680       -4.65420
H         -0.44310       -0.57410       -7.29930
H         -1.52870        0.24120       -9.39710
H          0.55850       -3.47100      -11.93130
H          1.62700       -4.28890       -9.90260
H          4.02370       -6.25310       -0.74550
H          5.43450       -5.19170       -0.97900
H          6.21040       -6.64350       -2.85630
H          4.80940       -7.68630       -2.64420
H          6.03590       -7.58920       -1.36770
H         -0.23780        2.03190        9.31290
H          0.91290        3.32640        8.89870
H         -0.04910        4.76280       10.69030
H          0.48870        3.21800       11.37140
H         -1.23330        3.51950       11.07580
H          0.66870       -0.18970       -1.21650
H          0.03480        0.82120        0.08250
H          2.93450        0.75790       -0.87380
H          2.34800        1.73510        0.47510
H          1.77000        2.04950       -1.16850
H         -1.17810        0.46560        1.51220
H         -2.01870        1.29640        2.81960
H         -1.09700        3.44440        2.26200
H         -1.74690        2.75510        0.78060
H          0.00120        2.76810        1.06120
H         -2.91360        5.03140        8.08330
H         -8.14040        7.88510        3.11320
H         -8.67640        8.83480        5.31630
H         -7.35310        8.26400        7.29950
