
  xtb     02022201103D
 energy: -188.982001006052 gnorm: 0.000263907822 xtb: 6.4.1 (unknown)
 96106  0     0  0            999 V2000
    0.5824    2.9353   -3.4344 C   0  0  0  0  0  0  0  0  0  0  0  0
   -0.2816    3.9574   -3.7145 C   0  0  0  0  0  0  0  0  0  0  0  0
   -1.6544    4.0952   -3.1999 C   0  0  0  0  0  0  0  0  0  0  0  0
   -2.3021    3.2757   -2.5783 O   0  0  0  0  0  0  0  0  0  0  0  0
   -2.0994    5.4462   -3.5880 C   0  0  0  0  0  0  0  0  0  0  0  0
   -3.2714    6.0761   -3.2844 C   0  0  0  0  0  0  0  0  0  0  0  0
   -3.4751    7.3988   -3.7361 C   0  0  0  0  0  0  0  0  0  0  0  0
   -4.6595    8.1012   -3.4406 C   0  0  0  0  0  0  0  0  0  0  0  0
   -4.8260    9.3843   -3.8809 C   0  0  0  0  0  0  0  0  0  0  0  0
   -5.9518   10.0526   -3.5965 F   0  0  0  0  0  0  0  0  0  0  0  0
   -3.8188   10.0189   -4.6357 C   0  0  0  0  0  0  0  0  0  0  0  0
   -4.0093   11.2774   -5.0523 F   0  0  0  0  0  0  0  0  0  0  0  0
   -2.6596    9.3622   -4.9401 C   0  0  0  0  0  0  0  0  0  0  0  0
   -2.4562    8.0387   -4.4998 C   0  0  0  0  0  0  0  0  0  0  0  0
   -1.2566    7.3556   -4.8048 C   0  0  0  0  0  0  0  0  0  0  0  0
   -1.0783    6.0739   -4.3542 C   0  0  0  0  0  0  0  0  0  0  0  0
    0.0408    5.1442   -4.4886 C   0  0  0  0  0  0  0  0  0  0  0  0
    1.1673    5.3679   -5.2355 C   0  0  0  0  0  0  0  0  0  0  0  0
    2.2415    4.4678   -5.4007 C   0  0  0  0  0  0  0  0  0  0  0  0
    3.1529    3.7953   -5.5912 N   0  0  0  0  0  0  0  0  0  0  0  0
    1.4013    6.5478   -5.9740 C   0  0  0  0  0  0  0  0  0  0  0  0
    1.6516    7.4805   -6.5944 N   0  0  0  0  0  0  0  0  0  0  0  0
    0.4159    1.7901   -2.6312 C   0  0  0  0  0  0  0  0  0  0  0  0
   -1.0533    1.2548   -1.8467 S   0  0  0  0  0  0  0  0  0  0  0  0
   -0.2067   -0.0639   -1.1236 C   0  0  0  0  0  0  0  0  0  0  0  0
   -0.7927   -1.0140   -0.2610 C   0  0  0  0  0  0  0  0  0  0  0  0
    0.0724   -1.9662    0.3315 C   0  0  0  0  0  0  0  0  0  0  0  0
    1.4355   -1.9888   -0.0010 C   0  0  0  0  0  0  0  0  0  0  0  0
    2.0040   -1.1000   -0.8936 C   0  0  0  0  0  0  0  0  0  0  0  0
    3.4067   -1.2312   -1.2104 C   0  0  0  0  0  0  0  0  0  0  0  0
    4.1488   -2.3863   -1.1668 C   0  0  0  0  0  0  0  0  0  0  0  0
    5.4988   -2.2023   -1.5062 C   0  0  0  0  0  0  0  0  0  0  0  0
    5.8157   -0.9072   -1.7926 C   0  0  0  0  0  0  0  0  0  0  0  0
    7.1224   -0.3445   -2.2297 C   0  0  0  0  0  0  0  0  0  0  0  0
    7.1138   -0.0315   -3.7283 C   0  0  0  0  0  0  0  0  0  0  0  0
    4.4243    0.1097   -1.6637 S   0  0  0  0  0  0  0  0  0  0  0  0
    1.1630   -0.0886   -1.4548 C   0  0  0  0  0  0  0  0  0  0  0  0
    1.4801    0.9524   -2.3375 C   0  0  0  0  0  0  0  0  0  0  0  0
   -0.5041   -2.8599    1.2829 C   0  0  0  0  0  0  0  0  0  0  0  0
    0.1749   -3.7749    2.0999 C   0  0  0  0  0  0  0  0  0  0  0  0
   -0.6452   -4.4503    2.9787 C   0  0  0  0  0  0  0  0  0  0  0  0
   -2.3278   -3.9778    2.7496 S   0  0  0  0  0  0  0  0  0  0  0  0
   -1.8958   -2.8437    1.5220 C   0  0  0  0  0  0  0  0  0  0  0  0
   -2.7631   -1.9493    0.8553 C   0  0  0  0  0  0  0  0  0  0  0  0
   -4.1956   -1.9552    1.0417 C   0  0  0  0  0  0  0  0  0  0  0  0
   -5.0139   -2.9323    1.5436 C   0  0  0  0  0  0  0  0  0  0  0  0
   -6.3760   -2.5810    1.5309 C   0  0  0  0  0  0  0  0  0  0  0  0
   -6.6132   -1.3372    1.0285 C   0  0  0  0  0  0  0  0  0  0  0  0
   -7.9205   -0.6541    0.8239 C   0  0  0  0  0  0  0  0  0  0  0  0
   -8.3089   -0.6395   -0.6565 C   0  0  0  0  0  0  0  0  0  0  0  0
   -5.1388   -0.5734    0.5458 S   0  0  0  0  0  0  0  0  0  0  0  0
   -2.1714   -1.0317    0.0049 C   0  0  0  0  0  0  0  0  0  0  0  0
   -0.3962   -5.3877    3.9988 C   0  0  0  0  0  0  0  0  0  0  0  0
    0.7725   -5.8608    4.5384 C   0  0  0  0  0  0  0  0  0  0  0  0
    2.1607   -5.4724    4.2094 C   0  0  0  0  0  0  0  0  0  0  0  0
    2.5721   -4.8201    3.2769 O   0  0  0  0  0  0  0  0  0  0  0  0
    2.9974   -6.0733    5.2776 C   0  0  0  0  0  0  0  0  0  0  0  0
    2.1968   -6.8418    6.1384 C   0  0  0  0  0  0  0  0  0  0  0  0
    2.7560   -7.4881    7.2283 C   0  0  0  0  0  0  0  0  0  0  0  0
    4.1209   -7.3534    7.4374 C   0  0  0  0  0  0  0  0  0  0  0  0
    4.6795   -7.9611    8.4860 F   0  0  0  0  0  0  0  0  0  0  0  0
    4.9299   -6.6003    6.5886 C   0  0  0  0  0  0  0  0  0  0  0  0
    6.2399   -6.4965    6.8246 F   0  0  0  0  0  0  0  0  0  0  0  0
    4.3593   -5.9520    5.4916 C   0  0  0  0  0  0  0  0  0  0  0  0
    5.1312   -5.2302    4.6851 F   0  0  0  0  0  0  0  0  0  0  0  0
    0.8155   -6.7852    5.6587 C   0  0  0  0  0  0  0  0  0  0  0  0
   -0.2163   -7.5290    6.1669 C   0  0  0  0  0  0  0  0  0  0  0  0
   -1.5390   -7.5672    5.6721 C   0  0  0  0  0  0  0  0  0  0  0  0
   -2.6298   -7.6818    5.3325 N   0  0  0  0  0  0  0  0  0  0  0  0
   -0.0902   -8.4154    7.2591 C   0  0  0  0  0  0  0  0  0  0  0  0
   -0.0596   -9.1467    8.1427 N   0  0  0  0  0  0  0  0  0  0  0  0
    1.5839    3.0174   -3.8401 H   0  0  0  0  0  0  0  0  0  0  0  0
   -4.0286    5.5743   -2.7012 H   0  0  0  0  0  0  0  0  0  0  0  0
   -5.4392    7.6297   -2.8632 H   0  0  0  0  0  0  0  0  0  0  0  0
   -1.8991    9.8626   -5.5189 H   0  0  0  0  0  0  0  0  0  0  0  0
   -0.5052    7.8702   -5.3812 H   0  0  0  0  0  0  0  0  0  0  0  0
    2.0668   -2.7231    0.4715 H   0  0  0  0  0  0  0  0  0  0  0  0
    3.7307   -3.3482   -0.9315 H   0  0  0  0  0  0  0  0  0  0  0  0
    6.2174   -3.0020   -1.5327 H   0  0  0  0  0  0  0  0  0  0  0  0
    7.9087   -1.0694   -2.0094 H   0  0  0  0  0  0  0  0  0  0  0  0
    7.3343    0.5725   -1.6744 H   0  0  0  0  0  0  0  0  0  0  0  0
    8.0784    0.3647   -4.0343 H   0  0  0  0  0  0  0  0  0  0  0  0
    6.3473    0.7056   -3.9571 H   0  0  0  0  0  0  0  0  0  0  0  0
    6.9097   -0.9326   -4.3022 H   0  0  0  0  0  0  0  0  0  0  0  0
    2.4544    1.1222   -2.7572 H   0  0  0  0  0  0  0  0  0  0  0  0
    1.2363   -3.9317    2.0780 H   0  0  0  0  0  0  0  0  0  0  0  0
   -4.6682   -3.8900    1.8864 H   0  0  0  0  0  0  0  0  0  0  0  0
   -7.1559   -3.2311    1.8857 H   0  0  0  0  0  0  0  0  0  0  0  0
   -7.8601    0.3745    1.1877 H   0  0  0  0  0  0  0  0  0  0  0  0
   -8.6854   -1.1784    1.4002 H   0  0  0  0  0  0  0  0  0  0  0  0
   -9.2669   -0.1435   -0.7893 H   0  0  0  0  0  0  0  0  0  0  0  0
   -7.5580   -0.1091   -1.2377 H   0  0  0  0  0  0  0  0  0  0  0  0
   -8.3871   -1.6554   -1.0372 H   0  0  0  0  0  0  0  0  0  0  0  0
   -2.7916   -0.3015   -0.4949 H   0  0  0  0  0  0  0  0  0  0  0  0
   -1.3060   -5.7502    4.4629 H   0  0  0  0  0  0  0  0  0  0  0  0
    2.1826   -8.0817    7.9205 H   0  0  0  0  0  0  0  0  0  0  0  0
  1  2  2  0  0  0  0
  2  3  1  0  0  0  0
  3  4  2  0  0  0  0
  3  5  1  0  0  0  0
  5  6  2  0  0  0  0
  6  7  1  0  0  0  0
  7  8  2  0  0  0  0
  8  9  1  0  0  0  0
  9 10  1  0  0  0  0
  9 11  2  0  0  0  0
 11 12  1  0  0  0  0
 11 13  1  0  0  0  0
 13 14  2  0  0  0  0
 14 15  1  0  0  0  0
 15 16  2  0  0  0  0
 16 17  1  0  0  0  0
 17 18  2  0  0  0  0
 18 19  1  0  0  0  0
 19 20  3  0  0  0  0
 18 21  1  0  0  0  0
 21 22  3  0  0  0  0
  1 23  1  0  0  0  0
 23 24  1  0  0  0  0
 24 25  1  0  0  0  0
 25 26  2  0  0  0  0
 26 27  1  0  0  0  0
 27 28  2  0  0  0  0
 28 29  1  0  0  0  0
 29 30  1  0  0  0  0
 30 31  2  0  0  0  0
 31 32  1  0  0  0  0
 32 33  2  0  0  0  0
 33 34  1  0  0  0  0
 34 35  1  0  0  0  0
 33 36  1  0  0  0  0
 29 37  2  0  0  0  0
 37 38  1  0  0  0  0
 27 39  1  0  0  0  0
 39 40  1  0  0  0  0
 40 41  2  0  0  0  0
 41 42  1  0  0  0  0
 42 43  1  0  0  0  0
 43 44  1  0  0  0  0
 44 45  1  0  0  0  0
 45 46  2  0  0  0  0
 46 47  1  0  0  0  0
 47 48  2  0  0  0  0
 48 49  1  0  0  0  0
 49 50  1  0  0  0  0
 48 51  1  0  0  0  0
 44 52  2  0  0  0  0
 41 53  1  0  0  0  0
 53 54  2  0  0  0  0
 54 55  1  0  0  0  0
 55 56  2  0  0  0  0
 55 57  1  0  0  0  0
 57 58  2  0  0  0  0
 58 59  1  0  0  0  0
 59 60  2  0  0  0  0
 60 61  1  0  0  0  0
 60 62  1  0  0  0  0
 62 63  1  0  0  0  0
 62 64  2  0  0  0  0
 64 65  1  0  0  0  0
 58 66  1  0  0  0  0
 66 67  2  0  0  0  0
 67 68  1  0  0  0  0
 68 69  3  0  0  0  0
 67 70  1  0  0  0  0
 70 71  3  0  0  0  0
 17  2  1  0  0  0  0
 38 23  2  0  0  0  0
 43 39  2  0  0  0  0
 51 45  1  0  0  0  0
 66 54  1  0  0  0  0
 16  5  1  0  0  0  0
 37 25  1  0  0  0  0
 64 57  1  0  0  0  0
 14  7  1  0  0  0  0
 52 26  1  0  0  0  0
 36 30  1  0  0  0  0
  1 72  1  0  0  0  0
  6 73  1  0  0  0  0
  8 74  1  0  0  0  0
 13 75  1  0  0  0  0
 15 76  1  0  0  0  0
 28 77  1  0  0  0  0
 31 78  1  0  0  0  0
 32 79  1  0  0  0  0
 34 80  1  0  0  0  0
 34 81  1  0  0  0  0
 35 82  1  0  0  0  0
 35 83  1  0  0  0  0
 35 84  1  0  0  0  0
 38 85  1  0  0  0  0
 40 86  1  0  0  0  0
 46 87  1  0  0  0  0
 47 88  1  0  0  0  0
 49 89  1  0  0  0  0
 49 90  1  0  0  0  0
 50 91  1  0  0  0  0
 50 92  1  0  0  0  0
 50 93  1  0  0  0  0
 52 94  1  0  0  0  0
 53 95  1  0  0  0  0
 59 96  1  0  0  0  0
M  END
