138

C         -0.27160        5.02380       -3.19960
C         -0.69040        6.18790       -2.61900
C         -0.63700        7.45550       -3.38930
O         -0.42090        7.57740       -4.57380
C         -0.84980        8.52630       -2.39220
C         -0.79410        9.87940       -2.56010
C         -1.00720       10.71970       -1.44390
C         -0.96900       12.12240       -1.56400
C         -1.17240       12.91280       -0.46770
F         -1.13550       14.24750       -0.58360
C         -1.42120       12.33690        0.79410
F         -1.61560       13.13620        1.85190
C         -1.46450       10.97920        0.94220
C         -1.26240       10.13650       -0.16910
C         -1.32020        8.73110       -0.02750
C         -1.12860        7.93730       -1.12610
C         -1.17680        6.48510       -1.29090
C         -1.82920        5.62580       -0.44050
C         -2.11220        4.28120       -0.75080
N         -2.41690        3.20060       -0.99270
C         -2.39650        6.02980        0.78290
N         -2.87120        6.32930        1.78470
C          0.10280        3.83400       -2.54400
C          0.58600        3.69770       -1.24850
C          0.78980        2.38590       -0.85460
C          1.13370        1.73530        0.45980
C          2.55990        1.96000        0.92040
C          2.90170        1.75160        2.25080
C          4.20920        1.90550        2.67000
C          5.20830        2.26780        1.77540
C          6.63530        2.38820        2.22610
C          7.34190        1.03500        2.12170
C          4.86250        2.46620        0.44570
C          3.55570        2.31170        0.02020
C          0.10830        2.25520        1.45370
C          0.31110        3.49150        2.05640
C         -0.64860        4.03060        2.88940
C         -1.83890        3.35630        3.13810
C         -2.86080        3.94110        4.06740
C         -2.43270        3.76840        5.52570
C         -2.03720        2.12730        2.52660
C         -1.08150        1.58350        1.68680
C          0.96390        0.26770        0.11300
C          0.58330        0.11270       -1.24130
C          0.46620        1.41980       -1.80490
Se        -0.09740        2.15370       -3.39840
C          0.36240       -1.14110       -1.80650
C          0.52340       -2.23630       -0.99190
C          0.31040       -3.70040       -1.33690
C          1.33440       -4.25630       -2.31090
C          1.11630       -5.50400       -2.88310
C          2.04900       -6.05590       -3.73900
C          3.22520       -5.38120       -4.04240
C          4.25660       -6.00270       -4.93890
C          5.21950       -6.86820       -4.12330
C          3.44440       -4.14290       -3.45570
C          2.51400       -3.58530       -2.59660
C         -1.10750       -3.86410       -1.85200
C         -1.38190       -3.67380       -3.20060
C         -2.67700       -3.76680       -3.67270
C         -3.73210       -4.04460       -2.81300
C         -5.13080       -4.19430       -3.33690
C         -5.39670       -5.64640       -3.73930
C         -3.45310       -4.22630       -1.46540
C         -2.15920       -4.13110       -0.98710
C          0.55810       -4.34580        0.00270
C          0.91450       -3.38310        0.95300
C          0.88870       -2.08120        0.36800
C          1.12530       -0.82700        0.92870
S          1.23320       -4.03620        2.49780
C          0.88760       -5.64910        1.88440
C          0.55170       -5.61990        0.52050
C          0.90700       -6.84430        2.61010
C          1.17370       -7.08770        3.93670
C          1.52840       -6.08040        4.93960
O          1.66880       -4.88200        4.78060
C          1.68840       -6.81430        6.21350
C          2.01140       -6.31130        7.45670
C          2.10260       -7.19890        8.52240
Cl         2.50010       -6.64020       10.09970
C          1.86690       -8.55750        8.30230
F          1.95490       -9.40740        9.33260
C          1.54290       -9.06870        7.05470
C          1.45250       -8.18190        5.99350
C          1.13530       -8.38580        4.58000
C          0.85810       -9.59960        4.00500
C          0.55390       -9.82330        2.64590
N          0.29820      -10.09630        1.55950
C          0.84110      -10.82170        4.71050
N          0.80920      -11.84860        5.22230
H         -0.18060        5.05020       -4.28240
H         -0.59200       10.30410       -3.53160
H         -0.77960       12.57890       -2.52290
H         -1.66150       10.55430        1.91400
H         -1.50830        8.31680        0.95000
H          0.80290        4.55050       -0.62750
H          2.13660        1.48190        2.96410
H          4.45750        1.74430        3.70930
H          6.66910        2.73240        3.26170
H          7.16050        3.11730        1.60590
H          7.33120        0.68100        1.09320
H          6.83870        0.29680        2.74200
H          8.37520        1.11900        2.44990
H          5.62440        2.74710       -0.26750
H          3.31020        2.46920       -1.02060
H          1.23130        4.03030        1.87570
H         -0.47930        4.99510        3.34640
H         -2.98110        5.00330        3.84680
H         -3.82290        3.45000        3.91170
H         -3.17870        4.19460        6.19210
H         -2.31660        2.71310        5.76390
H         -1.48240        4.26580        5.70600
H         -2.95780        1.58870        2.69800
H         -1.26980        0.63380        1.20890
H          0.06820       -1.23180       -2.84190
H          0.20350       -6.03900       -2.66490
H          1.86060       -7.02410       -4.18020
H          3.76710       -6.62260       -5.69260
H          4.82110       -5.22160       -5.45190
H          5.72460       -6.26600       -3.37130
H          5.96910       -7.31700       -4.77070
H          4.67710       -7.66290       -3.61630
H          4.35530       -3.60350       -3.67330
H          2.71070       -2.62120       -2.15040
H         -0.57490       -3.46410       -3.88800
H         -2.87200       -3.61840       -4.72520
H         -5.84770       -3.89630       -2.56940
H         -5.27160       -3.54850       -4.20580
H         -4.69920       -5.95830       -4.51350
H         -6.40960       -5.75650       -4.11930
H         -5.27330       -6.30520       -2.88260
H         -4.25920       -4.44040       -0.77820
H         -1.96930       -4.26780        0.06770
H          1.40580       -0.73220        1.96600
H          0.31010       -6.51490       -0.02460
H          0.65590       -7.70610        2.00360
H          2.18710       -5.25640        7.59460
H          1.37330      -10.12830        6.95640
