141

C         -6.60790       -3.28260       -1.15390
C         -7.59730       -2.66350       -0.45040
C         -9.02090       -2.88230       -0.81770
O         -9.45960       -3.73610       -1.55320
C         -9.76410       -1.79770       -0.14060
C        -11.08630       -1.47320       -0.23680
C        -11.57710       -0.36690        0.49290
C        -12.93360        0.00730        0.43090
C        -13.38390        1.08370        1.14250
F        -14.67470        1.43880        1.08170
C        -12.49990        1.83200        1.94540
F        -12.96910        2.88250        2.63170
C        -11.17830        1.49390        2.02580
C        -10.68270        0.38810        1.30620
C         -9.31950        0.02380        1.39230
C         -8.86920       -1.05750        0.68410
C         -7.55340       -1.68680        0.61790
C         -6.57890       -1.57120        1.57570
C         -6.62230       -0.65020        2.64010
N         -6.59290        0.09120        3.51650
C         -5.46170       -2.42860        1.65810
N         -4.57560       -3.14440        1.80140
C         -5.24350       -2.92120       -1.22910
C         -4.18370       -3.75840       -1.53090
C         -2.95910       -3.10660       -1.43230
S         -1.29970       -3.62580       -1.51250
C         -0.79400       -2.02920       -1.07510
C          0.44650       -1.40640       -0.73200
C          1.74360       -1.91040       -0.69660
C          2.73650       -1.06260       -0.26300
C          4.21890       -1.35650       -0.11510
C          4.94090       -1.54170       -1.43980
C          6.25920       -1.98290       -1.42810
C          6.95800       -2.13220       -2.60940
C          6.36370       -1.84240       -3.83180
C          7.13900       -1.96910       -5.11110
C          7.88910       -0.66960       -5.41180
C          5.05310       -1.38680       -3.83530
C          4.34780       -1.23340       -2.65460
C          4.38680       -2.56720        0.78410
C          4.37510       -3.84440        0.23800
C          4.48190       -4.95560        1.05230
C          4.59580       -4.82250        2.43010
C          4.76600       -6.02900        3.30670
C          6.24950       -6.37480        3.45300
C          4.59760       -3.54380        2.97070
C          4.48820       -2.42850        2.16090
C          4.70900       -0.06640        0.49040
C          3.65620        0.84380        0.59800
C          2.43380        0.25600        0.15490
C          1.13700        0.76490        0.10940
C          0.14990       -0.07360       -0.34960
C         -1.33060        0.21940       -0.50360
C         -1.63610        1.17630       -1.64720
C         -0.67450        1.55490       -2.57200
C         -1.00640        2.39120       -3.62310
C         -2.30220        2.86150       -3.78270
C         -2.66540        3.73240       -4.95030
C         -3.07770        2.87470       -6.14850
C         -3.26470        2.46570       -2.86210
C         -2.93850        1.63400       -1.80900
C         -1.93850        0.70220        0.80100
C         -1.95630        2.05710        1.10510
C         -2.54890        2.50550        2.27090
C         -3.13950        1.61750        3.16040
C         -3.79140        2.09630        4.42380
C         -2.82740        1.97970        5.60570
C         -3.08260        0.26080        2.86960
C         -2.48530       -0.19440        1.70960
C         -1.83870       -1.13380       -0.91380
C         -3.07150       -1.74000       -1.11550
S         -4.71380       -1.26510       -0.94210
S          4.15080        2.34480        1.23670
C          5.81130        1.74850        1.38440
C          5.92030        0.43740        0.92390
C          6.74050        2.65550        1.91550
C          8.06390        2.51830        2.25670
C          8.89390        1.29660        2.25820
O          8.63320        0.18670        1.84270
C         10.16910        1.68320        2.90400
C         11.25580        0.87900        3.18030
C         12.35550        1.45130        3.80750
Cl        13.74370        0.50800        4.18330
C         12.32480        2.80870        4.13480
F         13.38470        3.35370        4.74420
C         11.23740        3.62190        3.85590
C         10.14200        3.04820        3.22880
C          8.86350        3.60690        2.79430
C          8.53700        4.93730        2.84980
C          7.35420        5.53200        2.36020
N          6.43750        6.10780        1.97600
C          9.37990        5.93210        3.39090
N         10.01000        6.79010        3.82020
H         -6.92040       -4.11990       -1.77030
H        -11.75030       -2.05300       -0.85970
H        -13.62320       -0.55490       -0.17900
H        -10.51560        2.07480        2.64790
H         -8.66060        0.61440        2.00910
H         -4.30690       -4.80510       -1.74100
H          1.95190       -2.92640       -0.99420
H          6.73430       -2.22010       -0.48780
H          7.98010       -2.48150       -2.58310
H          7.85710       -2.78770       -5.02880
H          6.45920       -2.19180       -5.93620
H          8.44870       -0.75920       -6.33980
H          7.18940        0.15810       -5.50610
H          8.58410       -0.43920       -4.60740
H          4.57310       -1.15010       -4.77430
H          3.32880       -0.87610       -2.68640
H          4.29580       -3.97030       -0.83230
H          4.47510       -5.94190        0.61060
H          4.23890       -6.88070        2.87180
H          4.34300       -5.83260        4.29400
H          6.37610       -7.24680        4.09030
H          6.68570       -6.58890        2.47970
H          6.79040       -5.54020        3.89350
H          4.68230       -3.41730        4.04050
H          4.48640       -1.44450        2.60660
H          0.92490        1.77380        0.42780
H          0.34180        1.20270       -2.47420
H         -0.24230        2.68340       -4.32920
H         -1.81130        4.35260       -5.22920
H         -3.49230        4.39100       -4.67780
H         -3.34130        3.50490       -6.99450
H         -2.26110        2.21970       -6.44400
H         -3.93630        2.25710       -5.89410
H         -4.28150        2.81520       -2.96870
H         -3.69870        1.34350       -1.09780
H         -1.52430        2.76800        0.41520
H         -2.56460        3.56480        2.48460
H         -4.68130        1.49560        4.62030
H         -4.09780        3.13790        4.31000
H         -2.51780        0.94600        5.74190
H         -3.30540        2.32220        6.52020
H         -1.93850        2.58260        5.43100
H         -3.52320       -0.45100        3.55250
H         -2.46030       -1.25670        1.51490
H          6.85190       -0.09610        0.93120
H          6.30980        3.63190        2.10470
H         11.24670       -0.16620        2.91510
H         11.28130        4.66080        4.13850
