138

C         -0.05370        1.08940        5.64430
C          1.24740        1.37550        5.96060
C          2.43870        1.17710        5.09590
O          2.48930        0.87520        3.92520
C          3.60430        1.37810        5.98540
C          4.92820        1.24290        5.68390
C          5.88850        1.45710        6.69740
C          7.26730        1.32310        6.44350
C          8.17400        1.52820        7.44520
F          9.48580        1.39720        7.20260
C          7.74320        1.87730        8.74080
F          8.65530        2.07170        9.70290
C          6.41220        2.01560        9.01750
C          5.45130        1.80950        8.00690
C          4.07230        1.94500        8.28650
C          3.15870        1.73200        7.28740
C          1.69930        1.78210        7.27830
C          0.91990        2.19500        8.32860
C         -0.48600        2.30920        8.31800
N         -1.62480        2.44150        8.39150
C          1.43220        2.59620        9.58040
N          1.78270        2.93060       10.62120
C         -0.61590        0.70350        4.41420
O          0.05530        0.74640        3.23100
C         -0.77090        0.26740        2.31570
C         -0.72780       -0.01360        0.91860
C         -1.98000       -0.59900        0.59490
C         -2.91300       -0.63660        1.80020
C         -3.37840       -2.06240        2.02550
C         -2.64800       -2.93580        2.81860
C         -3.06500       -4.24340        2.98760
C         -4.21030       -4.71460        2.36050
C         -4.69160       -6.11830        2.58620
C         -5.66870       -6.16220        3.76300
C         -4.92950       -3.83950        1.55620
C         -4.51970       -2.53090        1.38710
C         -4.08870        0.32130        1.68780
C         -5.06320        0.29270        2.67880
C         -6.12750        1.17130        2.64170
C         -6.24600        2.10380        1.61810
C         -7.37750        3.09010        1.60610
C         -6.99650        4.34630        2.39250
C         -5.26470        2.13380        0.63750
C         -4.19480        1.25640        0.67000
C         -1.99940       -0.10340        2.86800
C         -1.91400        0.19710        4.21790
C         -2.21140       -1.09690       -0.66570
C         -1.19050       -0.95310       -1.60490
C         -1.06460       -1.41150       -2.94900
C          0.17340       -1.05580       -3.49010
C          0.94600       -0.21440       -2.51530
C          0.02590       -0.28450       -1.30340
C          0.27680        0.16820       -0.02940
C          1.03580        1.18150       -3.11760
C          0.25040        2.23670       -2.68040
C          0.34690        3.47630       -3.28880
C          1.22030        3.68930       -4.34570
C          1.28690        5.02260       -5.03250
C          0.29020        5.07530       -6.19240
C          1.99590        2.62330       -4.78610
C          1.90510        1.38470       -4.18310
C          2.31850       -0.73810       -2.14480
C          2.64040       -2.07960       -2.28840
C          3.88400       -2.54540       -1.90150
C          4.83040       -1.68790       -1.35770
C          6.16160       -2.19980       -0.88940
C          6.10150       -2.55090        0.59870
C          4.49860       -0.34710       -1.20880
C          3.25960        0.12430       -1.59620
C          0.20710       -1.58380       -4.76980
C         -1.01530       -2.25490       -4.94150
O         -1.78430       -2.12370       -3.80180
C         -1.60440       -3.02240       -5.95590
C         -1.14660       -3.41010       -7.19130
C          0.15480       -3.08620       -7.80900
O          1.05010       -2.39610       -7.37820
C          0.15630       -3.79400       -9.11450
C         -1.05570       -4.48260       -9.28530
C         -1.28420       -5.22630      -10.43130
C         -0.28640       -5.26670      -11.39450
F         -0.48630       -5.97980      -12.50540
C          0.92000       -4.58750      -11.24040
F          1.85540       -4.65200      -12.19140
C          1.14370       -3.83970      -10.08250
F          2.29620       -3.19330       -9.93620
C         -1.89350       -4.25030       -8.10620
C         -3.15690       -4.75810       -7.94280
C         -4.00670       -4.56060       -6.83270
N         -4.77510       -4.46570       -5.98420
C         -3.81450       -5.57330       -8.88950
N         -4.41080       -6.23900       -9.60980
H         -0.78220        1.11560        6.44400
H          5.23750        0.97170        4.68590
H          7.61300        1.05590        5.45720
H          6.09940        2.28380       10.01450
H          3.77490        2.20610        9.28900
H         -1.74870       -2.59430        3.31060
H         -2.48810       -4.90840        3.61440
H         -5.19280       -6.48640        1.68900
H         -3.84340       -6.77230        2.79760
H         -6.02480       -7.17690        3.92400
H         -5.18190       -5.81630        4.67220
H         -6.52470       -5.52020        3.56800
H         -5.82100       -4.18730        1.05450
H         -5.09820       -1.86410        0.76410
H         -4.98800       -0.43100        3.47730
H         -6.87850        1.13290        3.41750
H         -7.61700        3.36780        0.57780
H         -8.26530        2.64070        2.05510
H         -7.81550        5.06150        2.38660
H         -6.12040        4.81720        1.95210
H         -6.76470        4.09150        3.42410
H         -5.33630        2.85260       -0.16630
H         -3.44430        1.30290       -0.10540
H         -2.64810        0.06530        4.98660
H         -3.13540       -1.58950       -0.92470
H          1.21110        0.63270        0.24290
H         -0.43800        2.09940       -1.85940
H         -0.26760        4.29070       -2.93220
H          2.29460        5.19070       -5.41720
H          1.05440        5.81810       -4.32180
H          0.51290        4.29640       -6.91810
H          0.33860        6.04000       -6.69180
H         -0.72330        4.92290       -5.82790
H          2.67930        2.76570       -5.61060
H          2.51730        0.56720       -4.53390
H          1.91930       -2.76570       -2.70860
H          4.12190       -3.59210       -2.02650
H          6.92700       -1.43730       -1.04800
H          6.44070       -3.08810       -1.45910
H          5.81790       -1.67760        1.18190
H          7.06970       -2.90370        0.94620
H          5.36360       -3.33070        0.77370
H          5.22070        0.33730       -0.78740
H          3.02520        1.17300       -1.48380
H          0.98540       -1.52810       -5.50160
H         -2.59040       -3.36860       -5.67020
H         -2.19470       -5.77340      -10.60880
