
  xtb     02012219053D
 energy: -196.608904625081 gnorm: 0.000508427125 xtb: 6.4.1 (unknown)
103115  0     0  0            999 V2000
   -6.6649    3.1820   -0.6988 C   0  0  0  0  0  0  0  0  0  0  0  0
   -6.4338    4.2796    0.0997 C   0  0  0  0  0  0  0  0  0  0  0  0
   -5.1575    4.6460    0.7120 C   0  0  0  0  0  0  0  0  0  0  0  0
   -4.0983    4.0431    0.6493 O   0  0  0  0  0  0  0  0  0  0  0  0
   -5.3921    5.9144    1.4263 C   0  0  0  0  0  0  0  0  0  0  0  0
   -4.5097    6.6680    2.1439 C   0  0  0  0  0  0  0  0  0  0  0  0
   -4.9600    7.8667    2.7415 C   0  0  0  0  0  0  0  0  0  0  0  0
   -4.0929    8.6849    3.4908 C   0  0  0  0  0  0  0  0  0  0  0  0
   -4.5546    9.8409    4.0555 C   0  0  0  0  0  0  0  0  0  0  0  0
   -3.7273   10.6187    4.7680 F   0  0  0  0  0  0  0  0  0  0  0  0
   -5.8998   10.2281    3.8962 C   0  0  0  0  0  0  0  0  0  0  0  0
   -6.3243   11.3669    4.4604 F   0  0  0  0  0  0  0  0  0  0  0  0
   -6.7654    9.4542    3.1751 C   0  0  0  0  0  0  0  0  0  0  0  0
   -6.3206    8.2566    2.5803 C   0  0  0  0  0  0  0  0  0  0  0  0
   -7.2106    7.4515    1.8319 C   0  0  0  0  0  0  0  0  0  0  0  0
   -6.7532    6.2939    1.2611 C   0  0  0  0  0  0  0  0  0  0  0  0
   -7.4214    5.2800    0.4462 C   0  0  0  0  0  0  0  0  0  0  0  0
   -8.7504    5.3009    0.1022 C   0  0  0  0  0  0  0  0  0  0  0  0
   -9.4219    4.3280   -0.6657 C   0  0  0  0  0  0  0  0  0  0  0  0
  -10.0426    3.5798   -1.2791 N   0  0  0  0  0  0  0  0  0  0  0  0
   -9.6487    6.3186    0.4849 C   0  0  0  0  0  0  0  0  0  0  0  0
  -10.4323    7.1114    0.7605 N   0  0  0  0  0  0  0  0  0  0  0  0
   -5.8199    2.1493   -1.1066 C   0  0  0  0  0  0  0  0  0  0  0  0
   -6.2468    1.0983   -1.9412 C   0  0  0  0  0  0  0  0  0  0  0  0
   -7.6327    0.9020   -2.4616 C   0  0  0  0  0  0  0  0  0  0  0  0
   -8.5075    0.1979   -1.4202 C   0  0  0  0  0  0  0  0  0  0  0  0
   -5.2214    0.1973   -2.1823 C   0  0  0  0  0  0  0  0  0  0  0  0
   -5.1601   -1.2894   -3.1106 S   0  0  0  0  0  0  0  0  0  0  0  0
   -3.5045   -1.4679   -2.6490 C   0  0  0  0  0  0  0  0  0  0  0  0
   -2.4705   -2.4022   -2.7776 C   0  0  0  0  0  0  0  0  0  0  0  0
   -2.4555   -3.7039   -3.3288 C   0  0  0  0  0  0  0  0  0  0  0  0
   -1.3086   -4.5365   -3.1079 C   0  0  0  0  0  0  0  0  0  0  0  0
   -1.4645   -5.7531   -3.6045 N   0  0  0  0  0  0  0  0  0  0  0  0
   -2.9241   -5.8420   -4.2988 S   0  0  0  0  0  0  0  0  0  0  0  0
   -3.4165   -4.3318   -3.9869 N   0  0  0  0  0  0  0  0  0  0  0  0
   -0.1770   -3.9846   -2.4657 C   0  0  0  0  0  0  0  0  0  0  0  0
    1.0862   -4.5219   -2.1844 C   0  0  0  0  0  0  0  0  0  0  0  0
    1.9237   -6.0293   -2.3076 S   0  0  0  0  0  0  0  0  0  0  0  0
    3.3461   -5.2566   -1.6311 C   0  0  0  0  0  0  0  0  0  0  0  0
    4.6125   -5.7341   -1.3281 C   0  0  0  0  0  0  0  0  0  0  0  0
    5.0002   -7.1650   -1.5077 C   0  0  0  0  0  0  0  0  0  0  0  0
    4.8000   -7.9471   -0.2062 C   0  0  0  0  0  0  0  0  0  0  0  0
    5.4238   -4.7218   -0.7809 C   0  0  0  0  0  0  0  0  0  0  0  0
    4.5774   -3.1752   -0.6711 S   0  0  0  0  0  0  0  0  0  0  0  0
    3.1611   -3.8932   -1.3375 C   0  0  0  0  0  0  0  0  0  0  0  0
    1.8628   -3.4854   -1.6502 C   0  0  0  0  0  0  0  0  0  0  0  0
    1.1224   -2.3331   -1.5732 N   0  0  0  0  0  0  0  0  0  0  0  0
   -0.1467   -2.6238   -2.0406 C   0  0  0  0  0  0  0  0  0  0  0  0
   -1.3497   -1.8740   -2.0708 C   0  0  0  0  0  0  0  0  0  0  0  0
   -1.7207   -0.6770   -1.4939 N   0  0  0  0  0  0  0  0  0  0  0  0
   -3.0224   -0.4276   -1.8408 C   0  0  0  0  0  0  0  0  0  0  0  0
   -4.0029    0.5268   -1.5590 C   0  0  0  0  0  0  0  0  0  0  0  0
   -4.1220    1.9858   -0.6494 S   0  0  0  0  0  0  0  0  0  0  0  0
   -1.0982    0.0769   -0.4275 C   0  0  0  0  0  0  0  0  0  0  0  0
   -0.6360    1.4587   -0.8905 C   0  0  0  0  0  0  0  0  0  0  0  0
    1.8256   -1.0672   -1.5657 C   0  0  0  0  0  0  0  0  0  0  0  0
    2.5778   -0.8521   -2.8787 C   0  0  0  0  0  0  0  0  0  0  0  0
    6.7379   -4.9492   -0.3672 C   0  0  0  0  0  0  0  0  0  0  0  0
    7.6637   -4.1107    0.2088 C   0  0  0  0  0  0  0  0  0  0  0  0
    7.4708   -2.6952    0.5224 C   0  0  0  0  0  0  0  0  0  0  0  0
    6.4832   -2.0103    0.3179 O   0  0  0  0  0  0  0  0  0  0  0  0
    8.7316   -2.2393    1.1430 C   0  0  0  0  0  0  0  0  0  0  0  0
    9.0481   -0.9843    1.6207 C   0  0  0  0  0  0  0  0  0  0  0  0
   10.3136   -0.8251    2.1656 C   0  0  0  0  0  0  0  0  0  0  0  0
   10.6682    0.3789    2.6450 F   0  0  0  0  0  0  0  0  0  0  0  0
   11.2283   -1.8648    2.2352 C   0  0  0  0  0  0  0  0  0  0  0  0
   10.8959   -3.1208    1.7492 C   0  0  0  0  0  0  0  0  0  0  0  0
    9.6379   -3.3125    1.1970 C   0  0  0  0  0  0  0  0  0  0  0  0
    9.0015   -4.4941    0.6129 C   0  0  0  0  0  0  0  0  0  0  0  0
    9.5944   -5.7245    0.4838 C   0  0  0  0  0  0  0  0  0  0  0  0
    9.0013   -6.8739   -0.0785 C   0  0  0  0  0  0  0  0  0  0  0  0
    8.5929   -7.8552   -0.5159 N   0  0  0  0  0  0  0  0  0  0  0  0
   10.9100   -6.0177    0.9007 C   0  0  0  0  0  0  0  0  0  0  0  0
   11.9698   -6.3271    1.2153 N   0  0  0  0  0  0  0  0  0  0  0  0
   -7.6695    3.0889   -1.0879 H   0  0  0  0  0  0  0  0  0  0  0  0
   -3.4823    6.3555    2.2535 H   0  0  0  0  0  0  0  0  0  0  0  0
   -3.0599    8.4029    3.6218 H   0  0  0  0  0  0  0  0  0  0  0  0
   -7.7924    9.7646    3.0627 H   0  0  0  0  0  0  0  0  0  0  0  0
   -8.2329    7.7766    1.7294 H   0  0  0  0  0  0  0  0  0  0  0  0
   -7.5752    0.2799   -3.3570 H   0  0  0  0  0  0  0  0  0  0  0  0
   -8.0906    1.8535   -2.7346 H   0  0  0  0  0  0  0  0  0  0  0  0
   -8.5884    0.7970   -0.5163 H   0  0  0  0  0  0  0  0  0  0  0  0
   -9.5053    0.0465   -1.8214 H   0  0  0  0  0  0  0  0  0  0  0  0
   -8.0830   -0.7692   -1.1612 H   0  0  0  0  0  0  0  0  0  0  0  0
    6.0386   -7.2562   -1.8290 H   0  0  0  0  0  0  0  0  0  0  0  0
    4.3630   -7.5958   -2.2825 H   0  0  0  0  0  0  0  0  0  0  0  0
    3.7601   -7.8983    0.1081 H   0  0  0  0  0  0  0  0  0  0  0  0
    5.4228   -7.5409    0.5874 H   0  0  0  0  0  0  0  0  0  0  0  0
    5.0716   -8.9877   -0.3575 H   0  0  0  0  0  0  0  0  0  0  0  0
   -1.8459    0.2111    0.3619 H   0  0  0  0  0  0  0  0  0  0  0  0
   -0.2804   -0.5120   -0.0103 H   0  0  0  0  0  0  0  0  0  0  0  0
   -0.0496    1.4020   -1.8053 H   0  0  0  0  0  0  0  0  0  0  0  0
   -1.4951    2.0958   -1.0807 H   0  0  0  0  0  0  0  0  0  0  0  0
   -0.0350    1.9228   -0.1137 H   0  0  0  0  0  0  0  0  0  0  0  0
    2.5349   -1.0826   -0.7329 H   0  0  0  0  0  0  0  0  0  0  0  0
    1.1252   -0.2529   -1.4278 H   0  0  0  0  0  0  0  0  0  0  0  0
    3.3270   -1.6248   -3.0274 H   0  0  0  0  0  0  0  0  0  0  0  0
    1.8862   -0.8695   -3.7189 H   0  0  0  0  0  0  0  0  0  0  0  0
    3.0787    0.1115   -2.8563 H   0  0  0  0  0  0  0  0  0  0  0  0
    7.0630   -5.9681   -0.5256 H   0  0  0  0  0  0  0  0  0  0  0  0
    8.3460   -0.1674    1.5735 H   0  0  0  0  0  0  0  0  0  0  0  0
   12.1980   -1.6832    2.6710 H   0  0  0  0  0  0  0  0  0  0  0  0
   11.6160   -3.9197    1.8098 H   0  0  0  0  0  0  0  0  0  0  0  0
  1  2  2  0  0  0  0
  2  3  1  0  0  0  0
  3  4  2  0  0  0  0
  3  5  1  0  0  0  0
  5  6  2  0  0  0  0
  6  7  1  0  0  0  0
  7  8  2  0  0  0  0
  8  9  1  0  0  0  0
  9 10  1  0  0  0  0
  9 11  2  0  0  0  0
 11 12  1  0  0  0  0
 11 13  1  0  0  0  0
 13 14  2  0  0  0  0
 14 15  1  0  0  0  0
 15 16  2  0  0  0  0
 16 17  1  0  0  0  0
 17 18  2  0  0  0  0
 18 19  1  0  0  0  0
 19 20  3  0  0  0  0
 18 21  1  0  0  0  0
 21 22  3  0  0  0  0
  1 23  1  0  0  0  0
 23 24  2  0  0  0  0
 24 25  1  0  0  0  0
 25 26  1  0  0  0  0
 24 27  1  0  0  0  0
 27 28  1  0  0  0  0
 28 29  1  0  0  0  0
 29 30  1  0  0  0  0
 30 31  1  0  0  0  0
 31 32  1  0  0  0  0
 32 33  2  0  0  0  0
 33 34  1  0  0  0  0
 34 35  1  0  0  0  0
 32 36  1  0  0  0  0
 36 37  1  0  0  0  0
 37 38  1  0  0  0  0
 38 39  1  0  0  0  0
 39 40  1  0  0  0  0
 40 41  1  0  0  0  0
 41 42  1  0  0  0  0
 40 43  2  0  0  0  0
 43 44  1  0  0  0  0
 44 45  1  0  0  0  0
 45 46  1  0  0  0  0
 46 47  1  0  0  0  0
 47 48  1  0  0  0  0
 48 49  1  0  0  0  0
 49 50  1  0  0  0  0
 50 51  1  0  0  0  0
 51 52  1  0  0  0  0
 52 53  1  0  0  0  0
 50 54  1  0  0  0  0
 54 55  1  0  0  0  0
 47 56  1  0  0  0  0
 56 57  1  0  0  0  0
 43 58  1  0  0  0  0
 58 59  2  0  0  0  0
 59 60  1  0  0  0  0
 60 61  2  0  0  0  0
 60 62  1  0  0  0  0
 62 63  2  0  0  0  0
 63 64  1  0  0  0  0
 64 65  1  0  0  0  0
 64 66  2  0  0  0  0
 66 67  1  0  0  0  0
 67 68  2  0  0  0  0
 68 69  1  0  0  0  0
 69 70  2  0  0  0  0
 70 71  1  0  0  0  0
 71 72  3  0  0  0  0
 70 73  1  0  0  0  0
 73 74  3  0  0  0  0
 17  2  1  0  0  0  0
 53 23  1  0  0  0  0
 69 59  1  0  0  0  0
 16  5  1  0  0  0  0
 52 27  2  0  0  0  0
 68 62  1  0  0  0  0
 14  7  1  0  0  0  0
 51 29  2  0  0  0  0
 49 30  2  0  0  0  0
 35 31  2  0  0  0  0
 48 36  2  0  0  0  0
 46 37  2  0  0  0  0
 45 39  2  0  0  0  0
  1 75  1  0  0  0  0
  6 76  1  0  0  0  0
  8 77  1  0  0  0  0
 13 78  1  0  0  0  0
 15 79  1  0  0  0  0
 25 80  1  0  0  0  0
 25 81  1  0  0  0  0
 26 82  1  0  0  0  0
 26 83  1  0  0  0  0
 26 84  1  0  0  0  0
 41 85  1  0  0  0  0
 41 86  1  0  0  0  0
 42 87  1  0  0  0  0
 42 88  1  0  0  0  0
 42 89  1  0  0  0  0
 54 90  1  0  0  0  0
 54 91  1  0  0  0  0
 55 92  1  0  0  0  0
 55 93  1  0  0  0  0
 55 94  1  0  0  0  0
 56 95  1  0  0  0  0
 56 96  1  0  0  0  0
 57 97  1  0  0  0  0
 57 98  1  0  0  0  0
 57 99  1  0  0  0  0
 58100  1  0  0  0  0
 63101  1  0  0  0  0
 66102  1  0  0  0  0
 67103  1  0  0  0  0
M  END
