
  xtb     02012223363D
 energy: -195.542751313555 gnorm: 0.000447355749 xtb: 6.4.1 (unknown)
106118  0     0  0            999 V2000
    0.2977   -5.6432    4.1331 C   0  0  0  0  0  0  0  0  0  0  0  0
   -0.0828   -6.8977    4.5444 C   0  0  0  0  0  0  0  0  0  0  0  0
   -1.0140   -7.7809    3.8161 C   0  0  0  0  0  0  0  0  0  0  0  0
   -1.6402   -7.5322    2.8051 O   0  0  0  0  0  0  0  0  0  0  0  0
   -0.9320   -9.0912    4.4960 C   0  0  0  0  0  0  0  0  0  0  0  0
   -1.6068  -10.2420    4.2109 C   0  0  0  0  0  0  0  0  0  0  0  0
   -1.3682  -11.3911    4.9985 C   0  0  0  0  0  0  0  0  0  0  0  0
   -2.0475  -12.6006    4.7568 C   0  0  0  0  0  0  0  0  0  0  0  0
   -1.7963  -13.6978    5.5324 C   0  0  0  0  0  0  0  0  0  0  0  0
   -2.4448  -14.8482    5.3010 F   0  0  0  0  0  0  0  0  0  0  0  0
   -0.8568  -13.6341    6.5803 C   0  0  0  0  0  0  0  0  0  0  0  0
   -0.6309  -14.7257    7.3244 F   0  0  0  0  0  0  0  0  0  0  0  0
   -0.1817  -12.4743    6.8391 C   0  0  0  0  0  0  0  0  0  0  0  0
   -0.4197  -11.3248    6.0594 C   0  0  0  0  0  0  0  0  0  0  0  0
    0.2690  -10.1189    6.3256 C   0  0  0  0  0  0  0  0  0  0  0  0
    0.0114   -9.0146    5.5578 C   0  0  0  0  0  0  0  0  0  0  0  0
    0.5401   -7.6546    5.6075 C   0  0  0  0  0  0  0  0  0  0  0  0
    1.4010   -7.1664    6.5582 C   0  0  0  0  0  0  0  0  0  0  0  0
    1.8149   -5.8219    6.6556 C   0  0  0  0  0  0  0  0  0  0  0  0
    2.1741   -4.7420    6.8113 N   0  0  0  0  0  0  0  0  0  0  0  0
    1.9640   -7.9468    7.5881 C   0  0  0  0  0  0  0  0  0  0  0  0
    2.4593   -8.5312    8.4434 N   0  0  0  0  0  0  0  0  0  0  0  0
   -0.3897   -4.7646    3.2803 C   0  0  0  0  0  0  0  0  0  0  0  0
   -1.7550   -4.5445    3.0777 C   0  0  0  0  0  0  0  0  0  0  0  0
   -2.8302   -5.2427    3.8360 C   0  0  0  0  0  0  0  0  0  0  0  0
   -3.9789   -4.3297    4.2528 C   0  0  0  0  0  0  0  0  0  0  0  0
   -1.9625   -3.5028    2.1648 C   0  0  0  0  0  0  0  0  0  0  0  0
   -3.4027   -2.7865    1.4667 S   0  0  0  0  0  0  0  0  0  0  0  0
   -2.4124   -1.7070    0.5533 C   0  0  0  0  0  0  0  0  0  0  0  0
   -2.5465   -0.6640   -0.3759 C   0  0  0  0  0  0  0  0  0  0  0  0
   -3.6764   -0.1367   -1.0406 C   0  0  0  0  0  0  0  0  0  0  0  0
   -3.4881    0.8996   -2.0157 C   0  0  0  0  0  0  0  0  0  0  0  0
   -4.6221    1.2584   -2.5957 N   0  0  0  0  0  0  0  0  0  0  0  0
   -5.8236    0.3740   -1.9681 S   0  0  0  0  0  0  0  0  0  0  0  0
   -4.9437   -0.5018   -0.9298 N   0  0  0  0  0  0  0  0  0  0  0  0
   -2.1996    1.4565   -2.1815 C   0  0  0  0  0  0  0  0  0  0  0  0
   -1.7639    2.5914   -2.8778 C   0  0  0  0  0  0  0  0  0  0  0  0
   -2.4062    3.8053   -3.9288 S   0  0  0  0  0  0  0  0  0  0  0  0
   -0.8568    4.6263   -3.8738 C   0  0  0  0  0  0  0  0  0  0  0  0
   -0.4039    5.8047   -4.4524 C   0  0  0  0  0  0  0  0  0  0  0  0
   -1.2745    6.6773   -5.2961 C   0  0  0  0  0  0  0  0  0  0  0  0
   -1.9167    7.7837   -4.4546 C   0  0  0  0  0  0  0  0  0  0  0  0
    0.9257    6.0764   -4.0861 C   0  0  0  0  0  0  0  0  0  0  0  0
    1.5928    4.8303   -3.0306 S   0  0  0  0  0  0  0  0  0  0  0  0
    0.1005    3.9703   -3.0812 C   0  0  0  0  0  0  0  0  0  0  0  0
   -0.4230    2.7988   -2.5266 C   0  0  0  0  0  0  0  0  0  0  0  0
   -0.0101    1.8152   -1.6684 N   0  0  0  0  0  0  0  0  0  0  0  0
   -1.0756    0.9660   -1.4536 C   0  0  0  0  0  0  0  0  0  0  0  0
   -1.2313   -0.1946   -0.6549 C   0  0  0  0  0  0  0  0  0  0  0  0
   -0.3218   -0.9747    0.0399 N   0  0  0  0  0  0  0  0  0  0  0  0
   -1.0421   -1.8816    0.7769 C   0  0  0  0  0  0  0  0  0  0  0  0
   -0.7830   -2.9087    1.6848 C   0  0  0  0  0  0  0  0  0  0  0  0
    0.6159   -3.6175    2.3882 S   0  0  0  0  0  0  0  0  0  0  0  0
    1.0416   -1.3084   -0.3151 C   0  0  0  0  0  0  0  0  0  0  0  0
    1.0858   -2.5336   -1.2282 C   0  0  0  0  0  0  0  0  0  0  0  0
    1.2287    1.9645   -0.9371 C   0  0  0  0  0  0  0  0  0  0  0  0
    2.4489    1.6365   -1.7982 C   0  0  0  0  0  0  0  0  0  0  0  0
    1.6153    7.2165   -4.5135 C   0  0  0  0  0  0  0  0  0  0  0  0
    2.8878    7.6541   -4.2407 C   0  0  0  0  0  0  0  0  0  0  0  0
    3.8772    6.9734   -3.4012 C   0  0  0  0  0  0  0  0  0  0  0  0
    3.7519    5.9108   -2.8144 O   0  0  0  0  0  0  0  0  0  0  0  0
    5.0773    7.8272   -3.4073 C   0  0  0  0  0  0  0  0  0  0  0  0
    6.2800    7.6281   -2.7655 C   0  0  0  0  0  0  0  0  0  0  0  0
    7.2900    8.5788   -2.9139 C   0  0  0  0  0  0  0  0  0  0  0  0
    8.6058    8.3803   -2.2318 C   0  0  0  0  0  0  0  0  0  0  0  0
    7.0502    9.6976   -3.7057 C   0  0  0  0  0  0  0  0  0  0  0  0
    5.8403    9.9034   -4.3549 C   0  0  0  0  0  0  0  0  0  0  0  0
    4.8374    8.9591   -4.2075 C   0  0  0  0  0  0  0  0  0  0  0  0
    3.4806    8.8794   -4.7433 C   0  0  0  0  0  0  0  0  0  0  0  0
    2.9019    9.8105   -5.5680 C   0  0  0  0  0  0  0  0  0  0  0  0
    3.5513   10.9797   -6.0169 C   0  0  0  0  0  0  0  0  0  0  0  0
    4.0164   11.9491   -6.4196 N   0  0  0  0  0  0  0  0  0  0  0  0
    1.5941    9.7539   -6.0915 C   0  0  0  0  0  0  0  0  0  0  0  0
    0.5436    9.7837   -6.5572 N   0  0  0  0  0  0  0  0  0  0  0  0
    1.2668   -5.2846    4.4622 H   0  0  0  0  0  0  0  0  0  0  0  0
   -2.3171  -10.2753    3.3988 H   0  0  0  0  0  0  0  0  0  0  0  0
   -2.7694  -12.6664    3.9579 H   0  0  0  0  0  0  0  0  0  0  0  0
    0.5336  -12.4416    7.6461 H   0  0  0  0  0  0  0  0  0  0  0  0
    0.9857  -10.1014    7.1307 H   0  0  0  0  0  0  0  0  0  0  0  0
   -2.3876   -5.7011    4.7241 H   0  0  0  0  0  0  0  0  0  0  0  0
   -3.2135   -6.0587    3.2138 H   0  0  0  0  0  0  0  0  0  0  0  0
   -4.6416   -4.8679    4.9259 H   0  0  0  0  0  0  0  0  0  0  0  0
   -4.5596   -4.0056    3.3942 H   0  0  0  0  0  0  0  0  0  0  0  0
   -3.6018   -3.4506    4.7709 H   0  0  0  0  0  0  0  0  0  0  0  0
   -0.7074    7.1270   -6.1124 H   0  0  0  0  0  0  0  0  0  0  0  0
   -2.0621    6.0566   -5.7279 H   0  0  0  0  0  0  0  0  0  0  0  0
   -1.1557    8.4209   -4.0102 H   0  0  0  0  0  0  0  0  0  0  0  0
   -2.5186    7.3523   -3.6582 H   0  0  0  0  0  0  0  0  0  0  0  0
   -2.5553    8.3986   -5.0822 H   0  0  0  0  0  0  0  0  0  0  0  0
    1.5074   -0.4755   -0.8268 H   0  0  0  0  0  0  0  0  0  0  0  0
    1.5872   -1.5147    0.6107 H   0  0  0  0  0  0  0  0  0  0  0  0
    2.1162   -2.7541   -1.4926 H   0  0  0  0  0  0  0  0  0  0  0  0
    0.5225   -2.3448   -2.1398 H   0  0  0  0  0  0  0  0  0  0  0  0
    0.6633   -3.4038   -0.7333 H   0  0  0  0  0  0  0  0  0  0  0  0
    1.3022    3.0112   -0.6222 H   0  0  0  0  0  0  0  0  0  0  0  0
    1.1831    1.3515   -0.0361 H   0  0  0  0  0  0  0  0  0  0  0  0
    2.3330    0.6866   -2.3161 H   0  0  0  0  0  0  0  0  0  0  0  0
    3.3373    1.5936   -1.1746 H   0  0  0  0  0  0  0  0  0  0  0  0
    2.5965    2.4106   -2.5457 H   0  0  0  0  0  0  0  0  0  0  0  0
    1.0267    7.8512   -5.1615 H   0  0  0  0  0  0  0  0  0  0  0  0
    6.4290    6.7474   -2.1586 H   0  0  0  0  0  0  0  0  0  0  0  0
    9.1058    7.4993   -2.6333 H   0  0  0  0  0  0  0  0  0  0  0  0
    8.4589    8.2179   -1.1652 H   0  0  0  0  0  0  0  0  0  0  0  0
    9.2549    9.2406   -2.3704 H   0  0  0  0  0  0  0  0  0  0  0  0
    7.8315   10.4347   -3.8211 H   0  0  0  0  0  0  0  0  0  0  0  0
    5.7025   10.7864   -4.9569 H   0  0  0  0  0  0  0  0  0  0  0  0
  1  2  2  0  0  0  0
  2  3  1  0  0  0  0
  3  4  2  0  0  0  0
  3  5  1  0  0  0  0
  5  6  2  0  0  0  0
  6  7  1  0  0  0  0
  7  8  2  0  0  0  0
  8  9  1  0  0  0  0
  9 10  1  0  0  0  0
  9 11  2  0  0  0  0
 11 12  1  0  0  0  0
 11 13  1  0  0  0  0
 13 14  2  0  0  0  0
 14 15  1  0  0  0  0
 15 16  2  0  0  0  0
 16 17  1  0  0  0  0
 17 18  2  0  0  0  0
 18 19  1  0  0  0  0
 19 20  3  0  0  0  0
 18 21  1  0  0  0  0
 21 22  3  0  0  0  0
  1 23  1  0  0  0  0
 23 24  2  0  0  0  0
 24 25  1  0  0  0  0
 25 26  1  0  0  0  0
 24 27  1  0  0  0  0
 27 28  1  0  0  0  0
 28 29  1  0  0  0  0
 29 30  1  0  0  0  0
 30 31  1  0  0  0  0
 31 32  1  0  0  0  0
 32 33  2  0  0  0  0
 33 34  1  0  0  0  0
 34 35  1  0  0  0  0
 32 36  1  0  0  0  0
 36 37  1  0  0  0  0
 37 38  1  0  0  0  0
 38 39  1  0  0  0  0
 39 40  1  0  0  0  0
 40 41  1  0  0  0  0
 41 42  1  0  0  0  0
 40 43  2  0  0  0  0
 43 44  1  0  0  0  0
 44 45  1  0  0  0  0
 45 46  1  0  0  0  0
 46 47  1  0  0  0  0
 47 48  1  0  0  0  0
 48 49  1  0  0  0  0
 49 50  1  0  0  0  0
 50 51  1  0  0  0  0
 51 52  1  0  0  0  0
 52 53  1  0  0  0  0
 50 54  1  0  0  0  0
 54 55  1  0  0  0  0
 47 56  1  0  0  0  0
 56 57  1  0  0  0  0
 43 58  1  0  0  0  0
 58 59  2  0  0  0  0
 59 60  1  0  0  0  0
 60 61  2  0  0  0  0
 60 62  1  0  0  0  0
 62 63  2  0  0  0  0
 63 64  1  0  0  0  0
 64 65  1  0  0  0  0
 64 66  2  0  0  0  0
 66 67  1  0  0  0  0
 67 68  2  0  0  0  0
 68 69  1  0  0  0  0
 69 70  2  0  0  0  0
 70 71  1  0  0  0  0
 71 72  3  0  0  0  0
 70 73  1  0  0  0  0
 73 74  3  0  0  0  0
 17  2  1  0  0  0  0
 53 23  1  0  0  0  0
 69 59  1  0  0  0  0
 16  5  1  0  0  0  0
 52 27  2  0  0  0  0
 68 62  1  0  0  0  0
 14  7  1  0  0  0  0
 51 29  2  0  0  0  0
 49 30  2  0  0  0  0
 35 31  2  0  0  0  0
 48 36  2  0  0  0  0
 46 37  2  0  0  0  0
 45 39  2  0  0  0  0
  1 75  1  0  0  0  0
  6 76  1  0  0  0  0
  8 77  1  0  0  0  0
 13 78  1  0  0  0  0
 15 79  1  0  0  0  0
 25 80  1  0  0  0  0
 25 81  1  0  0  0  0
 26 82  1  0  0  0  0
 26 83  1  0  0  0  0
 26 84  1  0  0  0  0
 41 85  1  0  0  0  0
 41 86  1  0  0  0  0
 42 87  1  0  0  0  0
 42 88  1  0  0  0  0
 42 89  1  0  0  0  0
 54 90  1  0  0  0  0
 54 91  1  0  0  0  0
 55 92  1  0  0  0  0
 55 93  1  0  0  0  0
 55 94  1  0  0  0  0
 56 95  1  0  0  0  0
 56 96  1  0  0  0  0
 57 97  1  0  0  0  0
 57 98  1  0  0  0  0
 57 99  1  0  0  0  0
 58100  1  0  0  0  0
 63101  1  0  0  0  0
 65102  1  0  0  0  0
 65103  1  0  0  0  0
 65104  1  0  0  0  0
 66105  1  0  0  0  0
 67106  1  0  0  0  0
M  END
