
  xtb     02012216173D
 energy: -256.492136529453 gnorm: 0.000308592180 xtb: 6.4.1 (unknown)
154169  0     0  0            999 V2000
    2.6407   -3.2647    6.4185 C   0  0  0  0  0  0  0  0  0  0  0  0
    3.9916   -3.0766    6.6047 C   0  0  0  0  0  0  0  0  0  0  0  0
    4.9179   -2.5051    5.6255 C   0  0  0  0  0  0  0  0  0  0  0  0
    4.6822   -2.1744    4.4760 O   0  0  0  0  0  0  0  0  0  0  0  0
    6.2215   -2.3965    6.3073 C   0  0  0  0  0  0  0  0  0  0  0  0
    7.3957   -1.8940    5.8282 C   0  0  0  0  0  0  0  0  0  0  0  0
    8.5276   -1.8734    6.6738 C   0  0  0  0  0  0  0  0  0  0  0  0
    9.7632   -1.3607    6.2345 C   0  0  0  0  0  0  0  0  0  0  0  0
   10.8406   -1.3479    7.0754 C   0  0  0  0  0  0  0  0  0  0  0  0
   12.0161   -0.8576    6.6556 F   0  0  0  0  0  0  0  0  0  0  0  0
   10.7298   -1.8467    8.3881 C   0  0  0  0  0  0  0  0  0  0  0  0
   11.8029   -1.8207    9.1910 F   0  0  0  0  0  0  0  0  0  0  0  0
    9.5437   -2.3516    8.8425 C   0  0  0  0  0  0  0  0  0  0  0  0
    8.4139   -2.3786    8.0008 C   0  0  0  0  0  0  0  0  0  0  0  0
    7.1824   -2.8969    8.4652 C   0  0  0  0  0  0  0  0  0  0  0  0
    6.0977   -2.9063    7.6293 C   0  0  0  0  0  0  0  0  0  0  0  0
    4.7200   -3.3583    7.8237 C   0  0  0  0  0  0  0  0  0  0  0  0
    4.2442   -3.9528    8.9658 C   0  0  0  0  0  0  0  0  0  0  0  0
    5.0268   -4.1944   10.1137 C   0  0  0  0  0  0  0  0  0  0  0  0
    5.6061   -4.4199   11.0794 N   0  0  0  0  0  0  0  0  0  0  0  0
    2.9299   -4.4200    9.1700 C   0  0  0  0  0  0  0  0  0  0  0  0
    1.8863   -4.8315    9.4196 N   0  0  0  0  0  0  0  0  0  0  0  0
    1.8265   -2.9978    5.3152 C   0  0  0  0  0  0  0  0  0  0  0  0
    2.3430   -2.3724    3.7521 S   0  0  0  0  0  0  0  0  0  0  0  0
    0.7224   -2.3796    3.2173 C   0  0  0  0  0  0  0  0  0  0  0  0
    0.0260   -1.9798    2.0386 C   0  0  0  0  0  0  0  0  0  0  0  0
   -1.3564   -2.1590    2.2802 C   0  0  0  0  0  0  0  0  0  0  0  0
   -1.5952   -2.7561    3.6574 C   0  0  0  0  0  0  0  0  0  0  0  0
   -2.2553   -4.1099    3.4646 C   0  0  0  0  0  0  0  0  0  0  0  0
   -1.4997   -5.2678    3.3470 C   0  0  0  0  0  0  0  0  0  0  0  0
   -2.1143   -6.4868    3.1264 C   0  0  0  0  0  0  0  0  0  0  0  0
   -3.4938   -6.5799    3.0045 C   0  0  0  0  0  0  0  0  0  0  0  0
   -4.1621   -7.9105    2.8129 C   0  0  0  0  0  0  0  0  0  0  0  0
   -4.5158   -8.5296    4.1667 C   0  0  0  0  0  0  0  0  0  0  0  0
   -4.2447   -5.4161    3.1119 C   0  0  0  0  0  0  0  0  0  0  0  0
   -3.6360   -4.1961    3.3355 C   0  0  0  0  0  0  0  0  0  0  0  0
   -2.3923   -1.8656    4.5920 C   0  0  0  0  0  0  0  0  0  0  0  0
   -2.8997   -2.4004    5.7704 C   0  0  0  0  0  0  0  0  0  0  0  0
   -3.5940   -1.6048    6.6604 C   0  0  0  0  0  0  0  0  0  0  0  0
   -3.7968   -0.2547    6.4016 C   0  0  0  0  0  0  0  0  0  0  0  0
   -4.5187    0.6153    7.3895 C   0  0  0  0  0  0  0  0  0  0  0  0
   -3.5410    1.1695    8.4278 C   0  0  0  0  0  0  0  0  0  0  0  0
   -3.2721    0.2777    5.2325 C   0  0  0  0  0  0  0  0  0  0  0  0
   -2.5737   -0.5141    4.3383 C   0  0  0  0  0  0  0  0  0  0  0  0
   -0.1828   -2.8390    4.1799 C   0  0  0  0  0  0  0  0  0  0  0  0
    0.4347   -3.1913    5.3567 C   0  0  0  0  0  0  0  0  0  0  0  0
   -2.2873   -1.8091    1.3300 C   0  0  0  0  0  0  0  0  0  0  0  0
   -1.8085   -1.2634    0.1419 C   0  0  0  0  0  0  0  0  0  0  0  0
   -2.5007   -0.7437   -0.9934 C   0  0  0  0  0  0  0  0  0  0  0  0
   -1.6134   -0.2612   -1.9432 C   0  0  0  0  0  0  0  0  0  0  0  0
   -0.1892   -0.4895   -1.4847 C   0  0  0  0  0  0  0  0  0  0  0  0
   -0.4251   -1.1093   -0.1104 C   0  0  0  0  0  0  0  0  0  0  0  0
    0.5049   -1.4672    0.8336 C   0  0  0  0  0  0  0  0  0  0  0  0
    0.4520   -1.5003   -2.4259 C   0  0  0  0  0  0  0  0  0  0  0  0
   -0.0079   -2.8130   -2.4039 C   0  0  0  0  0  0  0  0  0  0  0  0
    0.5037   -3.7571   -3.2720 C   0  0  0  0  0  0  0  0  0  0  0  0
    1.4872   -3.4208   -4.1939 C   0  0  0  0  0  0  0  0  0  0  0  0
    2.0106   -4.4377   -5.1660 C   0  0  0  0  0  0  0  0  0  0  0  0
    1.1455   -4.4660   -6.4278 C   0  0  0  0  0  0  0  0  0  0  0  0
    1.9369   -2.1089   -4.2212 C   0  0  0  0  0  0  0  0  0  0  0  0
    1.4284   -1.1592   -3.3520 C   0  0  0  0  0  0  0  0  0  0  0  0
    0.6003    0.7868   -1.2818 C   0  0  0  0  0  0  0  0  0  0  0  0
   -0.0396    2.0165   -1.2028 C   0  0  0  0  0  0  0  0  0  0  0  0
    0.6808    3.1744   -0.9685 C   0  0  0  0  0  0  0  0  0  0  0  0
    2.0566    3.1366   -0.7937 C   0  0  0  0  0  0  0  0  0  0  0  0
    2.8467    4.3986   -0.6064 C   0  0  0  0  0  0  0  0  0  0  0  0
    3.3266    4.9284   -1.9596 C   0  0  0  0  0  0  0  0  0  0  0  0
    2.6903    1.9015   -0.8416 C   0  0  0  0  0  0  0  0  0  0  0  0
    1.9749    0.7427   -1.0736 C   0  0  0  0  0  0  0  0  0  0  0  0
   -2.2946    0.2970   -3.0316 C   0  0  0  0  0  0  0  0  0  0  0  0
   -3.7047    0.2295   -2.8542 C   0  0  0  0  0  0  0  0  0  0  0  0
   -4.1781   -0.5426   -1.3769 S   0  0  0  0  0  0  0  0  0  0  0  0
   -4.2823    0.8582   -3.9513 C   0  0  0  0  0  0  0  0  0  0  0  0
   -5.8042    1.2991   -4.6128 S   0  0  0  0  0  0  0  0  0  0  0  0
   -4.9954    2.0995   -5.9761 C   0  0  0  0  0  0  0  0  0  0  0  0
   -3.6153    1.9872   -5.9071 C   0  0  0  0  0  0  0  0  0  0  0  0
   -3.2118    1.2938   -4.7739 C   0  0  0  0  0  0  0  0  0  0  0  0
   -2.0162    0.9323   -4.2107 N   0  0  0  0  0  0  0  0  0  0  0  0
   -0.7284    1.2082   -4.7965 C   0  0  0  0  0  0  0  0  0  0  0  0
   -0.3323    2.6751   -4.6518 C   0  0  0  0  0  0  0  0  0  0  0  0
   -5.8356    2.7430   -6.9019 C   0  0  0  0  0  0  0  0  0  0  0  0
   -5.5486    3.5448   -7.9696 C   0  0  0  0  0  0  0  0  0  0  0  0
   -6.8945    4.2069   -8.9035 S   0  0  0  0  0  0  0  0  0  0  0  0
   -5.8095    5.1089   -9.9236 C   0  0  0  0  0  0  0  0  0  0  0  0
   -6.2472    5.8940  -10.9601 C   0  0  0  0  0  0  0  0  0  0  0  0
   -5.4086    6.6022  -11.8386 C   0  0  0  0  0  0  0  0  0  0  0  0
   -4.7889    7.1965  -12.6017 N   0  0  0  0  0  0  0  0  0  0  0  0
   -7.6271    6.0185  -11.2136 C   0  0  0  0  0  0  0  0  0  0  0  0
   -8.7506    6.1262  -11.4193 N   0  0  0  0  0  0  0  0  0  0  0  0
   -4.5172    4.9059   -9.5561 N   0  0  0  0  0  0  0  0  0  0  0  0
   -3.4254    5.5839  -10.1805 C   0  0  0  0  0  0  0  0  0  0  0  0
   -2.6624    4.9251  -11.1304 C   0  0  0  0  0  0  0  0  0  0  0  0
   -1.6076    5.5916  -11.7271 C   0  0  0  0  0  0  0  0  0  0  0  0
   -1.3193    6.8978  -11.3712 C   0  0  0  0  0  0  0  0  0  0  0  0
   -2.0766    7.5419  -10.4076 C   0  0  0  0  0  0  0  0  0  0  0  0
   -3.1326    6.8857   -9.8033 C   0  0  0  0  0  0  0  0  0  0  0  0
   -4.2840    4.0383   -8.4948 C   0  0  0  0  0  0  0  0  0  0  0  0
   -3.1578    3.7920   -8.1132 O   0  0  0  0  0  0  0  0  0  0  0  0
    2.0886   -3.6609    7.2623 H   0  0  0  0  0  0  0  0  0  0  0  0
    7.4595   -1.5144    4.8198 H   0  0  0  0  0  0  0  0  0  0  0  0
    9.8639   -0.9747    5.2322 H   0  0  0  0  0  0  0  0  0  0  0  0
    9.4761   -2.7298    9.8506 H   0  0  0  0  0  0  0  0  0  0  0  0
    7.1314   -3.2693    9.4753 H   0  0  0  0  0  0  0  0  0  0  0  0
   -0.4237   -5.2216    3.4312 H   0  0  0  0  0  0  0  0  0  0  0  0
   -1.5101   -7.3792    3.0447 H   0  0  0  0  0  0  0  0  0  0  0  0
   -3.4958   -8.5853    2.2719 H   0  0  0  0  0  0  0  0  0  0  0  0
   -5.0739   -7.7858    2.2253 H   0  0  0  0  0  0  0  0  0  0  0  0
   -3.6176   -8.6727    4.7633 H   0  0  0  0  0  0  0  0  0  0  0  0
   -4.9993   -9.4940    4.0296 H   0  0  0  0  0  0  0  0  0  0  0  0
   -5.1907   -7.8772    4.7163 H   0  0  0  0  0  0  0  0  0  0  0  0
   -5.3201   -5.4651    3.0173 H   0  0  0  0  0  0  0  0  0  0  0  0
   -4.2398   -3.3046    3.4241 H   0  0  0  0  0  0  0  0  0  0  0  0
   -2.7588   -3.4501    5.9841 H   0  0  0  0  0  0  0  0  0  0  0  0
   -3.9873   -2.0385    7.5687 H   0  0  0  0  0  0  0  0  0  0  0  0
   -5.2916    0.0354    7.8978 H   0  0  0  0  0  0  0  0  0  0  0  0
   -5.0004    1.4457    6.8694 H   0  0  0  0  0  0  0  0  0  0  0  0
   -2.7690    1.7622    7.9417 H   0  0  0  0  0  0  0  0  0  0  0  0
   -4.0632    1.7990    9.1444 H   0  0  0  0  0  0  0  0  0  0  0  0
   -3.0590    0.3564    8.9658 H   0  0  0  0  0  0  0  0  0  0  0  0
   -3.4118    1.3270    5.0146 H   0  0  0  0  0  0  0  0  0  0  0  0
   -2.1718   -0.0736    3.4374 H   0  0  0  0  0  0  0  0  0  0  0  0
   -0.0602   -3.5672    6.2344 H   0  0  0  0  0  0  0  0  0  0  0  0
   -3.3471   -1.9286    1.4933 H   0  0  0  0  0  0  0  0  0  0  0  0
    1.5652   -1.3516    0.6769 H   0  0  0  0  0  0  0  0  0  0  0  0
   -0.7730   -3.1003   -1.6971 H   0  0  0  0  0  0  0  0  0  0  0  0
    0.1348   -4.7718   -3.2312 H   0  0  0  0  0  0  0  0  0  0  0  0
    3.0388   -4.1937   -5.4401 H   0  0  0  0  0  0  0  0  0  0  0  0
    2.0049   -5.4269   -4.7043 H   0  0  0  0  0  0  0  0  0  0  0  0
    1.1474   -3.4912   -6.9105 H   0  0  0  0  0  0  0  0  0  0  0  0
    0.1183   -4.7214   -6.1770 H   0  0  0  0  0  0  0  0  0  0  0  0
    1.5247   -5.2029   -7.1317 H   0  0  0  0  0  0  0  0  0  0  0  0
    2.7002   -1.8206   -4.9300 H   0  0  0  0  0  0  0  0  0  0  0  0
    1.8174   -0.1519   -3.3942 H   0  0  0  0  0  0  0  0  0  0  0  0
   -1.1123    2.0752   -1.3185 H   0  0  0  0  0  0  0  0  0  0  0  0
    0.1621    4.1215   -0.9173 H   0  0  0  0  0  0  0  0  0  0  0  0
    2.2278    5.1562   -0.1219 H   0  0  0  0  0  0  0  0  0  0  0  0
    3.7112    4.2035    0.0309 H   0  0  0  0  0  0  0  0  0  0  0  0
    3.9562    4.1911   -2.4529 H   0  0  0  0  0  0  0  0  0  0  0  0
    3.9005    5.8424   -1.8283 H   0  0  0  0  0  0  0  0  0  0  0  0
    2.4778    5.1409   -2.6060 H   0  0  0  0  0  0  0  0  0  0  0  0
    3.7586    1.8445   -0.6895 H   0  0  0  0  0  0  0  0  0  0  0  0
    2.4947   -0.2035   -1.1004 H   0  0  0  0  0  0  0  0  0  0  0  0
   -2.9676    2.4093   -6.6514 H   0  0  0  0  0  0  0  0  0  0  0  0
   -0.7756    0.9438   -5.8579 H   0  0  0  0  0  0  0  0  0  0  0  0
    0.0034    0.5644   -4.3090 H   0  0  0  0  0  0  0  0  0  0  0  0
   -0.2452    2.9439   -3.6021 H   0  0  0  0  0  0  0  0  0  0  0  0
   -1.0720    3.3173   -5.1231 H   0  0  0  0  0  0  0  0  0  0  0  0
    0.6272    2.8415   -5.1333 H   0  0  0  0  0  0  0  0  0  0  0  0
   -6.8936    2.5918   -6.7166 H   0  0  0  0  0  0  0  0  0  0  0  0
   -2.9003    3.9071  -11.4003 H   0  0  0  0  0  0  0  0  0  0  0  0
   -1.0145    5.0894  -12.4759 H   0  0  0  0  0  0  0  0  0  0  0  0
   -0.5010    7.4166  -11.8464 H   0  0  0  0  0  0  0  0  0  0  0  0
   -1.8491    8.5587  -10.1269 H   0  0  0  0  0  0  0  0  0  0  0  0
   -3.7335    7.3774   -9.0523 H   0  0  0  0  0  0  0  0  0  0  0  0
  1  2  2  0  0  0  0
  2  3  1  0  0  0  0
  3  4  2  0  0  0  0
  3  5  1  0  0  0  0
  5  6  2  0  0  0  0
  6  7  1  0  0  0  0
  7  8  2  0  0  0  0
  8  9  1  0  0  0  0
  9 10  1  0  0  0  0
  9 11  2  0  0  0  0
 11 12  1  0  0  0  0
 11 13  1  0  0  0  0
 13 14  2  0  0  0  0
 14 15  1  0  0  0  0
 15 16  2  0  0  0  0
 16 17  1  0  0  0  0
 17 18  2  0  0  0  0
 18 19  1  0  0  0  0
 19 20  3  0  0  0  0
 18 21  1  0  0  0  0
 21 22  3  0  0  0  0
  1 23  1  0  0  0  0
 23 24  1  0  0  0  0
 24 25  1  0  0  0  0
 25 26  1  0  0  0  0
 26 27  2  0  0  0  0
 27 28  1  0  0  0  0
 28 29  1  0  0  0  0
 29 30  2  0  0  0  0
 30 31  1  0  0  0  0
 31 32  2  0  0  0  0
 32 33  1  0  0  0  0
 33 34  1  0  0  0  0
 32 35  1  0  0  0  0
 35 36  2  0  0  0  0
 28 37  1  0  0  0  0
 37 38  2  0  0  0  0
 38 39  1  0  0  0  0
 39 40  2  0  0  0  0
 40 41  1  0  0  0  0
 41 42  1  0  0  0  0
 40 43  1  0  0  0  0
 43 44  2  0  0  0  0
 28 45  1  0  0  0  0
 45 46  1  0  0  0  0
 27 47  1  0  0  0  0
 47 48  2  0  0  0  0
 48 49  1  0  0  0  0
 49 50  2  0  0  0  0
 50 51  1  0  0  0  0
 51 52  1  0  0  0  0
 52 53  2  0  0  0  0
 51 54  1  0  0  0  0
 54 55  2  0  0  0  0
 55 56  1  0  0  0  0
 56 57  2  0  0  0  0
 57 58  1  0  0  0  0
 58 59  1  0  0  0  0
 57 60  1  0  0  0  0
 60 61  2  0  0  0  0
 51 62  1  0  0  0  0
 62 63  2  0  0  0  0
 63 64  1  0  0  0  0
 64 65  2  0  0  0  0
 65 66  1  0  0  0  0
 66 67  1  0  0  0  0
 65 68  1  0  0  0  0
 68 69  2  0  0  0  0
 50 70  1  0  0  0  0
 70 71  2  0  0  0  0
 71 72  1  0  0  0  0
 71 73  1  0  0  0  0
 73 74  1  0  0  0  0
 74 75  1  0  0  0  0
 75 76  2  0  0  0  0
 76 77  1  0  0  0  0
 77 78  1  0  0  0  0
 78 79  1  0  0  0  0
 79 80  1  0  0  0  0
 75 81  1  0  0  0  0
 81 82  2  0  0  0  0
 82 83  1  0  0  0  0
 83 84  1  0  0  0  0
 84 85  2  0  0  0  0
 85 86  1  0  0  0  0
 86 87  3  0  0  0  0
 85 88  1  0  0  0  0
 88 89  3  0  0  0  0
 84 90  1  0  0  0  0
 90 91  1  0  0  0  0
 91 92  2  0  0  0  0
 92 93  1  0  0  0  0
 93 94  2  0  0  0  0
 94 95  1  0  0  0  0
 95 96  2  0  0  0  0
 90 97  1  0  0  0  0
 97 98  2  0  0  0  0
 17  2  1  0  0  0  0
 46 23  2  0  0  0  0
 52 48  1  0  0  0  0
 61 54  1  0  0  0  0
 69 62  1  0  0  0  0
 78 70  1  0  0  0  0
 97 82  1  0  0  0  0
 16  5  1  0  0  0  0
 45 25  2  0  0  0  0
 72 49  1  0  0  0  0
 77 73  2  0  0  0  0
 96 91  1  0  0  0  0
 14  7  1  0  0  0  0
 53 26  1  0  0  0  0
 36 29  1  0  0  0  0
 44 37  1  0  0  0  0
  1 99  1  0  0  0  0
  6100  1  0  0  0  0
  8101  1  0  0  0  0
 13102  1  0  0  0  0
 15103  1  0  0  0  0
 30104  1  0  0  0  0
 31105  1  0  0  0  0
 33106  1  0  0  0  0
 33107  1  0  0  0  0
 34108  1  0  0  0  0
 34109  1  0  0  0  0
 34110  1  0  0  0  0
 35111  1  0  0  0  0
 36112  1  0  0  0  0
 38113  1  0  0  0  0
 39114  1  0  0  0  0
 41115  1  0  0  0  0
 41116  1  0  0  0  0
 42117  1  0  0  0  0
 42118  1  0  0  0  0
 42119  1  0  0  0  0
 43120  1  0  0  0  0
 44121  1  0  0  0  0
 46122  1  0  0  0  0
 47123  1  0  0  0  0
 53124  1  0  0  0  0
 55125  1  0  0  0  0
 56126  1  0  0  0  0
 58127  1  0  0  0  0
 58128  1  0  0  0  0
 59129  1  0  0  0  0
 59130  1  0  0  0  0
 59131  1  0  0  0  0
 60132  1  0  0  0  0
 61133  1  0  0  0  0
 63134  1  0  0  0  0
 64135  1  0  0  0  0
 66136  1  0  0  0  0
 66137  1  0  0  0  0
 67138  1  0  0  0  0
 67139  1  0  0  0  0
 67140  1  0  0  0  0
 68141  1  0  0  0  0
 69142  1  0  0  0  0
 76143  1  0  0  0  0
 79144  1  0  0  0  0
 79145  1  0  0  0  0
 80146  1  0  0  0  0
 80147  1  0  0  0  0
 80148  1  0  0  0  0
 81149  1  0  0  0  0
 92150  1  0  0  0  0
 93151  1  0  0  0  0
 94152  1  0  0  0  0
 95153  1  0  0  0  0
 96154  1  0  0  0  0
M  END
