109

C          3.64380        0.03490        7.08290
C          4.60250        1.01510        6.94980
C          4.92300        1.74490        5.72460
O          4.38750        1.64490        4.63240
C          6.03940        2.64740        6.06280
C          6.70630        3.52250        5.25640
C          7.75810        4.29230        5.80240
C          8.48210        5.20890        5.01620
C          9.49500        5.94070        5.57020
F         10.18340        6.81270        4.81930
C          9.82670        5.78850        6.93070
F         10.82400        6.51990        7.44710
C          9.14220        4.90620        7.71890
C          8.09320        4.13640        7.17810
C          7.38160        3.22030        7.98740
C          6.36670        2.48360        7.43760
C          5.47240        1.47760        8.00970
C          5.47690        1.08050        9.32450
C          6.35730        1.59190       10.29990
N          7.04260        1.96470       11.14260
C          4.61750        0.12440        9.90240
N          3.95390       -0.63780       10.45010
C          2.74100       -0.49660        6.16270
C          1.83540       -1.52540        6.49000
C          1.74880       -2.22450        7.80690
C          2.80290       -3.33080        7.90620
C          1.04650       -1.86750        5.40370
S         -0.22280       -3.06150        5.20200
C         -0.39750       -2.54800        3.56090
C         -1.13130       -2.89120        2.42000
C         -2.02650       -3.95740        2.17930
C         -2.51270       -4.16360        0.84670
N         -3.28510       -5.23380        0.75040
S         -3.39670       -5.92000        2.21200
N         -2.46050       -4.87830        3.02490
C         -2.18760       -3.21850       -0.15220
C         -2.63240       -3.09180       -1.47470
S         -3.63010       -3.93680       -2.60620
C         -3.37460       -2.63350       -3.75270
C         -3.84800       -2.41660       -5.04050
C         -4.70340       -3.40550       -5.76280
C         -3.85060       -4.31790       -6.64860
C         -3.37550       -1.20010       -5.56080
S         -2.34410       -0.34080       -4.41600
C         -2.54850       -1.60740       -3.26490
C         -2.12020       -1.88420       -1.96290
N         -1.34350       -1.27960       -1.00870
C         -1.36260       -2.08660        0.11760
C         -0.72440       -1.99860        1.38240
N          0.27130       -1.18280        1.87900
C          0.46640       -1.50570        3.19600
C          1.30690       -1.11680        4.24080
S          2.57400        0.02560        4.48380
C          1.24580       -0.36540        1.19200
C          1.04280        1.12500        1.46070
C         -1.12630        0.14760       -1.11980
C         -2.26890        0.92210       -0.46630
C         -3.70470       -0.74370       -6.84280
C         -3.34680        0.39930       -7.51150
C         -2.48770        1.47300       -6.99930
O         -1.94750        1.53420       -5.90660
C         -2.40880        2.47730       -8.07000
C         -1.72960        3.67770       -8.09150
C         -1.79960        4.48230       -9.22430
C         -1.06920        5.78640       -9.26030
C         -2.55870        4.06220      -10.32700
C         -2.64340        4.91750      -11.55060
C         -3.24040        2.84810      -10.29650
C         -3.17110        2.04780       -9.16920
C         -3.76950        0.75340       -8.85330
C         -4.58000        0.03150       -9.69260
C         -4.94800        0.45120      -10.98800
N         -5.28660        0.72970      -12.04930
C         -5.16590       -1.21820       -9.40600
N         -5.67920       -2.23540       -9.25260
H          3.56610       -0.41350        8.06360
H          6.43640        3.62630        4.21640
H          8.24030        5.33720        3.97270
H          9.40900        4.80170        8.75900
H          7.66230        3.12620        9.02370
H          0.75600       -2.67100        7.89050
H          1.87960       -1.52460        8.63350
H          2.71790       -3.83370        8.86520
H          3.80530       -2.91760        7.82170
H          2.66010       -4.06170        7.11360
H         -5.45330       -2.90410       -6.37630
H         -5.22160       -4.01440       -5.01910
H         -3.32190       -3.73860       -7.40190
H         -4.48680       -5.03870       -7.15390
H         -3.12110       -4.85510       -6.04680
H          1.21700       -0.60520        0.12810
H          2.23520       -0.65090        1.56590
H          0.01790        1.43040        1.26770
H          1.71110        1.70580        0.83120
H          1.27610        1.34880        2.49800
H         -0.17780        0.43820       -0.68140
H         -1.09050        0.37760       -2.18760
H         -2.34010        0.68110        0.59280
H         -3.21440        0.67010       -0.94080
H         -2.10150        1.98990       -0.57620
H         -4.35290       -1.42180       -7.38080
H         -1.15210        3.98100       -7.23080
H         -0.52910        5.95110       -8.33190
H         -0.35800        5.80490      -10.08540
H         -1.76560        6.61120       -9.40890
H         -3.27490        4.45320      -12.30290
H         -1.65300        5.07500      -11.97650
H         -3.05510        5.89610      -11.30580
H         -3.81590        2.54960      -11.15780
