100

C         -5.60000        0.90210        3.29510
C         -6.40930        1.22150        2.22720
C         -6.02630        1.18780        0.81660
O         -4.95360        0.85420        0.33920
C         -7.20300        1.64520        0.05700
C         -7.33950        1.80090       -1.29130
C         -8.56790        2.27360       -1.80460
C         -8.76340        2.45790       -3.18670
C         -9.96050        2.92150       -3.65600
F        -10.14450        3.09760       -4.97210
C        -11.01100        3.21940       -2.76570
F        -12.17320        3.67360       -3.25390
C        -10.85120        3.04920       -1.41880
C         -9.62930        2.57320       -0.90280
C         -9.45590        2.39670        0.49010
C         -8.25670        1.93810        0.96650
C         -7.78350        1.66840        2.32430
C         -8.53490        1.82680        3.46240
C         -8.10410        1.57090        4.77990
N         -7.83020        1.38580        5.88080
C         -9.87180        2.27590        3.46780
N        -10.95930        2.63670        3.54340
C         -4.26220        0.50810        3.34270
C         -3.57790        0.25410        4.54820
C         -4.18080        0.28070        5.91410
C         -4.90150       -1.03610        6.21690
C         -2.25060       -0.07380        4.31620
S         -0.91290       -0.43110        5.39530
C          0.12450       -0.56480        4.01710
C          1.48520       -0.72640        3.72590
C          2.62900       -0.75580        4.55730
C          3.93020       -0.65510        3.95690
N          4.89800       -0.60030        4.85780
S          4.23530       -0.68070        6.33190
N          2.68490       -0.77940        5.87910
C          4.03970       -0.66700        2.54760
C          5.14800       -0.62600        1.68610
S          6.86780       -0.46550        1.75990
C          6.93500       -0.59710        0.01560
C          7.99060       -0.57480       -0.89840
C          9.41650       -0.38150       -0.50140
C          9.74960        1.11160       -0.42730
C          7.53550       -0.73830       -2.20460
S          5.77690       -0.86760       -2.28360
C          5.67120       -0.75650       -0.57070
C          4.65550       -0.77490        0.38270
N          3.29030       -0.90350        0.39900
C          2.88880       -0.79880        1.72030
C          1.60520       -0.68490        2.30530
N          0.35900       -0.46000        1.76270
C         -0.53740       -0.38070        2.79380
C         -1.89180       -0.08440        2.95550
S         -3.21780        0.31360        1.93270
C         -0.01680       -0.03180        0.43330
C         -0.86740       -1.07640       -0.28940
C          2.65430       -1.64870       -0.67000
C          3.18790       -3.07960       -0.74300
C          8.31280       -0.68930       -3.37810
C          7.98040       -1.06910       -4.64720
C          8.71110       -0.45990       -5.79580
O          9.73280        0.18380       -5.74260
C          7.87400       -0.77080       -6.96430
C          6.78720       -1.61760       -6.56620
C          5.96110       -1.95180       -7.59100
S          6.48340       -1.23140       -9.07220
C          7.85410       -0.47340       -8.29270
Cl         8.94680        0.47950       -9.17040
C          6.92310       -1.91740       -5.15240
C          6.33220       -2.98700       -4.52770
C          6.69820       -3.46000       -3.25320
N          7.00060       -3.90400       -2.23800
C          5.33970       -3.75700       -5.16290
N          4.50520       -4.37550       -5.65190
H         -6.05810        0.97860        4.27160
H         -6.52150        1.56960       -1.95650
H         -7.96850        2.23450       -3.88090
H        -11.66610        3.28220       -0.75140
H        -10.28010        2.63320        1.14290
H         -4.88360        1.10870        6.01770
H         -3.37650        0.42180        6.63880
H         -5.71160       -1.20360        5.51110
H         -5.32030       -1.00290        7.21840
H         -4.20710       -1.87070        6.15470
H          9.56640       -0.83070        0.48210
H         10.07890       -0.87640       -1.21130
H          9.10760        1.60630        0.29770
H          9.60810        1.58620       -1.39570
H         10.78390        1.24610       -0.12320
H         -0.60970        0.88370        0.53590
H          0.88580        0.21780       -0.12520
H         -0.41470       -2.06490       -0.24730
H         -1.85160       -1.13780        0.16600
H         -0.99210       -0.79050       -1.32970
H          1.58520       -1.68910       -0.49670
H          2.85180       -1.12880       -1.61270
H          4.25320       -3.09840       -0.95710
H          2.67260       -3.61800       -1.53380
H          3.01600       -3.59420        0.20010
H          9.27330       -0.19130       -3.29110
H          5.07850       -2.56000       -7.58260
