103

C         -4.11620       -2.98330        4.93420
C         -4.02600       -4.31240        4.58800
C         -3.22670       -4.86570        3.49500
O         -2.54540       -4.25750        2.68590
C         -3.39620       -6.32880        3.56000
C         -2.83400       -7.29090        2.77260
C         -3.12920       -8.64800        3.03280
C         -2.57020       -9.68270        2.25840
C         -2.86800      -10.98750        2.53610
F         -2.33200      -11.97110        1.79950
C         -3.73730      -11.31360        3.59570
F         -4.01130      -12.60130        3.84500
C         -4.29640      -10.33100        4.36400
C         -4.00770       -8.97620        4.10530
C         -4.57720       -7.95460        4.90040
C         -4.27460       -6.64600        4.63310
C         -4.69020       -5.39990        5.27580
C         -5.56130       -5.31490        6.33340
C         -5.98370       -4.12720        6.96450
N         -6.38440       -3.20760        7.52570
C         -6.17160       -6.42920        6.94590
N         -6.70430       -7.28950        7.48870
C         -3.52560       -1.84780        4.37740
C         -3.72730       -0.55280        4.89300
C         -4.62430       -0.19720        6.03280
C         -6.07860       -0.08200        5.56670
C         -3.02030        0.39470        4.16820
S         -2.87000        2.13500        4.33310
C         -1.80110        2.13740        2.97460
C         -1.08160        3.05170        2.19450
C         -1.04810        4.46390        2.21810
C         -0.32080        5.15610        1.19520
N         -0.42290        6.47130        1.30350
S         -1.35150        6.80980        2.58530
N         -1.65940        5.29080        3.05140
C          0.44070        4.40350        0.27360
C          1.34090        4.80850       -0.72030
S          1.91870        6.26610       -1.44490
C          3.00620        5.31420       -2.42960
C          3.93820        5.66540       -3.40830
C          4.21110        7.07700       -3.80970
C          5.27570        7.69560       -2.89930
C          4.56640        4.54260       -3.93910
S          4.01120        3.05230       -3.17380
C          2.91190        3.93590       -2.18530
C          1.94650        3.64730       -1.21950
N          1.43310        2.54640       -0.58980
C          0.48330        2.97820        0.31590
C         -0.38830        2.29480        1.20360
N         -0.71650        0.95810        1.36180
C         -1.57380        0.86790        2.42890
C         -2.27230       -0.13760        3.10160
S         -2.44440       -1.84720        2.98100
C         -0.74940       -0.10250        0.37530
C         -1.78610        0.19530       -0.70560
C          2.10050        1.27160       -0.72700
C          1.72840        0.56310       -2.02850
C          5.60320        4.53470       -4.89310
C          6.09140        3.49360       -5.62820
C          7.46970        3.56500       -6.17730
O          8.17300        4.54680       -6.25190
C          7.80740        2.17330       -6.54810
C          9.00850        1.66170       -7.00170
C          9.09360        0.30260       -7.26100
C          7.97830       -0.49700       -7.05820
F          8.08430       -1.81330       -7.30110
C          6.75760       -0.00670       -6.61420
C          6.68090        1.35100       -6.35850
C          5.55850        2.18660       -5.93230
C          4.23360        1.86810       -6.08310
C          3.76190        0.58700       -6.42810
N          3.32050       -0.44510       -6.66870
C          3.19980        2.82320       -5.98580
N          2.34050        3.58440       -5.96920
H         -4.74020       -2.76300        5.78940
H         -2.17060       -7.02160        1.96480
H         -1.90280       -9.45010        1.44340
H         -4.96010      -10.59770        5.17160
H         -5.23630       -8.23760        5.70470
H         -4.30120        0.76600        6.43270
H         -4.55880       -0.93800        6.83090
H         -6.16880        0.67540        4.79160
H         -6.43330       -1.03040        5.17050
H         -6.71080        0.19690        6.40450
H          4.53800        7.11940       -4.84850
H          3.28520        7.64770       -3.71600
H          4.94220        7.68170       -1.86430
H          5.45870        8.72620       -3.19050
H          6.21040        7.14380       -2.96950
H          0.22750       -0.25890       -0.07090
H         -1.02430       -1.01640        0.90750
H         -1.81010       -0.61540       -1.42840
H         -1.54890        1.12360       -1.22200
H         -2.77460        0.29270       -0.26280
H          1.88690        0.66400        0.15310
H          3.17900        1.46740       -0.73410
H          2.21440       -0.40760       -2.07130
H          2.06290        1.14920       -2.88050
H          0.65500        0.42520       -2.11820
H          6.15860        5.46160       -4.99500
H          9.85490        2.31420       -7.14800
H         10.00750       -0.14690       -7.61560
H          5.92700       -0.67910       -6.47460
