116

C          4.59220       -5.47760       -5.75410
C          4.99280       -6.69700       -6.24600
C          4.65810       -8.00470       -5.65300
O          3.94950       -8.22730       -4.69100
C          5.47160       -8.99570       -6.38850
C          5.50850      -10.35040       -6.23280
C          6.37020      -11.11250       -7.05390
C          6.43800      -12.51460       -6.94440
C          7.28070      -13.22770       -7.75040
F          7.34340      -14.56280       -7.64480
C          8.09030      -12.57170       -8.69850
F          8.90650      -13.29680       -9.47610
C          8.04670      -11.21190       -8.82810
C          7.18740      -10.44800       -8.01310
C          7.13190       -9.04120       -8.14510
C          6.28100       -8.32460       -7.34630
C          5.99320       -6.89490       -7.27180
C          6.51650       -5.93220       -8.09820
C          6.14260       -4.57250       -8.09320
N          5.86850       -3.45930       -8.16620
C          7.48670       -6.18560       -9.08900
N          8.28270       -6.32630       -9.90450
C          3.47710       -5.17890       -4.95600
C          2.20280       -5.75000       -4.87950
C          1.75520       -6.88540       -5.73220
C          0.30030       -6.79770       -6.17920
C          1.38740       -5.03480       -3.99320
S         -0.27070       -5.23850       -3.46040
C         -0.11850       -3.82480       -2.48340
C         -0.91710       -3.00250       -1.67640
C         -2.30330       -3.04260       -1.40860
C         -2.90370       -1.94210       -0.71360
N         -4.21600       -2.07280       -0.59780
S         -4.65640       -3.46460       -1.29630
N         -3.19040       -3.95280       -1.77840
C         -2.07020       -0.92100       -0.20720
C         -2.36370        0.20050        0.58060
S         -3.74210        1.01250        1.23040
C         -2.67360        2.16930        1.99150
C         -2.92710        3.31450        2.76120
C         -4.31240        3.83670        2.96600
C         -5.17780        2.87490        3.78030
C         -1.74230        3.94340        3.12000
S         -0.32530        3.12150        2.46370
C         -1.31890        1.91520        1.73980
C         -1.14270        0.79230        0.92370
N         -0.11080        0.09160        0.35720
C         -0.65490       -0.94990       -0.37250
C         -0.08960       -1.93310       -1.22670
N          1.17520       -2.09810       -1.77070
C          1.14670       -3.23150       -2.54390
C          2.00470       -3.91650       -3.40660
S          3.61710       -3.71930       -3.97030
C          2.18380       -1.10080       -2.05990
C          1.69430       -0.12630       -3.12880
C          1.23930        0.28480        0.83830
C          1.90190        1.52220        0.23480
C         -1.49790        5.18960        3.74640
C         -2.20700        5.75890        4.76310
C         -3.04160        5.00940        5.73320
O         -3.20190        3.80840        5.78950
C         -3.50040        6.00600        6.71820
C         -4.34630        5.78070        7.80250
C         -4.60040        6.90110        8.55630
C         -4.03560        8.15130        8.26840
C         -3.19040        8.38520        7.21060
C         -2.93360        7.26150        6.41800
C         -2.11960        7.13310        5.21290
C         -1.46250        8.15370        4.57420
C         -1.41320        9.48570        5.03410
N         -1.32680       10.58570        5.35230
C         -0.75790        8.02630        3.35900
N         -0.18500        8.01050        2.36340
C         -4.72130        8.81930        9.43410
C         -5.95060        9.69070        9.10060
C         -6.68150        9.80590       10.41880
C         -7.22230        8.62380       10.68490
C         -6.86540        7.68940        9.55140
C         -6.85870        8.68360        8.38300
C         -5.35690        7.42730        9.75040
H          5.22590       -4.62480       -5.97200
H          4.88530      -10.83580       -5.49720
H          5.82490      -13.03200       -6.22320
H          8.67230      -10.72500       -9.55980
H          7.76680       -8.56680       -8.87570
H          2.40660       -6.93500       -6.60950
H          1.91210       -7.81370       -5.17110
H          0.09090       -5.82820       -6.62570
H         -0.37970       -6.95200       -5.34650
H          0.10490       -7.56770       -6.92150
H         -4.27550        4.81040        3.45540
H         -4.76470        3.96800        1.97740
H         -4.72500        2.70030        4.75190
H         -5.28150        1.92400        3.26450
H         -6.16650        3.30320        3.92410
H          3.06130       -1.63890       -2.42700
H          2.47550       -0.56580       -1.16180
H          1.45130       -0.66230       -4.04330
H          2.46990        0.60110       -3.35160
H          0.80200        0.39740       -2.79120
H          1.18520        0.41610        1.92510
H          1.81120       -0.62490        0.64980
H          2.93980        1.57320        0.55180
H          1.39670        2.42010        0.57960
H          1.86310        1.50960       -0.85040
H         -0.63640        5.72330        3.36140
H         -4.75020        4.79910        7.99530
H         -2.75650        9.34990        7.00800
H         -4.06520        9.27280       10.17420
H         -5.72350       10.61890        8.58360
H         -6.68340       10.69030       11.02840
H         -7.76620        8.32340       11.56120
H         -7.47310        6.79480        9.44500
H         -7.84850        9.09120        8.18420
H         -6.43800        8.28440        7.46180
H         -5.13000        6.95420       10.70400
