
  xtb     02012222323D
 energy: -200.007421368520 gnorm: 0.000524155504 xtb: 6.4.1 (unknown)
103115  0     0  0            999 V2000
   -4.3829    5.3082    1.4705 C   0  0  0  0  0  0  0  0  0  0  0  0
   -5.2694    4.6122    2.2603 C   0  0  0  0  0  0  0  0  0  0  0  0
   -5.1516    3.2092    2.6570 C   0  0  0  0  0  0  0  0  0  0  0  0
   -4.2607    2.4254    2.3731 O   0  0  0  0  0  0  0  0  0  0  0  0
   -6.3385    2.9127    3.4798 C   0  0  0  0  0  0  0  0  0  0  0  0
   -6.6918    1.7392    4.0794 C   0  0  0  0  0  0  0  0  0  0  0  0
   -7.8920    1.6838    4.8230 C   0  0  0  0  0  0  0  0  0  0  0  0
   -8.3062    0.4993    5.4618 C   0  0  0  0  0  0  0  0  0  0  0  0
   -9.4733    0.4732    6.1728 C   0  0  0  0  0  0  0  0  0  0  0  0
   -9.8658   -0.6554    6.7802 F   0  0  0  0  0  0  0  0  0  0  0  0
  -10.2750    1.6272    6.2755 C   0  0  0  0  0  0  0  0  0  0  0  0
  -11.4146    1.5720    6.9779 F   0  0  0  0  0  0  0  0  0  0  0  0
   -9.8986    2.7919    5.6671 C   0  0  0  0  0  0  0  0  0  0  0  0
   -8.7008    2.8519    4.9272 C   0  0  0  0  0  0  0  0  0  0  0  0
   -8.3053    4.0535    4.2948 C   0  0  0  0  0  0  0  0  0  0  0  0
   -7.1381    4.0853    3.5792 C   0  0  0  0  0  0  0  0  0  0  0  0
   -6.4850    5.1568    2.8283 C   0  0  0  0  0  0  0  0  0  0  0  0
   -6.9687    6.4356    2.7033 C   0  0  0  0  0  0  0  0  0  0  0  0
   -8.1693    6.8860    3.2907 C   0  0  0  0  0  0  0  0  0  0  0  0
   -9.1339    7.3165    3.7409 N   0  0  0  0  0  0  0  0  0  0  0  0
   -6.3595    7.4843    1.9848 C   0  0  0  0  0  0  0  0  0  0  0  0
   -5.9292    8.3901    1.4230 N   0  0  0  0  0  0  0  0  0  0  0  0
   -3.1991    4.9100    0.8471 C   0  0  0  0  0  0  0  0  0  0  0  0
   -2.4254    5.7833    0.0577 C   0  0  0  0  0  0  0  0  0  0  0  0
   -2.7020    7.2329   -0.1703 C   0  0  0  0  0  0  0  0  0  0  0  0
   -2.1724    8.0767    0.9929 C   0  0  0  0  0  0  0  0  0  0  0  0
   -1.3103    5.1409   -0.4583 C   0  0  0  0  0  0  0  0  0  0  0  0
   -0.0097    5.6891   -1.4995 S   0  0  0  0  0  0  0  0  0  0  0  0
    0.6640    4.0981   -1.4439 C   0  0  0  0  0  0  0  0  0  0  0  0
    1.7706    3.3990   -1.9482 C   0  0  0  0  0  0  0  0  0  0  0  0
    2.9216    3.8010   -2.6662 C   0  0  0  0  0  0  0  0  0  0  0  0
    3.9684    2.8434   -2.9065 C   0  0  0  0  0  0  0  0  0  0  0  0
    5.0112    3.3816   -3.5174 N   0  0  0  0  0  0  0  0  0  0  0  0
    4.7057    4.9495   -3.7780 S   0  0  0  0  0  0  0  0  0  0  0  0
    3.2298    5.0057   -3.1178 N   0  0  0  0  0  0  0  0  0  0  0  0
    3.7577    1.4889   -2.5562 C   0  0  0  0  0  0  0  0  0  0  0  0
    4.4918    0.3163   -2.7870 C   0  0  0  0  0  0  0  0  0  0  0  0
    6.0212   -0.1593   -3.4374 S   0  0  0  0  0  0  0  0  0  0  0  0
    5.5906   -1.8343   -3.1439 C   0  0  0  0  0  0  0  0  0  0  0  0
    6.2610   -3.0247   -3.3763 C   0  0  0  0  0  0  0  0  0  0  0  0
    7.6406   -3.0798   -3.9452 C   0  0  0  0  0  0  0  0  0  0  0  0
    8.6856   -3.1780   -2.8300 C   0  0  0  0  0  0  0  0  0  0  0  0
    5.4976   -4.1328   -2.9564 C   0  0  0  0  0  0  0  0  0  0  0  0
    3.9384   -3.6504   -2.2797 S   0  0  0  0  0  0  0  0  0  0  0  0
    4.3162   -1.9953   -2.5676 C   0  0  0  0  0  0  0  0  0  0  0  0
    3.6965   -0.7615   -2.3655 C   0  0  0  0  0  0  0  0  0  0  0  0
    2.5051   -0.2978   -1.8645 N   0  0  0  0  0  0  0  0  0  0  0  0
    2.5421    1.0794   -1.9416 C   0  0  0  0  0  0  0  0  0  0  0  0
    1.6327    2.0596   -1.4908 C   0  0  0  0  0  0  0  0  0  0  0  0
    0.5233    1.9619   -0.6754 N   0  0  0  0  0  0  0  0  0  0  0  0
   -0.0746    3.1980   -0.6592 C   0  0  0  0  0  0  0  0  0  0  0  0
   -1.2045    3.7872   -0.0891 C   0  0  0  0  0  0  0  0  0  0  0  0
   -2.5050    3.2872    0.9238 S   0  0  0  0  0  0  0  0  0  0  0  0
    0.3429    1.0440    0.4330 C   0  0  0  0  0  0  0  0  0  0  0  0
    0.7343    1.6959    1.7586 C   0  0  0  0  0  0  0  0  0  0  0  0
    1.3239   -1.1388   -1.8878 C   0  0  0  0  0  0  0  0  0  0  0  0
    1.0211   -1.6267   -3.3039 C   0  0  0  0  0  0  0  0  0  0  0  0
    5.9474   -5.4472   -3.0808 C   0  0  0  0  0  0  0  0  0  0  0  0
    5.3725   -6.6422   -2.7091 C   0  0  0  0  0  0  0  0  0  0  0  0
    4.0842   -6.8042   -2.0347 C   0  0  0  0  0  0  0  0  0  0  0  0
    3.2914   -5.9310   -1.7293 O   0  0  0  0  0  0  0  0  0  0  0  0
    3.9289   -8.2523   -1.7962 C   0  0  0  0  0  0  0  0  0  0  0  0
    2.9005   -8.9449   -1.1760 C   0  0  0  0  0  0  0  0  0  0  0  0
    1.5344   -8.1273   -0.5434 Cl  0  0  0  0  0  0  0  0  0  0  0  0
    2.9907  -10.3303   -1.0691 C   0  0  0  0  0  0  0  0  0  0  0  0
    4.1000  -10.9807   -1.5829 C   0  0  0  0  0  0  0  0  0  0  0  0
    4.2014  -12.8664   -1.4232 Br  0  0  0  0  0  0  0  0  0  0  0  0
    5.1433  -10.3068   -2.2107 C   0  0  0  0  0  0  0  0  0  0  0  0
    5.0481   -8.9312   -2.3140 C   0  0  0  0  0  0  0  0  0  0  0  0
    5.9609   -7.9471   -2.9044 C   0  0  0  0  0  0  0  0  0  0  0  0
    7.1410   -8.2516   -3.5351 C   0  0  0  0  0  0  0  0  0  0  0  0
    8.0242   -7.3220   -4.1228 C   0  0  0  0  0  0  0  0  0  0  0  0
    8.7935   -6.6316   -4.6249 N   0  0  0  0  0  0  0  0  0  0  0  0
    7.6426   -9.5604   -3.6973 C   0  0  0  0  0  0  0  0  0  0  0  0
    8.1105  -10.5949   -3.8656 N   0  0  0  0  0  0  0  0  0  0  0  0
   -4.6336    6.3435    1.2854 H   0  0  0  0  0  0  0  0  0  0  0  0
   -6.0655    0.8649    3.9872 H   0  0  0  0  0  0  0  0  0  0  0  0
   -7.7038   -0.3930    5.3925 H   0  0  0  0  0  0  0  0  0  0  0  0
  -10.5239    3.6666    5.7557 H   0  0  0  0  0  0  0  0  0  0  0  0
   -8.9409    4.9182    4.3941 H   0  0  0  0  0  0  0  0  0  0  0  0
   -2.1959    7.5361   -1.0890 H   0  0  0  0  0  0  0  0  0  0  0  0
   -3.7704    7.4164   -0.2924 H   0  0  0  0  0  0  0  0  0  0  0  0
   -2.3767    9.1269    0.8069 H   0  0  0  0  0  0  0  0  0  0  0  0
   -2.6537    7.7927    1.9257 H   0  0  0  0  0  0  0  0  0  0  0  0
   -1.0985    7.9421    1.1000 H   0  0  0  0  0  0  0  0  0  0  0  0
    7.8116   -2.1627   -4.5124 H   0  0  0  0  0  0  0  0  0  0  0  0
    7.7536   -3.9268   -4.6234 H   0  0  0  0  0  0  0  0  0  0  0  0
    9.6818   -3.2031   -3.2619 H   0  0  0  0  0  0  0  0  0  0  0  0
    8.5411   -4.0826   -2.2440 H   0  0  0  0  0  0  0  0  0  0  0  0
    8.6130   -2.3191   -2.1670 H   0  0  0  0  0  0  0  0  0  0  0  0
   -0.7071    0.7378    0.4683 H   0  0  0  0  0  0  0  0  0  0  0  0
    0.9770    0.1728    0.2803 H   0  0  0  0  0  0  0  0  0  0  0  0
    0.6517    0.9643    2.5572 H   0  0  0  0  0  0  0  0  0  0  0  0
    0.0814    2.5319    1.9911 H   0  0  0  0  0  0  0  0  0  0  0  0
    1.7616    2.0520    1.7148 H   0  0  0  0  0  0  0  0  0  0  0  0
    0.4696   -0.5651   -1.5343 H   0  0  0  0  0  0  0  0  0  0  0  0
    1.4924   -1.9968   -1.2298 H   0  0  0  0  0  0  0  0  0  0  0  0
    0.8957   -0.7802   -3.9760 H   0  0  0  0  0  0  0  0  0  0  0  0
    0.1021   -2.2057   -3.2956 H   0  0  0  0  0  0  0  0  0  0  0  0
    1.8203   -2.2587   -3.6796 H   0  0  0  0  0  0  0  0  0  0  0  0
    6.9213   -5.5217   -3.5444 H   0  0  0  0  0  0  0  0  0  0  0  0
    2.2019  -10.8874   -0.5894 H   0  0  0  0  0  0  0  0  0  0  0  0
    5.9864  -10.8576   -2.5935 H   0  0  0  0  0  0  0  0  0  0  0  0
  1  2  2  0  0  0  0
  2  3  1  0  0  0  0
  3  4  2  0  0  0  0
  3  5  1  0  0  0  0
  5  6  2  0  0  0  0
  6  7  1  0  0  0  0
  7  8  2  0  0  0  0
  8  9  1  0  0  0  0
  9 10  1  0  0  0  0
  9 11  2  0  0  0  0
 11 12  1  0  0  0  0
 11 13  1  0  0  0  0
 13 14  2  0  0  0  0
 14 15  1  0  0  0  0
 15 16  2  0  0  0  0
 16 17  1  0  0  0  0
 17 18  2  0  0  0  0
 18 19  1  0  0  0  0
 19 20  3  0  0  0  0
 18 21  1  0  0  0  0
 21 22  3  0  0  0  0
  1 23  1  0  0  0  0
 23 24  2  0  0  0  0
 24 25  1  0  0  0  0
 25 26  1  0  0  0  0
 24 27  1  0  0  0  0
 27 28  1  0  0  0  0
 28 29  1  0  0  0  0
 29 30  1  0  0  0  0
 30 31  1  0  0  0  0
 31 32  1  0  0  0  0
 32 33  2  0  0  0  0
 33 34  1  0  0  0  0
 34 35  1  0  0  0  0
 32 36  1  0  0  0  0
 36 37  1  0  0  0  0
 37 38  1  0  0  0  0
 38 39  1  0  0  0  0
 39 40  1  0  0  0  0
 40 41  1  0  0  0  0
 41 42  1  0  0  0  0
 40 43  2  0  0  0  0
 43 44  1  0  0  0  0
 44 45  1  0  0  0  0
 45 46  1  0  0  0  0
 46 47  1  0  0  0  0
 47 48  1  0  0  0  0
 48 49  1  0  0  0  0
 49 50  1  0  0  0  0
 50 51  1  0  0  0  0
 51 52  1  0  0  0  0
 52 53  1  0  0  0  0
 50 54  1  0  0  0  0
 54 55  1  0  0  0  0
 47 56  1  0  0  0  0
 56 57  1  0  0  0  0
 43 58  1  0  0  0  0
 58 59  2  0  0  0  0
 59 60  1  0  0  0  0
 60 61  2  0  0  0  0
 60 62  1  0  0  0  0
 62 63  2  0  0  0  0
 63 64  1  0  0  0  0
 63 65  1  0  0  0  0
 65 66  2  0  0  0  0
 66 67  1  0  0  0  0
 66 68  1  0  0  0  0
 68 69  2  0  0  0  0
 69 70  1  0  0  0  0
 70 71  2  0  0  0  0
 71 72  1  0  0  0  0
 72 73  3  0  0  0  0
 71 74  1  0  0  0  0
 74 75  3  0  0  0  0
 17  2  1  0  0  0  0
 53 23  1  0  0  0  0
 70 59  1  0  0  0  0
 16  5  1  0  0  0  0
 52 27  2  0  0  0  0
 69 62  1  0  0  0  0
 14  7  1  0  0  0  0
 51 29  2  0  0  0  0
 49 30  2  0  0  0  0
 35 31  2  0  0  0  0
 48 36  2  0  0  0  0
 46 37  2  0  0  0  0
 45 39  2  0  0  0  0
  1 76  1  0  0  0  0
  6 77  1  0  0  0  0
  8 78  1  0  0  0  0
 13 79  1  0  0  0  0
 15 80  1  0  0  0  0
 25 81  1  0  0  0  0
 25 82  1  0  0  0  0
 26 83  1  0  0  0  0
 26 84  1  0  0  0  0
 26 85  1  0  0  0  0
 41 86  1  0  0  0  0
 41 87  1  0  0  0  0
 42 88  1  0  0  0  0
 42 89  1  0  0  0  0
 42 90  1  0  0  0  0
 54 91  1  0  0  0  0
 54 92  1  0  0  0  0
 55 93  1  0  0  0  0
 55 94  1  0  0  0  0
 55 95  1  0  0  0  0
 56 96  1  0  0  0  0
 56 97  1  0  0  0  0
 57 98  1  0  0  0  0
 57 99  1  0  0  0  0
 57100  1  0  0  0  0
 58101  1  0  0  0  0
 65102  1  0  0  0  0
 68103  1  0  0  0  0
M  END
