
  xtb     02012223083D
 energy: -194.353804873780 gnorm: 0.000242631004 xtb: 6.4.1 (unknown)
100112  0     0  0            999 V2000
   -5.6000    0.9021    3.2951 C   0  0  0  0  0  0  0  0  0  0  0  0
   -6.4093    1.2215    2.2272 C   0  0  0  0  0  0  0  0  0  0  0  0
   -6.0263    1.1878    0.8166 C   0  0  0  0  0  0  0  0  0  0  0  0
   -4.9536    0.8542    0.3392 O   0  0  0  0  0  0  0  0  0  0  0  0
   -7.2030    1.6452    0.0570 C   0  0  0  0  0  0  0  0  0  0  0  0
   -7.3395    1.8009   -1.2913 C   0  0  0  0  0  0  0  0  0  0  0  0
   -8.5679    2.2736   -1.8046 C   0  0  0  0  0  0  0  0  0  0  0  0
   -8.7634    2.4579   -3.1867 C   0  0  0  0  0  0  0  0  0  0  0  0
   -9.9605    2.9215   -3.6560 C   0  0  0  0  0  0  0  0  0  0  0  0
  -10.1445    3.0976   -4.9721 F   0  0  0  0  0  0  0  0  0  0  0  0
  -11.0110    3.2194   -2.7657 C   0  0  0  0  0  0  0  0  0  0  0  0
  -12.1732    3.6736   -3.2539 F   0  0  0  0  0  0  0  0  0  0  0  0
  -10.8512    3.0492   -1.4188 C   0  0  0  0  0  0  0  0  0  0  0  0
   -9.6293    2.5732   -0.9028 C   0  0  0  0  0  0  0  0  0  0  0  0
   -9.4559    2.3967    0.4901 C   0  0  0  0  0  0  0  0  0  0  0  0
   -8.2567    1.9381    0.9665 C   0  0  0  0  0  0  0  0  0  0  0  0
   -7.7835    1.6684    2.3243 C   0  0  0  0  0  0  0  0  0  0  0  0
   -8.5349    1.8268    3.4624 C   0  0  0  0  0  0  0  0  0  0  0  0
   -8.1041    1.5709    4.7799 C   0  0  0  0  0  0  0  0  0  0  0  0
   -7.8302    1.3858    5.8808 N   0  0  0  0  0  0  0  0  0  0  0  0
   -9.8718    2.2759    3.4678 C   0  0  0  0  0  0  0  0  0  0  0  0
  -10.9593    2.6367    3.5434 N   0  0  0  0  0  0  0  0  0  0  0  0
   -4.2622    0.5081    3.3427 C   0  0  0  0  0  0  0  0  0  0  0  0
   -3.5779    0.2541    4.5482 C   0  0  0  0  0  0  0  0  0  0  0  0
   -4.1808    0.2807    5.9141 C   0  0  0  0  0  0  0  0  0  0  0  0
   -4.9015   -1.0361    6.2169 C   0  0  0  0  0  0  0  0  0  0  0  0
   -2.2506   -0.0738    4.3162 C   0  0  0  0  0  0  0  0  0  0  0  0
   -0.9129   -0.4311    5.3953 S   0  0  0  0  0  0  0  0  0  0  0  0
    0.1245   -0.5648    4.0171 C   0  0  0  0  0  0  0  0  0  0  0  0
    1.4852   -0.7264    3.7259 C   0  0  0  0  0  0  0  0  0  0  0  0
    2.6290   -0.7558    4.5573 C   0  0  0  0  0  0  0  0  0  0  0  0
    3.9302   -0.6551    3.9569 C   0  0  0  0  0  0  0  0  0  0  0  0
    4.8980   -0.6003    4.8578 N   0  0  0  0  0  0  0  0  0  0  0  0
    4.2353   -0.6807    6.3319 S   0  0  0  0  0  0  0  0  0  0  0  0
    2.6849   -0.7794    5.8791 N   0  0  0  0  0  0  0  0  0  0  0  0
    4.0397   -0.6670    2.5476 C   0  0  0  0  0  0  0  0  0  0  0  0
    5.1480   -0.6260    1.6861 C   0  0  0  0  0  0  0  0  0  0  0  0
    6.8678   -0.4655    1.7599 S   0  0  0  0  0  0  0  0  0  0  0  0
    6.9350   -0.5971    0.0156 C   0  0  0  0  0  0  0  0  0  0  0  0
    7.9906   -0.5748   -0.8984 C   0  0  0  0  0  0  0  0  0  0  0  0
    9.4165   -0.3815   -0.5014 C   0  0  0  0  0  0  0  0  0  0  0  0
    9.7496    1.1116   -0.4273 C   0  0  0  0  0  0  0  0  0  0  0  0
    7.5355   -0.7383   -2.2046 C   0  0  0  0  0  0  0  0  0  0  0  0
    5.7769   -0.8676   -2.2836 S   0  0  0  0  0  0  0  0  0  0  0  0
    5.6712   -0.7565   -0.5707 C   0  0  0  0  0  0  0  0  0  0  0  0
    4.6555   -0.7749    0.3827 C   0  0  0  0  0  0  0  0  0  0  0  0
    3.2903   -0.9035    0.3990 N   0  0  0  0  0  0  0  0  0  0  0  0
    2.8888   -0.7988    1.7203 C   0  0  0  0  0  0  0  0  0  0  0  0
    1.6052   -0.6849    2.3053 C   0  0  0  0  0  0  0  0  0  0  0  0
    0.3590   -0.4600    1.7627 N   0  0  0  0  0  0  0  0  0  0  0  0
   -0.5374   -0.3807    2.7938 C   0  0  0  0  0  0  0  0  0  0  0  0
   -1.8918   -0.0844    2.9555 C   0  0  0  0  0  0  0  0  0  0  0  0
   -3.2178    0.3136    1.9327 S   0  0  0  0  0  0  0  0  0  0  0  0
   -0.0168   -0.0318    0.4333 C   0  0  0  0  0  0  0  0  0  0  0  0
   -0.8674   -1.0764   -0.2894 C   0  0  0  0  0  0  0  0  0  0  0  0
    2.6543   -1.6487   -0.6700 C   0  0  0  0  0  0  0  0  0  0  0  0
    3.1879   -3.0796   -0.7430 C   0  0  0  0  0  0  0  0  0  0  0  0
    8.3128   -0.6893   -3.3781 C   0  0  0  0  0  0  0  0  0  0  0  0
    7.9804   -1.0691   -4.6472 C   0  0  0  0  0  0  0  0  0  0  0  0
    8.7111   -0.4599   -5.7958 C   0  0  0  0  0  0  0  0  0  0  0  0
    9.7328    0.1838   -5.7426 O   0  0  0  0  0  0  0  0  0  0  0  0
    7.8740   -0.7708   -6.9643 C   0  0  0  0  0  0  0  0  0  0  0  0
    6.7872   -1.6176   -6.5662 C   0  0  0  0  0  0  0  0  0  0  0  0
    5.9611   -1.9518   -7.5910 C   0  0  0  0  0  0  0  0  0  0  0  0
    6.4834   -1.2314   -9.0722 S   0  0  0  0  0  0  0  0  0  0  0  0
    7.8541   -0.4734   -8.2927 C   0  0  0  0  0  0  0  0  0  0  0  0
    8.9468    0.4795   -9.1704 Cl  0  0  0  0  0  0  0  0  0  0  0  0
    6.9231   -1.9174   -5.1524 C   0  0  0  0  0  0  0  0  0  0  0  0
    6.3322   -2.9870   -4.5277 C   0  0  0  0  0  0  0  0  0  0  0  0
    6.6982   -3.4600   -3.2532 C   0  0  0  0  0  0  0  0  0  0  0  0
    7.0006   -3.9040   -2.2380 N   0  0  0  0  0  0  0  0  0  0  0  0
    5.3397   -3.7570   -5.1629 C   0  0  0  0  0  0  0  0  0  0  0  0
    4.5052   -4.3755   -5.6519 N   0  0  0  0  0  0  0  0  0  0  0  0
   -6.0581    0.9786    4.2716 H   0  0  0  0  0  0  0  0  0  0  0  0
   -6.5215    1.5696   -1.9565 H   0  0  0  0  0  0  0  0  0  0  0  0
   -7.9685    2.2345   -3.8809 H   0  0  0  0  0  0  0  0  0  0  0  0
  -11.6661    3.2822   -0.7514 H   0  0  0  0  0  0  0  0  0  0  0  0
  -10.2801    2.6332    1.1429 H   0  0  0  0  0  0  0  0  0  0  0  0
   -4.8836    1.1087    6.0177 H   0  0  0  0  0  0  0  0  0  0  0  0
   -3.3765    0.4218    6.6388 H   0  0  0  0  0  0  0  0  0  0  0  0
   -5.7116   -1.2036    5.5111 H   0  0  0  0  0  0  0  0  0  0  0  0
   -5.3203   -1.0029    7.2184 H   0  0  0  0  0  0  0  0  0  0  0  0
   -4.2071   -1.8707    6.1547 H   0  0  0  0  0  0  0  0  0  0  0  0
    9.5664   -0.8307    0.4821 H   0  0  0  0  0  0  0  0  0  0  0  0
   10.0789   -0.8764   -1.2113 H   0  0  0  0  0  0  0  0  0  0  0  0
    9.1076    1.6063    0.2977 H   0  0  0  0  0  0  0  0  0  0  0  0
    9.6081    1.5862   -1.3957 H   0  0  0  0  0  0  0  0  0  0  0  0
   10.7839    1.2461   -0.1232 H   0  0  0  0  0  0  0  0  0  0  0  0
   -0.6097    0.8837    0.5359 H   0  0  0  0  0  0  0  0  0  0  0  0
    0.8858    0.2178   -0.1252 H   0  0  0  0  0  0  0  0  0  0  0  0
   -0.4147   -2.0649   -0.2473 H   0  0  0  0  0  0  0  0  0  0  0  0
   -1.8516   -1.1378    0.1660 H   0  0  0  0  0  0  0  0  0  0  0  0
   -0.9921   -0.7905   -1.3297 H   0  0  0  0  0  0  0  0  0  0  0  0
    1.5852   -1.6891   -0.4967 H   0  0  0  0  0  0  0  0  0  0  0  0
    2.8518   -1.1288   -1.6127 H   0  0  0  0  0  0  0  0  0  0  0  0
    4.2532   -3.0984   -0.9571 H   0  0  0  0  0  0  0  0  0  0  0  0
    2.6726   -3.6180   -1.5338 H   0  0  0  0  0  0  0  0  0  0  0  0
    3.0160   -3.5942    0.2001 H   0  0  0  0  0  0  0  0  0  0  0  0
    9.2733   -0.1913   -3.2911 H   0  0  0  0  0  0  0  0  0  0  0  0
    5.0785   -2.5600   -7.5826 H   0  0  0  0  0  0  0  0  0  0  0  0
  1  2  2  0  0  0  0
  2  3  1  0  0  0  0
  3  4  2  0  0  0  0
  3  5  1  0  0  0  0
  5  6  2  0  0  0  0
  6  7  1  0  0  0  0
  7  8  2  0  0  0  0
  8  9  1  0  0  0  0
  9 10  1  0  0  0  0
  9 11  2  0  0  0  0
 11 12  1  0  0  0  0
 11 13  1  0  0  0  0
 13 14  2  0  0  0  0
 14 15  1  0  0  0  0
 15 16  2  0  0  0  0
 16 17  1  0  0  0  0
 17 18  2  0  0  0  0
 18 19  1  0  0  0  0
 19 20  3  0  0  0  0
 18 21  1  0  0  0  0
 21 22  3  0  0  0  0
  1 23  1  0  0  0  0
 23 24  2  0  0  0  0
 24 25  1  0  0  0  0
 25 26  1  0  0  0  0
 24 27  1  0  0  0  0
 27 28  1  0  0  0  0
 28 29  1  0  0  0  0
 29 30  1  0  0  0  0
 30 31  1  0  0  0  0
 31 32  1  0  0  0  0
 32 33  2  0  0  0  0
 33 34  1  0  0  0  0
 34 35  1  0  0  0  0
 32 36  1  0  0  0  0
 36 37  1  0  0  0  0
 37 38  1  0  0  0  0
 38 39  1  0  0  0  0
 39 40  1  0  0  0  0
 40 41  1  0  0  0  0
 41 42  1  0  0  0  0
 40 43  2  0  0  0  0
 43 44  1  0  0  0  0
 44 45  1  0  0  0  0
 45 46  1  0  0  0  0
 46 47  1  0  0  0  0
 47 48  1  0  0  0  0
 48 49  1  0  0  0  0
 49 50  1  0  0  0  0
 50 51  1  0  0  0  0
 51 52  1  0  0  0  0
 52 53  1  0  0  0  0
 50 54  1  0  0  0  0
 54 55  1  0  0  0  0
 47 56  1  0  0  0  0
 56 57  1  0  0  0  0
 43 58  1  0  0  0  0
 58 59  2  0  0  0  0
 59 60  1  0  0  0  0
 60 61  2  0  0  0  0
 60 62  1  0  0  0  0
 62 63  1  0  0  0  0
 63 64  2  0  0  0  0
 64 65  1  0  0  0  0
 65 66  1  0  0  0  0
 66 67  1  0  0  0  0
 63 68  1  0  0  0  0
 68 69  2  0  0  0  0
 69 70  1  0  0  0  0
 70 71  3  0  0  0  0
 69 72  1  0  0  0  0
 72 73  3  0  0  0  0
 17  2  1  0  0  0  0
 53 23  1  0  0  0  0
 68 59  1  0  0  0  0
 16  5  1  0  0  0  0
 52 27  2  0  0  0  0
 66 62  2  0  0  0  0
 14  7  1  0  0  0  0
 51 29  2  0  0  0  0
 49 30  2  0  0  0  0
 35 31  2  0  0  0  0
 48 36  2  0  0  0  0
 46 37  2  0  0  0  0
 45 39  2  0  0  0  0
  1 74  1  0  0  0  0
  6 75  1  0  0  0  0
  8 76  1  0  0  0  0
 13 77  1  0  0  0  0
 15 78  1  0  0  0  0
 25 79  1  0  0  0  0
 25 80  1  0  0  0  0
 26 81  1  0  0  0  0
 26 82  1  0  0  0  0
 26 83  1  0  0  0  0
 41 84  1  0  0  0  0
 41 85  1  0  0  0  0
 42 86  1  0  0  0  0
 42 87  1  0  0  0  0
 42 88  1  0  0  0  0
 54 89  1  0  0  0  0
 54 90  1  0  0  0  0
 55 91  1  0  0  0  0
 55 92  1  0  0  0  0
 55 93  1  0  0  0  0
 56 94  1  0  0  0  0
 56 95  1  0  0  0  0
 57 96  1  0  0  0  0
 57 97  1  0  0  0  0
 57 98  1  0  0  0  0
 58 99  1  0  0  0  0
 64100  1  0  0  0  0
M  END
