146

C         -5.18520       -4.84260        5.96930
C         -5.27900       -4.67620        7.32010
C         -6.33260       -5.40310        8.07710
O         -7.02840       -6.30390        7.66850
C         -6.37600       -4.75270        9.40360
C         -7.24000       -4.96850       10.43770
C         -7.10660       -4.20030       11.61650
C         -7.96940       -4.38600       12.71400
C         -7.82290       -3.62640       13.84090
F         -8.64530       -3.80400       14.88380
C         -6.80990       -2.65000       13.91970
F         -6.69000       -1.91980       15.03640
C         -5.95720       -2.44650       12.87130
C         -6.08040       -3.21470       11.69630
C         -5.19520       -3.01880       10.61140
C         -5.33600       -3.78320        9.48450
C         -4.55860       -3.83380        8.24770
C         -3.26830       -3.38610        8.11590
C         -2.42970       -3.69220        7.02520
N         -1.68020       -3.94810        6.19370
C         -2.59200       -2.64690        9.10720
N         -2.00320       -2.02810        9.87440
C         -4.54360       -4.00600        5.03050
C         -4.26730       -2.65050        5.12140
C         -3.62490       -2.17380        3.98770
S         -2.95900       -0.63940        3.53410
C         -2.31240       -1.34640        2.08320
C         -1.51190       -0.74840        1.08380
C         -0.84000       -1.58090        0.20190
C         -0.88870       -3.07530        0.42040
O         -2.20840       -3.43100        0.88830
C         -2.61180       -2.70030        1.94740
C         -3.37500       -3.16290        3.02250
S         -4.01910       -4.68390        3.49570
C          0.11520       -3.46730        1.49970
C         -0.16460       -4.55920        2.31140
C          0.68070       -4.89490        3.35000
C          1.83390       -4.16060        3.59410
C          2.76210       -4.54850        4.70750
C          3.74020       -5.62690        4.23660
C          2.12750       -3.09290        2.75680
C          1.27640       -2.74140        1.72500
C         -0.66880       -3.79550       -0.89320
C          0.55100       -4.37750       -1.20650
C          0.73520       -4.97910       -2.43790
C         -0.28620       -5.01370       -3.37750
C         -0.09540       -5.71030       -4.69330
C         -0.49740       -7.18220       -4.57810
C         -1.50560       -4.43250       -3.05260
C         -1.69570       -3.82390       -1.82740
C         -0.11750       -0.84590       -0.73700
S          0.94180       -1.25230       -2.04480
C          1.22550        0.44730       -2.33250
C          2.01430        1.03380       -3.34510
C          1.88730        2.40560       -3.56030
O          1.02450        3.18330       -2.88310
C          0.72040        2.77620       -1.53160
C         -0.59440        3.43830       -1.15920
C         -0.79610        4.01260        0.08730
C         -2.03450        4.53170        0.41810
C         -3.09080        4.49160       -0.48160
C         -4.45140        4.98890       -0.08900
C         -5.26250        3.85380        0.54030
C         -2.87600        3.92450       -1.73160
C         -1.64380        3.39940       -2.06770
C          1.86710        3.22570       -0.63450
C          2.46550        4.45170       -0.89850
C          3.50590        4.90530       -0.11180
C          3.96850        4.15330        0.96110
C          5.12310        4.63260        1.79190
C          6.44890        4.18610        1.17230
C          3.36580        2.92960        1.21870
C          2.32740        2.46610        0.43120
C          0.53390        1.28010       -1.46680
C         -0.23510        0.54420       -0.56470
S         -1.26880        0.94970        0.76470
C          2.70500        2.83980       -4.60880
C          3.45440        1.79530       -5.18350
S          3.14380        0.26410       -4.42200
C          4.28200        2.21510       -6.20310
C          4.18880        3.59350       -6.43040
S          3.03770        4.36330       -5.34140
C          4.95660        4.21950       -7.42130
C          5.03940        5.54120       -7.78780
C          4.30200        6.64760       -7.17010
O          3.49380        6.59470       -6.26260
C          4.74050        7.87100       -7.87390
C          4.34160        9.17450       -7.65550
C          4.90300       10.15940       -8.45210
F          4.54710       11.43780       -8.27650
C          5.83620        9.83080       -9.43550
F          6.36290       10.80180      -10.18980
C          6.23580        8.52040       -9.65420
C          5.67920        7.52880       -8.86140
C          5.88360        6.07880       -8.83590
C          6.72510        5.39020       -9.67110
C          7.51480        5.99470      -10.67260
N          8.18430        6.42210      -11.50100
C          6.93360        3.99480       -9.66890
N          7.16120        2.87110       -9.74030
H         -5.71480       -5.70160        5.56980
H         -8.01480       -5.71580       10.35890
H         -8.75000       -5.12910       12.66980
H         -5.18430       -1.69800       12.94930
H         -4.43170       -2.26210       10.69610
H         -4.55210       -2.03990        5.95900
H         -1.05640       -5.14100        2.13060
H          0.43400       -5.73080        3.98720
H          3.32300       -3.67490        5.04510
H          2.18220       -4.92950        5.55000
H          4.41060       -5.91120        5.04420
H          4.33600       -5.26000        3.40350
H          3.19910       -6.51080        3.90660
H          3.02690       -2.51660        2.92110
H          1.52290       -1.89850        1.09550
H          1.35770       -4.36070       -0.48910
H          1.69050       -5.42610       -2.67200
H         -0.70630       -5.22940       -5.45980
H          0.95080       -5.64540       -4.99830
H          0.10910       -7.68170       -3.82610
H         -1.54170       -7.26740       -4.28610
H         -0.35970       -7.69000       -5.52980
H         -2.31320       -4.45050       -3.77040
H         -2.64610       -3.37240       -1.58450
H          0.01120        4.05090        0.80300
H         -2.18110        4.97210        1.39350
H         -4.35590        5.80470        0.62980
H         -4.97880        5.36540       -0.96750
H         -4.75280        3.46850        1.42060
H         -6.24790        4.20740        0.83410
H         -5.38280        3.03750       -0.16840
H         -3.68460        3.88830       -2.44760
H         -1.48790        2.95780       -3.04090
H          2.10780        5.04580       -1.72630
H          3.95990        5.86100       -0.32970
H          5.10540        5.72220        1.85520
H          5.04460        4.22940        2.80330
H          6.55240        4.58990        0.16780
H          7.28550        4.53310        1.77410
H          6.49150        3.10110        1.11070
H          3.70950        2.32950        2.04900
H          1.87470        1.51290        0.66040
H          4.93460        1.57580       -6.76960
H          5.58390        3.52580       -7.96780
H          3.61960        9.42230       -6.89390
H          6.96040        8.32200      -10.42640
