105

C         -0.88720       -3.32530        5.54880
C         -1.53650       -2.87300        6.66570
C         -1.67590       -1.43840        7.00560
O         -1.06470       -0.49700        6.54660
C         -2.81530       -1.37360        7.94490
C         -3.40770       -0.26830        8.48240
C         -4.52250       -0.43350        9.33490
C         -5.17920        0.67440        9.90430
C         -6.26540        0.48930       10.71300
F         -6.89280        1.54530       11.24920
C         -6.73840       -0.80870       10.99010
F         -7.80590       -0.96000       11.78550
C         -6.12010       -1.90370       10.45450
C         -4.99970       -1.74690        9.61420
C         -4.36110       -2.87350        9.04610
C         -3.28390       -2.68850        8.22100
C         -2.45860       -3.63490        7.47900
C         -2.48780       -5.00070        7.58920
C         -1.59010       -5.85810        6.91910
N         -0.86930       -6.59780        6.41780
C         -3.38510       -5.70390        8.41760
N         -4.09980       -6.31950        9.07190
C          0.05800       -2.58940        4.80260
C          1.07840       -1.74180        5.21500
C          1.53210       -1.57980        6.62620
C          3.00970       -1.93470        6.79060
C          1.71110       -1.14660        4.11470
S          2.97100        0.06070        3.98130
C          2.74030        0.08690        2.26900
C          3.22070        0.76450        1.13950
C          4.27470        1.69340        0.99020
C          4.57730        2.19460       -0.31840
N          5.61350        3.01760       -0.31760
S          6.16060        3.15290        1.20020
N          5.09420        2.16720        1.91520
C          3.73600        1.83740       -1.39630
C          3.66660        2.32510       -2.70660
S          4.49780        3.44110       -3.73530
C          3.26980        3.17110       -4.96210
C          3.07120        3.71870       -6.21860
C          3.98530        4.75420       -6.79070
C          3.46410        6.16440       -6.50010
C          1.88870        3.23240       -6.81700
S          1.07080        2.05370       -5.79130
C          2.28250        2.24500       -4.58010
C          2.52750        1.75900       -3.29300
N          1.92240        0.90660       -2.41060
C          2.64160        0.93530       -1.23150
C          2.46250        0.30080        0.02540
N          1.59550       -0.68580        0.46720
C          1.75940       -0.80490        1.82100
C          1.18360       -1.52370        2.87120
S         -0.05120       -2.71140        3.04450
C          0.94610       -1.74890       -0.26980
C          1.93520       -2.50400       -1.15320
C          0.58490        0.43040       -2.68300
C         -0.44780        1.11940       -1.79480
C          1.43930        3.69210       -8.05480
C          0.29660        3.46150       -8.80640
C         -0.72500        2.51960       -8.36960
O         -0.61230        1.83540       -7.35340
N         -1.85530        2.38350       -9.13310
C         -2.87570        1.45140       -8.66460
C         -3.79190        2.11040       -7.64160
C         -2.12650        3.08420      -10.30470
O         -3.17230        2.92320      -10.89670
C         -1.06340        3.98680      -10.73880
C          0.09500        4.17080      -10.03540
C          1.12930        5.12310      -10.55460
C         -1.31270        4.67670      -11.94470
N         -1.50870        5.24160      -12.92360
H         -1.18950       -4.27620        5.12410
H         -3.03540        0.71910        8.25520
H         -4.82960        1.67440        9.70080
H         -6.49510       -2.89040       10.67730
H         -4.74920       -3.85510        9.26620
H          1.36510       -0.54190        6.92520
H          0.93170       -2.21750        7.27620
H          3.64010       -1.26970        6.20700
H          3.19110       -2.95870        6.47080
H          3.29220       -1.84530        7.83620
H          4.96470        4.63680       -6.32280
H          4.10730        4.61560       -7.86640
H          3.39680        6.32330       -5.42680
H          4.14020        6.90590       -6.91750
H          2.47570        6.31030       -6.93040
H          0.10490       -1.36340       -0.84710
H          0.53410       -2.43390        0.47550
H          2.71380       -2.95280       -0.54070
H          2.41010       -1.84150       -1.87280
H          1.41970       -3.29500       -1.69090
H          0.53930       -0.65460       -2.58830
H          0.37700        0.67160       -3.72800
H         -1.43950        0.73460       -2.01560
H         -0.44330        2.19000       -1.98530
H         -0.23450        0.96150       -0.74020
H          2.12610        4.40200       -8.49470
H         -2.36360        0.59510       -8.22160
H         -3.44710        1.13890       -9.54020
H         -4.54760        1.40050       -7.31750
H         -3.21810        2.43210       -6.77520
H         -4.28790        2.97180       -8.08280
H          2.08070        4.61400      -10.70530
H          1.28180        5.94610       -9.85680
H          0.81020        5.54030      -11.50620
