109

C          3.44210        5.71630        1.16560
C          4.31270        6.47860        1.90420
C          4.81120        6.12290        3.24790
O          4.48010        5.18170        3.94050
C          5.90050        7.08050        3.53250
C          6.67890        7.17550        4.64880
C          7.67340        8.17770        4.70890
C          8.49430        8.32930        5.84300
C          9.44970        9.30610        5.87490
F         10.22940        9.44970        6.95600
C          9.62670       10.17090        4.77680
F         10.57160       11.11930        4.83620
C          8.84540       10.04830        3.66220
C          7.84940        9.05340        3.59890
C          7.03110        8.92510        2.45290
C          6.06460        7.95530        2.42290
C          5.07500        7.60380        1.40880
C          4.84700        8.28720        0.24140
C          5.60800        9.39390       -0.18640
N          6.19580       10.29510       -0.58750
C          3.80810        7.99810       -0.66770
N          2.96610        7.83920       -1.43260
C          2.51940        4.76710        1.63840
C          1.76320        4.71830        2.81090
C          1.76750        5.78780        3.84790
C          0.38080        6.12470        4.38730
C          0.92140        3.59800        2.81650
S         -0.21420        2.96320        3.99030
C         -0.56110        1.65050        2.92510
C         -1.36690        0.50570        2.87800
C         -2.21420       -0.06220        3.85430
C         -2.86830       -1.30190        3.56230
N         -3.59400       -1.74350        4.57770
S         -3.46840       -0.68460        5.79500
N         -2.48180        0.37660        5.07440
C         -2.72240       -1.86050        2.27360
C         -3.35130       -2.96540        1.68620
S         -4.48980       -4.19520        2.10540
C         -4.44130       -4.76440        0.45270
C         -5.12080       -5.79140       -0.20780
C         -6.08480       -6.70150        0.47820
C         -5.33610       -7.83680        1.18180
C         -4.78060       -5.84280       -1.55520
S         -3.57400       -4.62550       -1.97780
C         -3.56720       -4.03040       -0.36080
C         -2.94430       -3.00000        0.34710
N         -2.06830       -1.97880        0.09530
C         -1.91230       -1.25540        1.26750
C         -1.14690       -0.10820        1.60930
N         -0.19580        0.63590        0.92950
C          0.15470        1.69480        1.72390
C          1.00540        2.80140        1.66260
S          2.11690        3.45730        0.52490
C          0.64640        0.27660       -0.18990
C          1.42570       -1.00680        0.08610
C         -1.79710       -1.60990       -1.27710
C         -2.55180       -0.34460       -1.67560
C         -5.22670       -6.79310       -2.49620
C         -5.14310       -6.76910       -3.85740
C         -5.20550       -8.04550       -4.61550
O         -5.56000       -9.12360       -4.19380
C         -4.68140       -7.72170       -5.95770
C         -4.41760       -8.55860       -7.00290
C         -3.88470       -8.02340       -8.19740
C         -3.59460       -8.84420       -9.30630
C         -3.07260       -8.31820      -10.45530
C         -2.82730       -6.94000      -10.51920
F         -2.31180       -6.44020      -11.65740
C         -3.09130       -6.09900       -9.47420
C         -3.63070       -6.62340       -8.28370
C         -3.92350       -5.77780       -7.18810
C         -4.44520       -6.31900       -6.04520
C         -4.87930       -5.70240       -4.79500
C         -5.23840       -4.38710       -4.64280
C         -4.99640       -3.38930       -5.60560
N         -4.79170       -2.53040       -6.33990
C         -5.96380       -3.91340       -3.53040
N         -6.60040       -3.50850       -2.66480
H          3.48620        5.80770        0.08600
H          6.53530        6.49890        5.47750
H          8.37200        7.67470        6.69170
H          8.99280       10.71960        2.83070
H          7.19200        9.59780        1.62600
H          2.41530        5.46440        4.66960
H          2.21980        6.68590        3.41940
H         -0.30840        6.33210        3.57170
H         -0.02090        5.31140        4.98460
H          0.44410        7.00830        5.01730
H         -6.79750       -7.11080       -0.23730
H         -6.63700       -6.12250        1.22120
H         -4.64400       -7.43400        1.91750
H         -4.77360       -8.42890        0.46330
H         -6.04240       -8.48730        1.69020
H          1.35040        1.10120       -0.32530
H          0.05960        0.20570       -1.10610
H          2.04050       -1.25880       -0.77370
H          2.07580       -0.86820        0.94690
H          0.75750       -1.83840        0.29770
H         -0.72490       -1.51230       -1.44440
H         -2.14230       -2.44210       -1.89540
H         -2.33320       -0.09310       -2.70970
H         -2.27730        0.49540       -1.04140
H         -3.62290       -0.50740       -1.58060
H         -5.60840       -7.72150       -2.08270
H         -4.61350       -9.61720       -6.92120
H         -3.79200       -9.90310       -9.23300
H         -2.84480       -8.93250      -11.31190
H         -2.89360       -5.04200       -9.56030
H         -3.71850       -4.72240       -7.27610
