
  xtb     02012221263D
 energy: -195.960838750535 gnorm: 0.000506639915 xtb: 6.4.1 (unknown)
103115  0     0  0            999 V2000
   -7.1791    0.4063    2.0999 C   0  0  0  0  0  0  0  0  0  0  0  0
   -7.6932   -0.5397    1.2422 C   0  0  0  0  0  0  0  0  0  0  0  0
   -6.9310   -1.3299    0.2762 C   0  0  0  0  0  0  0  0  0  0  0  0
   -5.7367   -1.2646    0.0340 O   0  0  0  0  0  0  0  0  0  0  0  0
   -7.8969   -2.2406   -0.3650 C   0  0  0  0  0  0  0  0  0  0  0  0
   -7.6735   -3.1885   -1.3204 C   0  0  0  0  0  0  0  0  0  0  0  0
   -8.7603   -3.9635   -1.7838 C   0  0  0  0  0  0  0  0  0  0  0  0
   -8.5869   -4.9588   -2.7646 C   0  0  0  0  0  0  0  0  0  0  0  0
   -9.6549   -5.6979   -3.1905 C   0  0  0  0  0  0  0  0  0  0  0  0
   -9.4875   -6.6460   -4.1233 F   0  0  0  0  0  0  0  0  0  0  0  0
  -10.9391   -5.4742   -2.6561 C   0  0  0  0  0  0  0  0  0  0  0  0
  -11.9670   -6.2153   -3.0913 F   0  0  0  0  0  0  0  0  0  0  0  0
  -11.1387   -4.5139   -1.7041 C   0  0  0  0  0  0  0  0  0  0  0  0
  -10.0585   -3.7349   -1.2436 C   0  0  0  0  0  0  0  0  0  0  0  0
  -10.2572   -2.7409   -0.2572 C   0  0  0  0  0  0  0  0  0  0  0  0
   -9.1899   -2.0015    0.1781 C   0  0  0  0  0  0  0  0  0  0  0  0
   -9.0851   -0.9327    1.1708 C   0  0  0  0  0  0  0  0  0  0  0  0
  -10.1396   -0.4148    1.8814 C   0  0  0  0  0  0  0  0  0  0  0  0
  -10.0645    0.6206    2.8350 C   0  0  0  0  0  0  0  0  0  0  0  0
  -10.0875    1.4566    3.6237 N   0  0  0  0  0  0  0  0  0  0  0  0
  -11.4728   -0.8547    1.7473 C   0  0  0  0  0  0  0  0  0  0  0  0
  -12.5772   -1.1629    1.6857 N   0  0  0  0  0  0  0  0  0  0  0  0
   -5.8731    0.8606    2.2881 C   0  0  0  0  0  0  0  0  0  0  0  0
   -5.5311    1.8132    3.2670 C   0  0  0  0  0  0  0  0  0  0  0  0
   -6.4716    2.4388    4.2439 C   0  0  0  0  0  0  0  0  0  0  0  0
   -6.6832    1.5276    5.4562 C   0  0  0  0  0  0  0  0  0  0  0  0
   -4.1688    2.0717    3.2661 C   0  0  0  0  0  0  0  0  0  0  0  0
   -3.1701    3.1176    4.2589 S   0  0  0  0  0  0  0  0  0  0  0  0
   -1.7896    2.5898    3.3627 C   0  0  0  0  0  0  0  0  0  0  0  0
   -0.4037    2.7791    3.3488 C   0  0  0  0  0  0  0  0  0  0  0  0
    0.4303    3.5085    4.2252 C   0  0  0  0  0  0  0  0  0  0  0  0
    1.8486    3.4325    4.0491 C   0  0  0  0  0  0  0  0  0  0  0  0
    2.5111    4.1170    4.9679 N   0  0  0  0  0  0  0  0  0  0  0  0
    1.4383    4.8032    5.9675 S   0  0  0  0  0  0  0  0  0  0  0  0
    0.0879    4.2509    5.2661 N   0  0  0  0  0  0  0  0  0  0  0  0
    2.3588    2.7180    2.9423 C   0  0  0  0  0  0  0  0  0  0  0  0
    3.6701    2.5876    2.4733 C   0  0  0  0  0  0  0  0  0  0  0  0
    5.2697    3.0634    2.9226 S   0  0  0  0  0  0  0  0  0  0  0  0
    5.8656    2.3180    1.4508 C   0  0  0  0  0  0  0  0  0  0  0  0
    7.1386    2.2153    0.9106 C   0  0  0  0  0  0  0  0  0  0  0  0
    8.3558    2.7297    1.6063 C   0  0  0  0  0  0  0  0  0  0  0  0
    9.0399    1.6134    2.4006 C   0  0  0  0  0  0  0  0  0  0  0  0
    7.1203    1.5303   -0.3193 C   0  0  0  0  0  0  0  0  0  0  0  0
    5.4897    1.0257   -0.7738 S   0  0  0  0  0  0  0  0  0  0  0  0
    4.8566    1.7291    0.6661 C   0  0  0  0  0  0  0  0  0  0  0  0
    3.6032    1.8824    1.2648 C   0  0  0  0  0  0  0  0  0  0  0  0
    2.3045    1.5471    0.9913 N   0  0  0  0  0  0  0  0  0  0  0  0
    1.5116    2.0430    2.0114 C   0  0  0  0  0  0  0  0  0  0  0  0
    0.1166    1.9880    2.2794 C   0  0  0  0  0  0  0  0  0  0  0  0
   -0.9393    1.3134    1.6918 N   0  0  0  0  0  0  0  0  0  0  0  0
   -2.0859    1.6689    2.3495 C   0  0  0  0  0  0  0  0  0  0  0  0
   -3.4470    1.3570    2.2922 C   0  0  0  0  0  0  0  0  0  0  0  0
   -4.4667    0.3217    1.3655 S   0  0  0  0  0  0  0  0  0  0  0  0
   -0.9531    0.1566    0.8237 C   0  0  0  0  0  0  0  0  0  0  0  0
   -0.2467   -1.0334    1.4682 C   0  0  0  0  0  0  0  0  0  0  0  0
    1.9565    1.0980   -0.3388 C   0  0  0  0  0  0  0  0  0  0  0  0
    1.2260    2.1864   -1.1212 C   0  0  0  0  0  0  0  0  0  0  0  0
    8.2707    1.3024   -1.0757 C   0  0  0  0  0  0  0  0  0  0  0  0
    8.4484    0.6718   -2.2860 C   0  0  0  0  0  0  0  0  0  0  0  0
    7.4019    0.0556   -3.0997 C   0  0  0  0  0  0  0  0  0  0  0  0
    6.2092   -0.0190   -2.8593 O   0  0  0  0  0  0  0  0  0  0  0  0
    8.0790   -0.4696   -4.3038 C   0  0  0  0  0  0  0  0  0  0  0  0
    7.5247   -1.1340   -5.3772 C   0  0  0  0  0  0  0  0  0  0  0  0
    8.3845   -1.5229   -6.3959 C   0  0  0  0  0  0  0  0  0  0  0  0
    7.6810   -2.4419   -7.9031 Br  0  0  0  0  0  0  0  0  0  0  0  0
    9.7455   -1.2561   -6.3406 C   0  0  0  0  0  0  0  0  0  0  0  0
   10.2919   -0.5872   -5.2548 C   0  0  0  0  0  0  0  0  0  0  0  0
    9.4540   -0.1884   -4.2240 C   0  0  0  0  0  0  0  0  0  0  0  0
    9.7156    0.5215   -2.9716 C   0  0  0  0  0  0  0  0  0  0  0  0
   10.9503    0.9530   -2.5564 C   0  0  0  0  0  0  0  0  0  0  0  0
   12.1403    0.7678   -3.2912 C   0  0  0  0  0  0  0  0  0  0  0  0
   13.1436    0.6552   -3.8377 N   0  0  0  0  0  0  0  0  0  0  0  0
   11.2263    1.6362   -1.3540 C   0  0  0  0  0  0  0  0  0  0  0  0
   11.5361    2.1921   -0.3970 N   0  0  0  0  0  0  0  0  0  0  0  0
   -7.8934    0.8792    2.7597 H   0  0  0  0  0  0  0  0  0  0  0  0
   -6.6816   -3.3471   -1.7155 H   0  0  0  0  0  0  0  0  0  0  0  0
   -7.6099   -5.1427   -3.1834 H   0  0  0  0  0  0  0  0  0  0  0  0
  -12.1286   -4.3551   -1.3056 H   0  0  0  0  0  0  0  0  0  0  0  0
  -11.2524   -2.5943    0.1297 H   0  0  0  0  0  0  0  0  0  0  0  0
   -7.4352    2.6545    3.7801 H   0  0  0  0  0  0  0  0  0  0  0  0
   -6.0352    3.3814    4.5802 H   0  0  0  0  0  0  0  0  0  0  0  0
   -5.7364    1.3377    5.9565 H   0  0  0  0  0  0  0  0  0  0  0  0
   -7.1137    0.5760    5.1532 H   0  0  0  0  0  0  0  0  0  0  0  0
   -7.3608    2.0034    6.1590 H   0  0  0  0  0  0  0  0  0  0  0  0
    8.0465    3.5183    2.2951 H   0  0  0  0  0  0  0  0  0  0  0  0
    9.0658    3.1554    0.8958 H   0  0  0  0  0  0  0  0  0  0  0  0
    8.3578    1.2038    3.1420 H   0  0  0  0  0  0  0  0  0  0  0  0
    9.9142    2.0083    2.9097 H   0  0  0  0  0  0  0  0  0  0  0  0
    9.3599    0.8105    1.7407 H   0  0  0  0  0  0  0  0  0  0  0  0
   -0.5273    0.4011   -0.1490 H   0  0  0  0  0  0  0  0  0  0  0  0
   -2.0034   -0.0958    0.6598 H   0  0  0  0  0  0  0  0  0  0  0  0
   -0.7609   -1.3181    2.3831 H   0  0  0  0  0  0  0  0  0  0  0  0
   -0.2579   -1.8812    0.7890 H   0  0  0  0  0  0  0  0  0  0  0  0
    0.7845   -0.7948    1.7190 H   0  0  0  0  0  0  0  0  0  0  0  0
    1.3786    0.1753   -0.2937 H   0  0  0  0  0  0  0  0  0  0  0  0
    2.8968    0.8632   -0.8432 H   0  0  0  0  0  0  0  0  0  0  0  0
    0.9622    1.8178   -2.1085 H   0  0  0  0  0  0  0  0  0  0  0  0
    0.3204    2.5035   -0.6086 H   0  0  0  0  0  0  0  0  0  0  0  0
    1.8707    3.0543   -1.2383 H   0  0  0  0  0  0  0  0  0  0  0  0
    9.1661    1.7007   -0.6189 H   0  0  0  0  0  0  0  0  0  0  0  0
    6.4660   -1.3380   -5.4150 H   0  0  0  0  0  0  0  0  0  0  0  0
   10.3845   -1.5721   -7.1507 H   0  0  0  0  0  0  0  0  0  0  0  0
   11.3511   -0.3913   -5.2349 H   0  0  0  0  0  0  0  0  0  0  0  0
  1  2  2  0  0  0  0
  2  3  1  0  0  0  0
  3  4  2  0  0  0  0
  3  5  1  0  0  0  0
  5  6  2  0  0  0  0
  6  7  1  0  0  0  0
  7  8  2  0  0  0  0
  8  9  1  0  0  0  0
  9 10  1  0  0  0  0
  9 11  2  0  0  0  0
 11 12  1  0  0  0  0
 11 13  1  0  0  0  0
 13 14  2  0  0  0  0
 14 15  1  0  0  0  0
 15 16  2  0  0  0  0
 16 17  1  0  0  0  0
 17 18  2  0  0  0  0
 18 19  1  0  0  0  0
 19 20  3  0  0  0  0
 18 21  1  0  0  0  0
 21 22  3  0  0  0  0
  1 23  1  0  0  0  0
 23 24  2  0  0  0  0
 24 25  1  0  0  0  0
 25 26  1  0  0  0  0
 24 27  1  0  0  0  0
 27 28  1  0  0  0  0
 28 29  1  0  0  0  0
 29 30  1  0  0  0  0
 30 31  1  0  0  0  0
 31 32  1  0  0  0  0
 32 33  2  0  0  0  0
 33 34  1  0  0  0  0
 34 35  1  0  0  0  0
 32 36  1  0  0  0  0
 36 37  1  0  0  0  0
 37 38  1  0  0  0  0
 38 39  1  0  0  0  0
 39 40  1  0  0  0  0
 40 41  1  0  0  0  0
 41 42  1  0  0  0  0
 40 43  2  0  0  0  0
 43 44  1  0  0  0  0
 44 45  1  0  0  0  0
 45 46  1  0  0  0  0
 46 47  1  0  0  0  0
 47 48  1  0  0  0  0
 48 49  1  0  0  0  0
 49 50  1  0  0  0  0
 50 51  1  0  0  0  0
 51 52  1  0  0  0  0
 52 53  1  0  0  0  0
 50 54  1  0  0  0  0
 54 55  1  0  0  0  0
 47 56  1  0  0  0  0
 56 57  1  0  0  0  0
 43 58  1  0  0  0  0
 58 59  2  0  0  0  0
 59 60  1  0  0  0  0
 60 61  2  0  0  0  0
 60 62  1  0  0  0  0
 62 63  2  0  0  0  0
 63 64  1  0  0  0  0
 64 65  1  0  0  0  0
 64 66  2  0  0  0  0
 66 67  1  0  0  0  0
 67 68  2  0  0  0  0
 68 69  1  0  0  0  0
 69 70  2  0  0  0  0
 70 71  1  0  0  0  0
 71 72  3  0  0  0  0
 70 73  1  0  0  0  0
 73 74  3  0  0  0  0
 17  2  1  0  0  0  0
 53 23  1  0  0  0  0
 69 59  1  0  0  0  0
 16  5  1  0  0  0  0
 52 27  2  0  0  0  0
 68 62  1  0  0  0  0
 14  7  1  0  0  0  0
 51 29  2  0  0  0  0
 49 30  2  0  0  0  0
 35 31  2  0  0  0  0
 48 36  2  0  0  0  0
 46 37  2  0  0  0  0
 45 39  2  0  0  0  0
  1 75  1  0  0  0  0
  6 76  1  0  0  0  0
  8 77  1  0  0  0  0
 13 78  1  0  0  0  0
 15 79  1  0  0  0  0
 25 80  1  0  0  0  0
 25 81  1  0  0  0  0
 26 82  1  0  0  0  0
 26 83  1  0  0  0  0
 26 84  1  0  0  0  0
 41 85  1  0  0  0  0
 41 86  1  0  0  0  0
 42 87  1  0  0  0  0
 42 88  1  0  0  0  0
 42 89  1  0  0  0  0
 54 90  1  0  0  0  0
 54 91  1  0  0  0  0
 55 92  1  0  0  0  0
 55 93  1  0  0  0  0
 55 94  1  0  0  0  0
 56 95  1  0  0  0  0
 56 96  1  0  0  0  0
 57 97  1  0  0  0  0
 57 98  1  0  0  0  0
 57 99  1  0  0  0  0
 58100  1  0  0  0  0
 63101  1  0  0  0  0
 66102  1  0  0  0  0
 67103  1  0  0  0  0
M  END
