103

C         -4.38290        5.30820        1.47050
C         -5.26940        4.61220        2.26030
C         -5.15160        3.20920        2.65700
O         -4.26070        2.42540        2.37310
C         -6.33850        2.91270        3.47980
C         -6.69180        1.73920        4.07940
C         -7.89200        1.68380        4.82300
C         -8.30620        0.49930        5.46180
C         -9.47330        0.47320        6.17280
F         -9.86580       -0.65540        6.78020
C        -10.27500        1.62720        6.27550
F        -11.41460        1.57200        6.97790
C         -9.89860        2.79190        5.66710
C         -8.70080        2.85190        4.92720
C         -8.30530        4.05350        4.29480
C         -7.13810        4.08530        3.57920
C         -6.48500        5.15680        2.82830
C         -6.96870        6.43560        2.70330
C         -8.16930        6.88600        3.29070
N         -9.13390        7.31650        3.74090
C         -6.35950        7.48430        1.98480
N         -5.92920        8.39010        1.42300
C         -3.19910        4.91000        0.84710
C         -2.42540        5.78330        0.05770
C         -2.70200        7.23290       -0.17030
C         -2.17240        8.07670        0.99290
C         -1.31030        5.14090       -0.45830
S         -0.00970        5.68910       -1.49950
C          0.66400        4.09810       -1.44390
C          1.77060        3.39900       -1.94820
C          2.92160        3.80100       -2.66620
C          3.96840        2.84340       -2.90650
N          5.01120        3.38160       -3.51740
S          4.70570        4.94950       -3.77800
N          3.22980        5.00570       -3.11780
C          3.75770        1.48890       -2.55620
C          4.49180        0.31630       -2.78700
S          6.02120       -0.15930       -3.43740
C          5.59060       -1.83430       -3.14390
C          6.26100       -3.02470       -3.37630
C          7.64060       -3.07980       -3.94520
C          8.68560       -3.17800       -2.83000
C          5.49760       -4.13280       -2.95640
S          3.93840       -3.65040       -2.27970
C          4.31620       -1.99530       -2.56760
C          3.69650       -0.76150       -2.36550
N          2.50510       -0.29780       -1.86450
C          2.54210        1.07940       -1.94160
C          1.63270        2.05960       -1.49080
N          0.52330        1.96190       -0.67540
C         -0.07460        3.19800       -0.65920
C         -1.20450        3.78720       -0.08910
S         -2.50500        3.28720        0.92380
C          0.34290        1.04400        0.43300
C          0.73430        1.69590        1.75860
C          1.32390       -1.13880       -1.88780
C          1.02110       -1.62670       -3.30390
C          5.94740       -5.44720       -3.08080
C          5.37250       -6.64220       -2.70910
C          4.08420       -6.80420       -2.03470
O          3.29140       -5.93100       -1.72930
C          3.92890       -8.25230       -1.79620
C          2.90050       -8.94490       -1.17600
Cl         1.53440       -8.12730       -0.54340
C          2.99070      -10.33030       -1.06910
C          4.10000      -10.98070       -1.58290
Br         4.20140      -12.86640       -1.42320
C          5.14330      -10.30680       -2.21070
C          5.04810       -8.93120       -2.31400
C          5.96090       -7.94710       -2.90440
C          7.14100       -8.25160       -3.53510
C          8.02420       -7.32200       -4.12280
N          8.79350       -6.63160       -4.62490
C          7.64260       -9.56040       -3.69730
N          8.11050      -10.59490       -3.86560
H         -4.63360        6.34350        1.28540
H         -6.06550        0.86490        3.98720
H         -7.70380       -0.39300        5.39250
H        -10.52390        3.66660        5.75570
H         -8.94090        4.91820        4.39410
H         -2.19590        7.53610       -1.08900
H         -3.77040        7.41640       -0.29240
H         -2.37670        9.12690        0.80690
H         -2.65370        7.79270        1.92570
H         -1.09850        7.94210        1.10000
H          7.81160       -2.16270       -4.51240
H          7.75360       -3.92680       -4.62340
H          9.68180       -3.20310       -3.26190
H          8.54110       -4.08260       -2.24400
H          8.61300       -2.31910       -2.16700
H         -0.70710        0.73780        0.46830
H          0.97700        0.17280        0.28030
H          0.65170        0.96430        2.55720
H          0.08140        2.53190        1.99110
H          1.76160        2.05200        1.71480
H          0.46960       -0.56510       -1.53430
H          1.49240       -1.99680       -1.22980
H          0.89570       -0.78020       -3.97600
H          0.10210       -2.20570       -3.29560
H          1.82030       -2.25870       -3.67960
H          6.92130       -5.52170       -3.54440
H          2.20190      -10.88740       -0.58940
H          5.98640      -10.85760       -2.59350
