107

C         -0.93950        6.32360       -2.81490
C          0.20200        6.87400       -2.27610
C          1.11640        6.21870       -1.34180
O          0.97570        5.14010       -0.78930
C          2.26760        7.12750       -1.18780
C          3.41200        6.94250       -0.46880
C          4.40450        7.94810       -0.49060
C          5.61070        7.80430        0.22140
C          6.55780        8.78880        0.17580
F          7.70700        8.64850        0.85220
C          6.33950        9.95740       -0.57990
F          7.28610       10.90580       -0.60670
C          5.17780       10.12600       -1.28020
C          4.18240        9.12910       -1.25560
C          2.98110        9.29300       -1.98440
C          2.03490        8.30380       -1.95330
C          0.73330        8.17880       -2.60850
C          0.14260        9.15220       -3.37590
C          0.72430       10.40960       -3.63810
N          1.14110       11.44980       -3.88880
C         -1.12000        9.05890       -3.99570
N         -2.13810        9.06090       -4.52930
C         -1.52790        5.07230       -2.62890
C         -2.64170        4.63540       -3.37330
C         -3.33310        5.41350       -4.44440
C         -2.59870        5.27510       -5.78100
C         -2.99380        3.33740       -3.03790
S         -4.21880        2.24430       -3.65730
C         -3.65300        1.03350       -2.55960
C         -3.92960       -0.29790       -2.21240
C         -4.93830       -1.21010       -2.60010
C         -5.00360       -2.49910       -1.96260
N         -6.03530       -3.21440       -2.38090
S         -6.84860       -2.35420       -3.48350
N         -5.91900       -1.02990       -3.47010
C         -3.98320       -2.87530       -1.05860
C         -3.68590       -4.07860       -0.39580
S         -4.32770       -5.67490       -0.22340
C         -2.93670       -6.10760        0.74580
C         -2.54170       -7.29970        1.36100
C         -3.28120       -8.58680        1.21560
C         -2.65260       -9.43740        0.10860
C         -1.32500       -7.15170        2.01850
S         -0.71150       -5.50160        1.91780
C         -2.04330       -5.04480        0.92860
C         -2.46140       -3.89340        0.26080
N         -1.98330       -2.62690        0.03280
C         -2.92340       -1.98110       -0.75060
C         -2.98170       -0.65000       -1.21190
N         -2.20000        0.44610       -0.91040
C         -2.59110        1.46190       -1.74790
C         -2.20230        2.77360       -2.01970
S         -0.96530        3.84640       -1.48770
C         -1.57850        0.74430        0.36520
C         -2.43220        1.71290        1.18300
C         -0.54920       -2.39830        0.02730
C          0.15860       -3.31660       -0.96900
C         -0.66020       -8.14530        2.76850
C          0.60350       -8.14760        3.27050
C          0.94700       -9.05490        4.39480
O          0.32430      -10.02430        4.76430
C          2.16250       -8.46690        4.99990
C          2.81960       -8.83840        6.15540
C          3.91130       -8.07790        6.54990
C          4.30690       -6.96200        5.83150
C          3.64560       -6.57350        4.66190
O          3.91640       -5.46090        3.95320
C          5.02560       -4.66440        4.30140
C          2.58240       -7.37160        4.22500
C          1.75600       -7.29860        3.02740
C          2.12640       -6.82150        1.79830
C          3.31800       -6.13720        1.48390
N          4.25240       -5.59000        1.10190
C          1.37520       -7.09430        0.63360
N          0.81730       -7.33250       -0.34150
H         -1.46140        6.93850       -3.53520
H          3.56170        6.03930        0.10300
H          5.79320        6.91500        0.80410
H          5.02670       11.02710       -1.85390
H          2.84670       10.19730       -2.55530
H         -4.34470        5.01770       -4.55330
H         -3.40610        6.46880       -4.17710
H         -2.55630        4.23110       -6.08260
H         -3.12160        5.83930       -6.54780
H         -1.58270        5.65560       -5.70470
H         -4.31930       -8.36560        0.95980
H         -3.26540       -9.14200        2.15550
H         -3.19650      -10.37220        0.00190
H         -1.61380       -9.65850        0.34160
H         -2.68390       -8.90530       -0.83890
H         -0.59320        1.18500        0.18380
H         -1.47300       -0.17920        0.93160
H         -2.50780        2.67840        0.69190
H         -3.43290        1.30870        1.32160
H         -1.97620        1.85910        2.15810
H         -0.35060       -1.36810       -0.25940
H         -0.16730       -2.57860        1.03710
H          1.22130       -3.09110       -0.97500
H          0.03550       -4.36380       -0.70710
H         -0.23740       -3.16050       -1.97020
H         -1.26830       -8.99520        3.06330
H          2.48690       -9.69320        6.72170
H          4.45760       -8.34520        7.44180
H          5.14100       -6.38080        6.19190
H          5.07650       -3.89560        3.53290
H          5.95210       -5.24440        4.29090
H          4.88970       -4.19850        5.28240
