109

C          6.60920        0.69000       -4.86840
C          7.63870        0.43450       -3.98810
C          7.49840        0.11520       -2.56920
O          6.46840        0.02060       -1.92080
C          8.86600       -0.07980       -2.05280
C          9.26490       -0.39800       -0.78770
C         10.64500       -0.54140       -0.52020
C         11.11370       -0.86960        0.76630
C         12.45430       -1.00390        0.99640
F         12.89840       -1.31660        2.22260
C         13.38190       -0.81650       -0.04690
F         14.69050       -0.95530        0.20780
C         12.95700       -0.49680       -1.30610
C         11.58180       -0.35090       -1.57610
C         11.13500       -0.02050       -2.87700
C          9.79320        0.11400       -3.11410
C          9.04490        0.43840       -4.32850
C          9.61150        0.69330       -5.55370
C          8.91530        1.00360       -6.73910
N          8.42450        1.26230       -7.74610
C         11.00000        0.67920       -5.79830
N         12.11720        0.68440       -6.06420
C          5.22830        0.71430       -4.68200
C          4.32070        1.00760       -5.72010
C          4.68660        1.37720       -7.12000
C          5.01380        2.86970       -7.22020
C          3.01040        0.96580       -5.27260
S          1.47720        1.22990       -6.08540
C          0.66790        0.89090       -4.59550
C         -0.63520        0.77180       -4.10150
C         -1.87370        0.86210       -4.77290
C         -3.07340        0.58550       -4.04370
N         -4.15700        0.66430       -4.80050
S         -3.70260        1.05740       -6.30390
N         -2.10600        1.14030       -6.04610
C         -2.98060        0.31300       -2.66200
C         -3.99190        0.10340       -1.71420
S         -5.71750        0.00080       -1.63790
C         -5.60250       -0.19350        0.09440
C         -6.58130       -0.34210        1.10210
C         -8.04100       -0.46820        0.80310
C         -8.34230       -1.84040        0.19650
C         -6.00600       -0.46170        2.33920
S         -4.25070       -0.37370        2.28530
C         -4.29200       -0.18210        0.56720
C         -3.36540       -0.01780       -0.47370
N         -2.01200        0.09850       -0.62030
C         -1.73560        0.28330       -1.96590
C         -0.53400        0.43720       -2.71430
N          0.80760        0.32380       -2.40650
C          1.53320        0.60550       -3.53300
C          2.87670        0.63810       -3.90950
S          4.40430        0.38220       -3.15490
C          1.51310       -0.14040       -1.23480
C          2.13730        1.01370       -0.45010
C         -1.19100        0.15500        0.56610
C         -0.93410       -1.23600        1.14690
C         -6.66560       -0.56150        3.63480
C         -7.54740        0.43240        4.01720
C         -8.16210        0.41120        5.26610
C         -7.89420       -0.60540        6.16000
C         -8.53000       -0.59300        7.48740
O         -9.28910        0.28630        7.84160
N         -8.22200       -1.64910        8.32900
C         -8.82440       -1.63530        9.65880
C         -7.93340       -0.90340       10.65410
C         -7.36740       -2.69860        8.03810
O         -7.15100       -3.57080        8.85470
C         -6.75070       -2.69510        6.69950
C         -5.91440       -3.72920        6.33570
C         -5.33640       -3.75000        5.06500
C         -5.57110       -2.73250        4.17620
C         -6.39610       -1.64240        4.52050
C         -7.01440       -1.64440        5.79710
H          6.90660        0.91270       -5.88380
H          8.53850       -0.53920       -0.00180
H         10.41620       -1.01670        1.57600
H         13.68050       -0.35670       -2.09410
H         11.87110        0.11650       -3.65210
H          3.83340        1.15600       -7.76430
H          5.54020        0.79560       -7.47090
H          4.15700        3.46600       -6.91540
H          5.26870        3.12140       -8.24550
H          5.85860        3.12270       -6.58390
H         -8.62410       -0.33890        1.71530
H         -8.32270        0.31010        0.08990
H         -8.07640       -2.62970        0.89730
H         -7.77770       -1.98340       -0.72180
H         -9.40140       -1.92280       -0.03230
H          0.84600       -0.73720       -0.62010
H          2.31970       -0.79490       -1.58160
H          2.55230        0.64180        0.48220
H          2.94240        1.46190       -1.02560
H          1.40730        1.79020       -0.22960
H         -0.26630        0.68040        0.34740
H         -1.73760        0.74480        1.31040
H         -0.52800       -1.91350        0.39850
H         -1.86300       -1.66320        1.51520
H         -0.23610       -1.16600        1.97640
H         -7.73880        1.25540        3.34450
H         -8.84110        1.19710        5.56040
H         -8.96280       -2.67360        9.96520
H         -9.79030       -1.13470        9.57330
H         -8.40180       -0.90400       11.63420
H         -6.96770       -1.39840       10.72720
H         -7.78450        0.12650       10.33770
H         -5.72940       -4.52170        7.04500
H         -4.70360       -4.57780        4.78290
H         -5.12970       -2.76930        3.19200
