106

C          0.29770       -5.64320        4.13310
C         -0.08280       -6.89770        4.54440
C         -1.01400       -7.78090        3.81610
O         -1.64020       -7.53220        2.80510
C         -0.93200       -9.09120        4.49600
C         -1.60680      -10.24200        4.21090
C         -1.36820      -11.39110        4.99850
C         -2.04750      -12.60060        4.75680
C         -1.79630      -13.69780        5.53240
F         -2.44480      -14.84820        5.30100
C         -0.85680      -13.63410        6.58030
F         -0.63090      -14.72570        7.32440
C         -0.18170      -12.47430        6.83910
C         -0.41970      -11.32480        6.05940
C          0.26900      -10.11890        6.32560
C          0.01140       -9.01460        5.55780
C          0.54010       -7.65460        5.60750
C          1.40100       -7.16640        6.55820
C          1.81490       -5.82190        6.65560
N          2.17410       -4.74200        6.81130
C          1.96400       -7.94680        7.58810
N          2.45930       -8.53120        8.44340
C         -0.38970       -4.76460        3.28030
C         -1.75500       -4.54450        3.07770
C         -2.83020       -5.24270        3.83600
C         -3.97890       -4.32970        4.25280
C         -1.96250       -3.50280        2.16480
S         -3.40270       -2.78650        1.46670
C         -2.41240       -1.70700        0.55330
C         -2.54650       -0.66400       -0.37590
C         -3.67640       -0.13670       -1.04060
C         -3.48810        0.89960       -2.01570
N         -4.62210        1.25840       -2.59570
S         -5.82360        0.37400       -1.96810
N         -4.94370       -0.50180       -0.92980
C         -2.19960        1.45650       -2.18150
C         -1.76390        2.59140       -2.87780
S         -2.40620        3.80530       -3.92880
C         -0.85680        4.62630       -3.87380
C         -0.40390        5.80470       -4.45240
C         -1.27450        6.67730       -5.29610
C         -1.91670        7.78370       -4.45460
C          0.92570        6.07640       -4.08610
S          1.59280        4.83030       -3.03060
C          0.10050        3.97030       -3.08120
C         -0.42300        2.79880       -2.52660
N         -0.01010        1.81520       -1.66840
C         -1.07560        0.96600       -1.45360
C         -1.23130       -0.19460       -0.65490
N         -0.32180       -0.97470        0.03990
C         -1.04210       -1.88160        0.77690
C         -0.78300       -2.90870        1.68480
S          0.61590       -3.61750        2.38820
C          1.04160       -1.30840       -0.31510
C          1.08580       -2.53360       -1.22820
C          1.22870        1.96450       -0.93710
C          2.44890        1.63650       -1.79820
C          1.61530        7.21650       -4.51350
C          2.88780        7.65410       -4.24070
C          3.87720        6.97340       -3.40120
O          3.75190        5.91080       -2.81440
C          5.07730        7.82720       -3.40730
C          6.28000        7.62810       -2.76550
C          7.29000        8.57880       -2.91390
C          8.60580        8.38030       -2.23180
C          7.05020        9.69760       -3.70570
C          5.84030        9.90340       -4.35490
C          4.83740        8.95910       -4.20750
C          3.48060        8.87940       -4.74330
C          2.90190        9.81050       -5.56800
C          3.55130       10.97970       -6.01690
N          4.01640       11.94910       -6.41960
C          1.59410        9.75390       -6.09150
N          0.54360        9.78370       -6.55720
H          1.26680       -5.28460        4.46220
H         -2.31710      -10.27530        3.39880
H         -2.76940      -12.66640        3.95790
H          0.53360      -12.44160        7.64610
H          0.98570      -10.10140        7.13070
H         -2.38760       -5.70110        4.72410
H         -3.21350       -6.05870        3.21380
H         -4.64160       -4.86790        4.92590
H         -4.55960       -4.00560        3.39420
H         -3.60180       -3.45060        4.77090
H         -0.70740        7.12700       -6.11240
H         -2.06210        6.05660       -5.72790
H         -1.15570        8.42090       -4.01020
H         -2.51860        7.35230       -3.65820
H         -2.55530        8.39860       -5.08220
H          1.50740       -0.47550       -0.82680
H          1.58720       -1.51470        0.61070
H          2.11620       -2.75410       -1.49260
H          0.52250       -2.34480       -2.13980
H          0.66330       -3.40380       -0.73330
H          1.30220        3.01120       -0.62220
H          1.18310        1.35150       -0.03610
H          2.33300        0.68660       -2.31610
H          3.33730        1.59360       -1.17460
H          2.59650        2.41060       -2.54570
H          1.02670        7.85120       -5.16150
H          6.42900        6.74740       -2.15860
H          9.10580        7.49930       -2.63330
H          8.45890        8.21790       -1.16520
H          9.25490        9.24060       -2.37040
H          7.83150       10.43470       -3.82110
H          5.70250       10.78640       -4.95690
