
  xtb     02012223323D
 energy: -199.606509790268 gnorm: 0.000287228730 xtb: 6.4.1 (unknown)
107119  0     0  0            999 V2000
   -0.9395    6.3236   -2.8149 C   0  0  0  0  0  0  0  0  0  0  0  0
    0.2020    6.8740   -2.2761 C   0  0  0  0  0  0  0  0  0  0  0  0
    1.1164    6.2187   -1.3418 C   0  0  0  0  0  0  0  0  0  0  0  0
    0.9757    5.1401   -0.7893 O   0  0  0  0  0  0  0  0  0  0  0  0
    2.2676    7.1275   -1.1878 C   0  0  0  0  0  0  0  0  0  0  0  0
    3.4120    6.9425   -0.4688 C   0  0  0  0  0  0  0  0  0  0  0  0
    4.4045    7.9481   -0.4906 C   0  0  0  0  0  0  0  0  0  0  0  0
    5.6107    7.8043    0.2214 C   0  0  0  0  0  0  0  0  0  0  0  0
    6.5578    8.7888    0.1758 C   0  0  0  0  0  0  0  0  0  0  0  0
    7.7070    8.6485    0.8522 F   0  0  0  0  0  0  0  0  0  0  0  0
    6.3395    9.9574   -0.5799 C   0  0  0  0  0  0  0  0  0  0  0  0
    7.2861   10.9058   -0.6067 F   0  0  0  0  0  0  0  0  0  0  0  0
    5.1778   10.1260   -1.2802 C   0  0  0  0  0  0  0  0  0  0  0  0
    4.1824    9.1291   -1.2556 C   0  0  0  0  0  0  0  0  0  0  0  0
    2.9811    9.2930   -1.9844 C   0  0  0  0  0  0  0  0  0  0  0  0
    2.0349    8.3038   -1.9533 C   0  0  0  0  0  0  0  0  0  0  0  0
    0.7333    8.1788   -2.6085 C   0  0  0  0  0  0  0  0  0  0  0  0
    0.1426    9.1522   -3.3759 C   0  0  0  0  0  0  0  0  0  0  0  0
    0.7243   10.4096   -3.6381 C   0  0  0  0  0  0  0  0  0  0  0  0
    1.1411   11.4498   -3.8888 N   0  0  0  0  0  0  0  0  0  0  0  0
   -1.1200    9.0589   -3.9957 C   0  0  0  0  0  0  0  0  0  0  0  0
   -2.1381    9.0609   -4.5293 N   0  0  0  0  0  0  0  0  0  0  0  0
   -1.5279    5.0723   -2.6289 C   0  0  0  0  0  0  0  0  0  0  0  0
   -2.6417    4.6354   -3.3733 C   0  0  0  0  0  0  0  0  0  0  0  0
   -3.3331    5.4135   -4.4444 C   0  0  0  0  0  0  0  0  0  0  0  0
   -2.5987    5.2751   -5.7810 C   0  0  0  0  0  0  0  0  0  0  0  0
   -2.9938    3.3374   -3.0379 C   0  0  0  0  0  0  0  0  0  0  0  0
   -4.2188    2.2443   -3.6573 S   0  0  0  0  0  0  0  0  0  0  0  0
   -3.6530    1.0335   -2.5596 C   0  0  0  0  0  0  0  0  0  0  0  0
   -3.9296   -0.2979   -2.2124 C   0  0  0  0  0  0  0  0  0  0  0  0
   -4.9383   -1.2101   -2.6001 C   0  0  0  0  0  0  0  0  0  0  0  0
   -5.0036   -2.4991   -1.9626 C   0  0  0  0  0  0  0  0  0  0  0  0
   -6.0353   -3.2144   -2.3809 N   0  0  0  0  0  0  0  0  0  0  0  0
   -6.8486   -2.3542   -3.4835 S   0  0  0  0  0  0  0  0  0  0  0  0
   -5.9190   -1.0299   -3.4701 N   0  0  0  0  0  0  0  0  0  0  0  0
   -3.9832   -2.8753   -1.0586 C   0  0  0  0  0  0  0  0  0  0  0  0
   -3.6859   -4.0786   -0.3958 C   0  0  0  0  0  0  0  0  0  0  0  0
   -4.3277   -5.6749   -0.2234 S   0  0  0  0  0  0  0  0  0  0  0  0
   -2.9367   -6.1076    0.7458 C   0  0  0  0  0  0  0  0  0  0  0  0
   -2.5417   -7.2997    1.3610 C   0  0  0  0  0  0  0  0  0  0  0  0
   -3.2812   -8.5868    1.2156 C   0  0  0  0  0  0  0  0  0  0  0  0
   -2.6526   -9.4374    0.1086 C   0  0  0  0  0  0  0  0  0  0  0  0
   -1.3250   -7.1517    2.0185 C   0  0  0  0  0  0  0  0  0  0  0  0
   -0.7115   -5.5016    1.9178 S   0  0  0  0  0  0  0  0  0  0  0  0
   -2.0433   -5.0448    0.9286 C   0  0  0  0  0  0  0  0  0  0  0  0
   -2.4614   -3.8934    0.2608 C   0  0  0  0  0  0  0  0  0  0  0  0
   -1.9833   -2.6269    0.0328 N   0  0  0  0  0  0  0  0  0  0  0  0
   -2.9234   -1.9811   -0.7506 C   0  0  0  0  0  0  0  0  0  0  0  0
   -2.9817   -0.6500   -1.2119 C   0  0  0  0  0  0  0  0  0  0  0  0
   -2.2000    0.4461   -0.9104 N   0  0  0  0  0  0  0  0  0  0  0  0
   -2.5911    1.4619   -1.7479 C   0  0  0  0  0  0  0  0  0  0  0  0
   -2.2023    2.7736   -2.0197 C   0  0  0  0  0  0  0  0  0  0  0  0
   -0.9653    3.8464   -1.4877 S   0  0  0  0  0  0  0  0  0  0  0  0
   -1.5785    0.7443    0.3652 C   0  0  0  0  0  0  0  0  0  0  0  0
   -2.4322    1.7129    1.1830 C   0  0  0  0  0  0  0  0  0  0  0  0
   -0.5492   -2.3983    0.0273 C   0  0  0  0  0  0  0  0  0  0  0  0
    0.1586   -3.3166   -0.9690 C   0  0  0  0  0  0  0  0  0  0  0  0
   -0.6602   -8.1453    2.7685 C   0  0  0  0  0  0  0  0  0  0  0  0
    0.6035   -8.1476    3.2705 C   0  0  0  0  0  0  0  0  0  0  0  0
    0.9470   -9.0549    4.3948 C   0  0  0  0  0  0  0  0  0  0  0  0
    0.3243  -10.0243    4.7643 O   0  0  0  0  0  0  0  0  0  0  0  0
    2.1625   -8.4669    4.9999 C   0  0  0  0  0  0  0  0  0  0  0  0
    2.8196   -8.8384    6.1554 C   0  0  0  0  0  0  0  0  0  0  0  0
    3.9113   -8.0779    6.5499 C   0  0  0  0  0  0  0  0  0  0  0  0
    4.3069   -6.9620    5.8315 C   0  0  0  0  0  0  0  0  0  0  0  0
    3.6456   -6.5735    4.6619 C   0  0  0  0  0  0  0  0  0  0  0  0
    3.9164   -5.4609    3.9532 O   0  0  0  0  0  0  0  0  0  0  0  0
    5.0256   -4.6644    4.3014 C   0  0  0  0  0  0  0  0  0  0  0  0
    2.5824   -7.3716    4.2250 C   0  0  0  0  0  0  0  0  0  0  0  0
    1.7560   -7.2986    3.0274 C   0  0  0  0  0  0  0  0  0  0  0  0
    2.1264   -6.8215    1.7983 C   0  0  0  0  0  0  0  0  0  0  0  0
    3.3180   -6.1372    1.4839 C   0  0  0  0  0  0  0  0  0  0  0  0
    4.2524   -5.5900    1.1019 N   0  0  0  0  0  0  0  0  0  0  0  0
    1.3752   -7.0943    0.6336 C   0  0  0  0  0  0  0  0  0  0  0  0
    0.8173   -7.3325   -0.3415 N   0  0  0  0  0  0  0  0  0  0  0  0
   -1.4614    6.9385   -3.5352 H   0  0  0  0  0  0  0  0  0  0  0  0
    3.5617    6.0393    0.1030 H   0  0  0  0  0  0  0  0  0  0  0  0
    5.7932    6.9150    0.8041 H   0  0  0  0  0  0  0  0  0  0  0  0
    5.0267   11.0271   -1.8539 H   0  0  0  0  0  0  0  0  0  0  0  0
    2.8467   10.1973   -2.5553 H   0  0  0  0  0  0  0  0  0  0  0  0
   -4.3447    5.0177   -4.5533 H   0  0  0  0  0  0  0  0  0  0  0  0
   -3.4061    6.4688   -4.1771 H   0  0  0  0  0  0  0  0  0  0  0  0
   -2.5563    4.2311   -6.0826 H   0  0  0  0  0  0  0  0  0  0  0  0
   -3.1216    5.8393   -6.5478 H   0  0  0  0  0  0  0  0  0  0  0  0
   -1.5827    5.6556   -5.7047 H   0  0  0  0  0  0  0  0  0  0  0  0
   -4.3193   -8.3656    0.9598 H   0  0  0  0  0  0  0  0  0  0  0  0
   -3.2654   -9.1420    2.1555 H   0  0  0  0  0  0  0  0  0  0  0  0
   -3.1965  -10.3722    0.0019 H   0  0  0  0  0  0  0  0  0  0  0  0
   -1.6138   -9.6585    0.3416 H   0  0  0  0  0  0  0  0  0  0  0  0
   -2.6839   -8.9053   -0.8389 H   0  0  0  0  0  0  0  0  0  0  0  0
   -0.5932    1.1850    0.1838 H   0  0  0  0  0  0  0  0  0  0  0  0
   -1.4730   -0.1792    0.9316 H   0  0  0  0  0  0  0  0  0  0  0  0
   -2.5078    2.6784    0.6919 H   0  0  0  0  0  0  0  0  0  0  0  0
   -3.4329    1.3087    1.3216 H   0  0  0  0  0  0  0  0  0  0  0  0
   -1.9762    1.8591    2.1581 H   0  0  0  0  0  0  0  0  0  0  0  0
   -0.3506   -1.3681   -0.2594 H   0  0  0  0  0  0  0  0  0  0  0  0
   -0.1673   -2.5786    1.0371 H   0  0  0  0  0  0  0  0  0  0  0  0
    1.2213   -3.0911   -0.9750 H   0  0  0  0  0  0  0  0  0  0  0  0
    0.0355   -4.3638   -0.7071 H   0  0  0  0  0  0  0  0  0  0  0  0
   -0.2374   -3.1605   -1.9702 H   0  0  0  0  0  0  0  0  0  0  0  0
   -1.2683   -8.9952    3.0633 H   0  0  0  0  0  0  0  0  0  0  0  0
    2.4869   -9.6932    6.7217 H   0  0  0  0  0  0  0  0  0  0  0  0
    4.4576   -8.3452    7.4418 H   0  0  0  0  0  0  0  0  0  0  0  0
    5.1410   -6.3808    6.1919 H   0  0  0  0  0  0  0  0  0  0  0  0
    5.0765   -3.8956    3.5329 H   0  0  0  0  0  0  0  0  0  0  0  0
    5.9521   -5.2444    4.2909 H   0  0  0  0  0  0  0  0  0  0  0  0
    4.8897   -4.1985    5.2824 H   0  0  0  0  0  0  0  0  0  0  0  0
  1  2  2  0  0  0  0
  2  3  1  0  0  0  0
  3  4  2  0  0  0  0
  3  5  1  0  0  0  0
  5  6  2  0  0  0  0
  6  7  1  0  0  0  0
  7  8  2  0  0  0  0
  8  9  1  0  0  0  0
  9 10  1  0  0  0  0
  9 11  2  0  0  0  0
 11 12  1  0  0  0  0
 11 13  1  0  0  0  0
 13 14  2  0  0  0  0
 14 15  1  0  0  0  0
 15 16  2  0  0  0  0
 16 17  1  0  0  0  0
 17 18  2  0  0  0  0
 18 19  1  0  0  0  0
 19 20  3  0  0  0  0
 18 21  1  0  0  0  0
 21 22  3  0  0  0  0
  1 23  1  0  0  0  0
 23 24  2  0  0  0  0
 24 25  1  0  0  0  0
 25 26  1  0  0  0  0
 24 27  1  0  0  0  0
 27 28  1  0  0  0  0
 28 29  1  0  0  0  0
 29 30  1  0  0  0  0
 30 31  1  0  0  0  0
 31 32  1  0  0  0  0
 32 33  2  0  0  0  0
 33 34  1  0  0  0  0
 34 35  1  0  0  0  0
 32 36  1  0  0  0  0
 36 37  1  0  0  0  0
 37 38  1  0  0  0  0
 38 39  1  0  0  0  0
 39 40  1  0  0  0  0
 40 41  1  0  0  0  0
 41 42  1  0  0  0  0
 40 43  2  0  0  0  0
 43 44  1  0  0  0  0
 44 45  1  0  0  0  0
 45 46  1  0  0  0  0
 46 47  1  0  0  0  0
 47 48  1  0  0  0  0
 48 49  1  0  0  0  0
 49 50  1  0  0  0  0
 50 51  1  0  0  0  0
 51 52  1  0  0  0  0
 52 53  1  0  0  0  0
 50 54  1  0  0  0  0
 54 55  1  0  0  0  0
 47 56  1  0  0  0  0
 56 57  1  0  0  0  0
 43 58  1  0  0  0  0
 58 59  2  0  0  0  0
 59 60  1  0  0  0  0
 60 61  2  0  0  0  0
 60 62  1  0  0  0  0
 62 63  2  0  0  0  0
 63 64  1  0  0  0  0
 64 65  2  0  0  0  0
 65 66  1  0  0  0  0
 66 67  1  0  0  0  0
 67 68  1  0  0  0  0
 66 69  2  0  0  0  0
 69 70  1  0  0  0  0
 70 71  2  0  0  0  0
 71 72  1  0  0  0  0
 72 73  3  0  0  0  0
 71 74  1  0  0  0  0
 74 75  3  0  0  0  0
 17  2  1  0  0  0  0
 53 23  1  0  0  0  0
 70 59  1  0  0  0  0
 16  5  1  0  0  0  0
 52 27  2  0  0  0  0
 69 62  1  0  0  0  0
 14  7  1  0  0  0  0
 51 29  2  0  0  0  0
 49 30  2  0  0  0  0
 35 31  2  0  0  0  0
 48 36  2  0  0  0  0
 46 37  2  0  0  0  0
 45 39  2  0  0  0  0
  1 76  1  0  0  0  0
  6 77  1  0  0  0  0
  8 78  1  0  0  0  0
 13 79  1  0  0  0  0
 15 80  1  0  0  0  0
 25 81  1  0  0  0  0
 25 82  1  0  0  0  0
 26 83  1  0  0  0  0
 26 84  1  0  0  0  0
 26 85  1  0  0  0  0
 41 86  1  0  0  0  0
 41 87  1  0  0  0  0
 42 88  1  0  0  0  0
 42 89  1  0  0  0  0
 42 90  1  0  0  0  0
 54 91  1  0  0  0  0
 54 92  1  0  0  0  0
 55 93  1  0  0  0  0
 55 94  1  0  0  0  0
 55 95  1  0  0  0  0
 56 96  1  0  0  0  0
 56 97  1  0  0  0  0
 57 98  1  0  0  0  0
 57 99  1  0  0  0  0
 57100  1  0  0  0  0
 58101  1  0  0  0  0
 63102  1  0  0  0  0
 64103  1  0  0  0  0
 65104  1  0  0  0  0
 68105  1  0  0  0  0
 68106  1  0  0  0  0
 68107  1  0  0  0  0
M  END
