
  xtb     02012219143D
 energy: -202.253255511836 gnorm: 0.000242871126 xtb: 6.4.1 (unknown)
109121  0     0  0            999 V2000
   -3.0341   -1.4835    7.0938 C   0  0  0  0  0  0  0  0  0  0  0  0
   -3.5587   -0.2538    7.4215 C   0  0  0  0  0  0  0  0  0  0  0  0
   -3.3289    0.9994    6.7034 C   0  0  0  0  0  0  0  0  0  0  0  0
   -2.7529    1.1560    5.6392 O   0  0  0  0  0  0  0  0  0  0  0  0
   -3.9235    2.0632    7.5347 C   0  0  0  0  0  0  0  0  0  0  0  0
   -3.9188    3.4123    7.3318 C   0  0  0  0  0  0  0  0  0  0  0  0
   -4.5289    4.2519    8.2910 C   0  0  0  0  0  0  0  0  0  0  0  0
   -4.5415    5.6518    8.1396 C   0  0  0  0  0  0  0  0  0  0  0  0
   -5.1299    6.4411    9.0879 C   0  0  0  0  0  0  0  0  0  0  0  0
   -5.1374    7.7740    8.9432 F   0  0  0  0  0  0  0  0  0  0  0  0
   -5.7318    5.8667   10.2247 C   0  0  0  0  0  0  0  0  0  0  0  0
   -6.3003    6.6652   11.1384 F   0  0  0  0  0  0  0  0  0  0  0  0
   -5.7371    4.5110   10.3983 C   0  0  0  0  0  0  0  0  0  0  0  0
   -5.1372    3.6699    9.4401 C   0  0  0  0  0  0  0  0  0  0  0  0
   -5.1319    2.2667    9.6172 C   0  0  0  0  0  0  0  0  0  0  0  0
   -4.5312    1.4725    8.6776 C   0  0  0  0  0  0  0  0  0  0  0  0
   -4.3512    0.0237    8.6005 C   0  0  0  0  0  0  0  0  0  0  0  0
   -4.8775   -0.8830    9.4867 C   0  0  0  0  0  0  0  0  0  0  0  0
   -4.7531   -2.2845    9.4008 C   0  0  0  0  0  0  0  0  0  0  0  0
   -4.7057   -3.4329    9.3952 N   0  0  0  0  0  0  0  0  0  0  0  0
   -5.6494   -0.5288   10.6123 C   0  0  0  0  0  0  0  0  0  0  0  0
   -6.2817   -0.3093   11.5454 N   0  0  0  0  0  0  0  0  0  0  0  0
   -2.2292   -1.8815    6.0258 C   0  0  0  0  0  0  0  0  0  0  0  0
   -1.6967   -3.1799    5.9148 C   0  0  0  0  0  0  0  0  0  0  0  0
   -1.9570   -4.3171    6.8471 C   0  0  0  0  0  0  0  0  0  0  0  0
   -3.2790   -5.0091    6.5028 C   0  0  0  0  0  0  0  0  0  0  0  0
   -0.9107   -3.3080    4.7803 C   0  0  0  0  0  0  0  0  0  0  0  0
    0.0500   -4.6404    4.1661 S   0  0  0  0  0  0  0  0  0  0  0  0
    0.5504   -3.6276    2.8588 C   0  0  0  0  0  0  0  0  0  0  0  0
    1.4103   -3.6782    1.7569 C   0  0  0  0  0  0  0  0  0  0  0  0
    2.3404   -4.6661    1.3629 C   0  0  0  0  0  0  0  0  0  0  0  0
    3.2304   -4.3798    0.2780 C   0  0  0  0  0  0  0  0  0  0  0  0
    4.0939   -5.3585    0.0592 N   0  0  0  0  0  0  0  0  0  0  0  0
    3.8068   -6.5428    1.1255 S   0  0  0  0  0  0  0  0  0  0  0  0
    2.5705   -5.8496    1.9084 N   0  0  0  0  0  0  0  0  0  0  0  0
    3.0559   -3.1783   -0.4444 C   0  0  0  0  0  0  0  0  0  0  0  0
    3.6749   -2.7208   -1.6132 C   0  0  0  0  0  0  0  0  0  0  0  0
    4.9490   -3.1911   -2.6826 S   0  0  0  0  0  0  0  0  0  0  0  0
    4.5629   -1.8116   -3.6910 C   0  0  0  0  0  0  0  0  0  0  0  0
    5.1060   -1.3515   -4.8858 C   0  0  0  0  0  0  0  0  0  0  0  0
    6.2386   -2.0390   -5.5771 C   0  0  0  0  0  0  0  0  0  0  0  0
    5.7249   -2.9950   -6.6567 C   0  0  0  0  0  0  0  0  0  0  0  0
    4.4178   -0.2271   -5.3583 C   0  0  0  0  0  0  0  0  0  0  0  0
    3.1104    0.2565   -4.2796 S   0  0  0  0  0  0  0  0  0  0  0  0
    3.4950   -1.0384   -3.2080 C   0  0  0  0  0  0  0  0  0  0  0  0
    3.0048   -1.5552   -2.0028 C   0  0  0  0  0  0  0  0  0  0  0  0
    2.0314   -1.2508   -1.0901 N   0  0  0  0  0  0  0  0  0  0  0  0
    2.0457   -2.2282   -0.1097 C   0  0  0  0  0  0  0  0  0  0  0  0
    1.3017   -2.4233    1.0856 C   0  0  0  0  0  0  0  0  0  0  0  0
    0.4275   -1.6256    1.8018 N   0  0  0  0  0  0  0  0  0  0  0  0
   -0.0151   -2.3457    2.8796 C   0  0  0  0  0  0  0  0  0  0  0  0
   -0.8406   -2.1454    3.9898 C   0  0  0  0  0  0  0  0  0  0  0  0
   -1.7373   -0.8456    4.6816 S   0  0  0  0  0  0  0  0  0  0  0  0
    0.2242   -0.1942    1.7657 C   0  0  0  0  0  0  0  0  0  0  0  0
    1.5273    0.5631    2.0065 C   0  0  0  0  0  0  0  0  0  0  0  0
    1.0155   -0.2773   -1.4247 C   0  0  0  0  0  0  0  0  0  0  0  0
   -0.3345   -0.9413   -1.6818 C   0  0  0  0  0  0  0  0  0  0  0  0
    4.7311    0.4249   -6.5609 C   0  0  0  0  0  0  0  0  0  0  0  0
    4.0987    1.4463   -7.2082 C   0  0  0  0  0  0  0  0  0  0  0  0
    4.7045    2.0332   -8.7536 S   0  0  0  0  0  0  0  0  0  0  0  0
    3.3643    3.1419   -8.9049 C   0  0  0  0  0  0  0  0  0  0  0  0
    3.2654    3.9719   -9.9926 C   0  0  0  0  0  0  0  0  0  0  0  0
    4.2323    3.8835  -11.0155 C   0  0  0  0  0  0  0  0  0  0  0  0
    5.0138    3.8112  -11.8520 N   0  0  0  0  0  0  0  0  0  0  0  0
    2.2999    4.9703  -10.1968 C   0  0  0  0  0  0  0  0  0  0  0  0
    1.5646    5.8263  -10.4110 N   0  0  0  0  0  0  0  0  0  0  0  0
    2.5291    3.0544   -7.8349 N   0  0  0  0  0  0  0  0  0  0  0  0
    1.2356    3.7043   -7.7612 C   0  0  0  0  0  0  0  0  0  0  0  0
    0.2595    3.1248   -8.7578 C   0  0  0  0  0  0  0  0  0  0  0  0
   -0.6780    3.9424   -9.3734 C   0  0  0  0  0  0  0  0  0  0  0  0
   -1.5758    3.4120  -10.2823 C   0  0  0  0  0  0  0  0  0  0  0  0
   -1.5440    2.0618  -10.5867 C   0  0  0  0  0  0  0  0  0  0  0  0
   -0.6178    1.2400   -9.9687 C   0  0  0  0  0  0  0  0  0  0  0  0
    0.2769    1.7682   -9.0552 C   0  0  0  0  0  0  0  0  0  0  0  0
    2.8872    2.1458   -6.8490 C   0  0  0  0  0  0  0  0  0  0  0  0
    2.2270    1.9976   -5.8349 O   0  0  0  0  0  0  0  0  0  0  0  0
   -3.2455   -2.2838    7.7901 H   0  0  0  0  0  0  0  0  0  0  0  0
   -3.4507    3.8347    6.4557 H   0  0  0  0  0  0  0  0  0  0  0  0
   -4.0844    6.1076    7.2753 H   0  0  0  0  0  0  0  0  0  0  0  0
   -6.2024    4.0869   11.2744 H   0  0  0  0  0  0  0  0  0  0  0  0
   -5.5977    1.8587   10.4994 H   0  0  0  0  0  0  0  0  0  0  0  0
   -1.9848   -3.9789    7.8838 H   0  0  0  0  0  0  0  0  0  0  0  0
   -1.1409   -5.0350    6.7433 H   0  0  0  0  0  0  0  0  0  0  0  0
   -4.1151   -4.3238    6.6175 H   0  0  0  0  0  0  0  0  0  0  0  0
   -3.2607   -5.3707    5.4773 H   0  0  0  0  0  0  0  0  0  0  0  0
   -3.4358   -5.8525    7.1688 H   0  0  0  0  0  0  0  0  0  0  0  0
    6.7952   -2.6103   -4.8317 H   0  0  0  0  0  0  0  0  0  0  0  0
    6.9172   -1.3089   -6.0217 H   0  0  0  0  0  0  0  0  0  0  0  0
    5.1592   -2.4560   -7.4133 H   0  0  0  0  0  0  0  0  0  0  0  0
    5.0779   -3.7477   -6.2132 H   0  0  0  0  0  0  0  0  0  0  0  0
    6.5603   -3.4966   -7.1378 H   0  0  0  0  0  0  0  0  0  0  0  0
   -0.4806    0.0398    2.5671 H   0  0  0  0  0  0  0  0  0  0  0  0
   -0.2455    0.1026    0.8275 H   0  0  0  0  0  0  0  0  0  0  0  0
    1.9206    0.3203    2.9908 H   0  0  0  0  0  0  0  0  0  0  0  0
    2.2802    0.3027    1.2660 H   0  0  0  0  0  0  0  0  0  0  0  0
    1.3450    1.6332    1.9628 H   0  0  0  0  0  0  0  0  0  0  0  0
    0.9463    0.4869   -0.6499 H   0  0  0  0  0  0  0  0  0  0  0  0
    1.3509    0.2196   -2.3383 H   0  0  0  0  0  0  0  0  0  0  0  0
   -1.0759   -0.1857   -1.9263 H   0  0  0  0  0  0  0  0  0  0  0  0
   -0.2552   -1.6302   -2.5194 H   0  0  0  0  0  0  0  0  0  0  0  0
   -0.6739   -1.5006   -0.8130 H   0  0  0  0  0  0  0  0  0  0  0  0
    5.6077    0.0368   -7.0655 H   0  0  0  0  0  0  0  0  0  0  0  0
    1.3478    4.7806   -7.9101 H   0  0  0  0  0  0  0  0  0  0  0  0
    0.8788    3.5224   -6.7398 H   0  0  0  0  0  0  0  0  0  0  0  0
   -0.6957    4.9982   -9.1508 H   0  0  0  0  0  0  0  0  0  0  0  0
   -2.2965    4.0581  -10.7598 H   0  0  0  0  0  0  0  0  0  0  0  0
   -2.2388    1.6501  -11.3031 H   0  0  0  0  0  0  0  0  0  0  0  0
   -0.5896    0.1847  -10.1965 H   0  0  0  0  0  0  0  0  0  0  0  0
    0.9881    1.1137   -8.5692 H   0  0  0  0  0  0  0  0  0  0  0  0
  1  2  2  0  0  0  0
  2  3  1  0  0  0  0
  3  4  2  0  0  0  0
  3  5  1  0  0  0  0
  5  6  2  0  0  0  0
  6  7  1  0  0  0  0
  7  8  2  0  0  0  0
  8  9  1  0  0  0  0
  9 10  1  0  0  0  0
  9 11  2  0  0  0  0
 11 12  1  0  0  0  0
 11 13  1  0  0  0  0
 13 14  2  0  0  0  0
 14 15  1  0  0  0  0
 15 16  2  0  0  0  0
 16 17  1  0  0  0  0
 17 18  2  0  0  0  0
 18 19  1  0  0  0  0
 19 20  3  0  0  0  0
 18 21  1  0  0  0  0
 21 22  3  0  0  0  0
  1 23  1  0  0  0  0
 23 24  2  0  0  0  0
 24 25  1  0  0  0  0
 25 26  1  0  0  0  0
 24 27  1  0  0  0  0
 27 28  1  0  0  0  0
 28 29  1  0  0  0  0
 29 30  1  0  0  0  0
 30 31  1  0  0  0  0
 31 32  1  0  0  0  0
 32 33  2  0  0  0  0
 33 34  1  0  0  0  0
 34 35  1  0  0  0  0
 32 36  1  0  0  0  0
 36 37  1  0  0  0  0
 37 38  1  0  0  0  0
 38 39  1  0  0  0  0
 39 40  1  0  0  0  0
 40 41  1  0  0  0  0
 41 42  1  0  0  0  0
 40 43  2  0  0  0  0
 43 44  1  0  0  0  0
 44 45  1  0  0  0  0
 45 46  1  0  0  0  0
 46 47  1  0  0  0  0
 47 48  1  0  0  0  0
 48 49  1  0  0  0  0
 49 50  1  0  0  0  0
 50 51  1  0  0  0  0
 51 52  1  0  0  0  0
 52 53  1  0  0  0  0
 50 54  1  0  0  0  0
 54 55  1  0  0  0  0
 47 56  1  0  0  0  0
 56 57  1  0  0  0  0
 43 58  1  0  0  0  0
 58 59  2  0  0  0  0
 59 60  1  0  0  0  0
 60 61  1  0  0  0  0
 61 62  2  0  0  0  0
 62 63  1  0  0  0  0
 63 64  3  0  0  0  0
 62 65  1  0  0  0  0
 65 66  3  0  0  0  0
 61 67  1  0  0  0  0
 67 68  1  0  0  0  0
 68 69  1  0  0  0  0
 69 70  2  0  0  0  0
 70 71  1  0  0  0  0
 71 72  2  0  0  0  0
 72 73  1  0  0  0  0
 73 74  2  0  0  0  0
 67 75  1  0  0  0  0
 75 76  2  0  0  0  0
 17  2  1  0  0  0  0
 53 23  1  0  0  0  0
 75 59  1  0  0  0  0
 16  5  1  0  0  0  0
 52 27  2  0  0  0  0
 74 69  1  0  0  0  0
 14  7  1  0  0  0  0
 51 29  2  0  0  0  0
 49 30  2  0  0  0  0
 35 31  2  0  0  0  0
 48 36  2  0  0  0  0
 46 37  2  0  0  0  0
 45 39  2  0  0  0  0
  1 77  1  0  0  0  0
  6 78  1  0  0  0  0
  8 79  1  0  0  0  0
 13 80  1  0  0  0  0
 15 81  1  0  0  0  0
 25 82  1  0  0  0  0
 25 83  1  0  0  0  0
 26 84  1  0  0  0  0
 26 85  1  0  0  0  0
 26 86  1  0  0  0  0
 41 87  1  0  0  0  0
 41 88  1  0  0  0  0
 42 89  1  0  0  0  0
 42 90  1  0  0  0  0
 42 91  1  0  0  0  0
 54 92  1  0  0  0  0
 54 93  1  0  0  0  0
 55 94  1  0  0  0  0
 55 95  1  0  0  0  0
 55 96  1  0  0  0  0
 56 97  1  0  0  0  0
 56 98  1  0  0  0  0
 57 99  1  0  0  0  0
 57100  1  0  0  0  0
 57101  1  0  0  0  0
 58102  1  0  0  0  0
 68103  1  0  0  0  0
 68104  1  0  0  0  0
 70105  1  0  0  0  0
 71106  1  0  0  0  0
 72107  1  0  0  0  0
 73108  1  0  0  0  0
 74109  1  0  0  0  0
M  END
