
  xtb     02012220393D
 energy: -198.725712388925 gnorm: 0.000429325035 xtb: 6.4.1 (unknown)
109121  0     0  0            999 V2000
    3.6438    0.0349    7.0829 C   0  0  0  0  0  0  0  0  0  0  0  0
    4.6025    1.0151    6.9498 C   0  0  0  0  0  0  0  0  0  0  0  0
    4.9230    1.7449    5.7246 C   0  0  0  0  0  0  0  0  0  0  0  0
    4.3875    1.6449    4.6324 O   0  0  0  0  0  0  0  0  0  0  0  0
    6.0394    2.6474    6.0628 C   0  0  0  0  0  0  0  0  0  0  0  0
    6.7063    3.5225    5.2564 C   0  0  0  0  0  0  0  0  0  0  0  0
    7.7581    4.2923    5.8024 C   0  0  0  0  0  0  0  0  0  0  0  0
    8.4821    5.2089    5.0162 C   0  0  0  0  0  0  0  0  0  0  0  0
    9.4950    5.9407    5.5702 C   0  0  0  0  0  0  0  0  0  0  0  0
   10.1834    6.8127    4.8193 F   0  0  0  0  0  0  0  0  0  0  0  0
    9.8267    5.7885    6.9307 C   0  0  0  0  0  0  0  0  0  0  0  0
   10.8240    6.5199    7.4471 F   0  0  0  0  0  0  0  0  0  0  0  0
    9.1422    4.9062    7.7189 C   0  0  0  0  0  0  0  0  0  0  0  0
    8.0932    4.1364    7.1781 C   0  0  0  0  0  0  0  0  0  0  0  0
    7.3816    3.2203    7.9874 C   0  0  0  0  0  0  0  0  0  0  0  0
    6.3667    2.4836    7.4376 C   0  0  0  0  0  0  0  0  0  0  0  0
    5.4724    1.4776    8.0097 C   0  0  0  0  0  0  0  0  0  0  0  0
    5.4769    1.0805    9.3245 C   0  0  0  0  0  0  0  0  0  0  0  0
    6.3573    1.5919   10.2999 C   0  0  0  0  0  0  0  0  0  0  0  0
    7.0426    1.9647   11.1426 N   0  0  0  0  0  0  0  0  0  0  0  0
    4.6175    0.1244    9.9024 C   0  0  0  0  0  0  0  0  0  0  0  0
    3.9539   -0.6378   10.4501 N   0  0  0  0  0  0  0  0  0  0  0  0
    2.7410   -0.4966    6.1627 C   0  0  0  0  0  0  0  0  0  0  0  0
    1.8354   -1.5254    6.4900 C   0  0  0  0  0  0  0  0  0  0  0  0
    1.7488   -2.2245    7.8069 C   0  0  0  0  0  0  0  0  0  0  0  0
    2.8029   -3.3308    7.9062 C   0  0  0  0  0  0  0  0  0  0  0  0
    1.0465   -1.8675    5.4037 C   0  0  0  0  0  0  0  0  0  0  0  0
   -0.2228   -3.0615    5.2020 S   0  0  0  0  0  0  0  0  0  0  0  0
   -0.3975   -2.5480    3.5609 C   0  0  0  0  0  0  0  0  0  0  0  0
   -1.1313   -2.8912    2.4200 C   0  0  0  0  0  0  0  0  0  0  0  0
   -2.0265   -3.9574    2.1793 C   0  0  0  0  0  0  0  0  0  0  0  0
   -2.5127   -4.1636    0.8467 C   0  0  0  0  0  0  0  0  0  0  0  0
   -3.2851   -5.2338    0.7504 N   0  0  0  0  0  0  0  0  0  0  0  0
   -3.3967   -5.9200    2.2120 S   0  0  0  0  0  0  0  0  0  0  0  0
   -2.4605   -4.8783    3.0249 N   0  0  0  0  0  0  0  0  0  0  0  0
   -2.1876   -3.2185   -0.1522 C   0  0  0  0  0  0  0  0  0  0  0  0
   -2.6324   -3.0918   -1.4747 C   0  0  0  0  0  0  0  0  0  0  0  0
   -3.6301   -3.9368   -2.6062 S   0  0  0  0  0  0  0  0  0  0  0  0
   -3.3746   -2.6335   -3.7527 C   0  0  0  0  0  0  0  0  0  0  0  0
   -3.8480   -2.4166   -5.0405 C   0  0  0  0  0  0  0  0  0  0  0  0
   -4.7034   -3.4055   -5.7628 C   0  0  0  0  0  0  0  0  0  0  0  0
   -3.8506   -4.3179   -6.6486 C   0  0  0  0  0  0  0  0  0  0  0  0
   -3.3755   -1.2001   -5.5608 C   0  0  0  0  0  0  0  0  0  0  0  0
   -2.3441   -0.3408   -4.4160 S   0  0  0  0  0  0  0  0  0  0  0  0
   -2.5485   -1.6074   -3.2649 C   0  0  0  0  0  0  0  0  0  0  0  0
   -2.1202   -1.8842   -1.9629 C   0  0  0  0  0  0  0  0  0  0  0  0
   -1.3435   -1.2796   -1.0087 N   0  0  0  0  0  0  0  0  0  0  0  0
   -1.3626   -2.0866    0.1176 C   0  0  0  0  0  0  0  0  0  0  0  0
   -0.7244   -1.9986    1.3824 C   0  0  0  0  0  0  0  0  0  0  0  0
    0.2713   -1.1828    1.8790 N   0  0  0  0  0  0  0  0  0  0  0  0
    0.4664   -1.5057    3.1960 C   0  0  0  0  0  0  0  0  0  0  0  0
    1.3069   -1.1168    4.2408 C   0  0  0  0  0  0  0  0  0  0  0  0
    2.5740    0.0256    4.4838 S   0  0  0  0  0  0  0  0  0  0  0  0
    1.2458   -0.3654    1.1920 C   0  0  0  0  0  0  0  0  0  0  0  0
    1.0428    1.1250    1.4607 C   0  0  0  0  0  0  0  0  0  0  0  0
   -1.1263    0.1476   -1.1198 C   0  0  0  0  0  0  0  0  0  0  0  0
   -2.2689    0.9221   -0.4663 C   0  0  0  0  0  0  0  0  0  0  0  0
   -3.7047   -0.7437   -6.8428 C   0  0  0  0  0  0  0  0  0  0  0  0
   -3.3468    0.3993   -7.5115 C   0  0  0  0  0  0  0  0  0  0  0  0
   -2.4877    1.4730   -6.9993 C   0  0  0  0  0  0  0  0  0  0  0  0
   -1.9475    1.5342   -5.9066 O   0  0  0  0  0  0  0  0  0  0  0  0
   -2.4088    2.4773   -8.0700 C   0  0  0  0  0  0  0  0  0  0  0  0
   -1.7296    3.6777   -8.0915 C   0  0  0  0  0  0  0  0  0  0  0  0
   -1.7996    4.4823   -9.2243 C   0  0  0  0  0  0  0  0  0  0  0  0
   -1.0692    5.7864   -9.2603 C   0  0  0  0  0  0  0  0  0  0  0  0
   -2.5587    4.0622  -10.3270 C   0  0  0  0  0  0  0  0  0  0  0  0
   -2.6434    4.9175  -11.5506 C   0  0  0  0  0  0  0  0  0  0  0  0
   -3.2404    2.8481  -10.2965 C   0  0  0  0  0  0  0  0  0  0  0  0
   -3.1711    2.0478   -9.1692 C   0  0  0  0  0  0  0  0  0  0  0  0
   -3.7695    0.7534   -8.8533 C   0  0  0  0  0  0  0  0  0  0  0  0
   -4.5800    0.0315   -9.6926 C   0  0  0  0  0  0  0  0  0  0  0  0
   -4.9480    0.4512  -10.9880 C   0  0  0  0  0  0  0  0  0  0  0  0
   -5.2866    0.7297  -12.0493 N   0  0  0  0  0  0  0  0  0  0  0  0
   -5.1659   -1.2182   -9.4060 C   0  0  0  0  0  0  0  0  0  0  0  0
   -5.6792   -2.2354   -9.2526 N   0  0  0  0  0  0  0  0  0  0  0  0
    3.5661   -0.4135    8.0636 H   0  0  0  0  0  0  0  0  0  0  0  0
    6.4364    3.6263    4.2164 H   0  0  0  0  0  0  0  0  0  0  0  0
    8.2403    5.3372    3.9727 H   0  0  0  0  0  0  0  0  0  0  0  0
    9.4090    4.8017    8.7590 H   0  0  0  0  0  0  0  0  0  0  0  0
    7.6623    3.1262    9.0237 H   0  0  0  0  0  0  0  0  0  0  0  0
    0.7560   -2.6710    7.8905 H   0  0  0  0  0  0  0  0  0  0  0  0
    1.8796   -1.5246    8.6335 H   0  0  0  0  0  0  0  0  0  0  0  0
    2.7179   -3.8337    8.8652 H   0  0  0  0  0  0  0  0  0  0  0  0
    3.8053   -2.9176    7.8217 H   0  0  0  0  0  0  0  0  0  0  0  0
    2.6601   -4.0617    7.1136 H   0  0  0  0  0  0  0  0  0  0  0  0
   -5.4533   -2.9041   -6.3763 H   0  0  0  0  0  0  0  0  0  0  0  0
   -5.2216   -4.0144   -5.0191 H   0  0  0  0  0  0  0  0  0  0  0  0
   -3.3219   -3.7386   -7.4019 H   0  0  0  0  0  0  0  0  0  0  0  0
   -4.4868   -5.0387   -7.1539 H   0  0  0  0  0  0  0  0  0  0  0  0
   -3.1211   -4.8551   -6.0468 H   0  0  0  0  0  0  0  0  0  0  0  0
    1.2170   -0.6052    0.1281 H   0  0  0  0  0  0  0  0  0  0  0  0
    2.2352   -0.6509    1.5659 H   0  0  0  0  0  0  0  0  0  0  0  0
    0.0179    1.4304    1.2677 H   0  0  0  0  0  0  0  0  0  0  0  0
    1.7111    1.7058    0.8312 H   0  0  0  0  0  0  0  0  0  0  0  0
    1.2761    1.3488    2.4980 H   0  0  0  0  0  0  0  0  0  0  0  0
   -0.1778    0.4382   -0.6814 H   0  0  0  0  0  0  0  0  0  0  0  0
   -1.0905    0.3776   -2.1876 H   0  0  0  0  0  0  0  0  0  0  0  0
   -2.3401    0.6811    0.5928 H   0  0  0  0  0  0  0  0  0  0  0  0
   -3.2144    0.6701   -0.9408 H   0  0  0  0  0  0  0  0  0  0  0  0
   -2.1015    1.9899   -0.5762 H   0  0  0  0  0  0  0  0  0  0  0  0
   -4.3529   -1.4218   -7.3808 H   0  0  0  0  0  0  0  0  0  0  0  0
   -1.1521    3.9810   -7.2308 H   0  0  0  0  0  0  0  0  0  0  0  0
   -0.5291    5.9511   -8.3319 H   0  0  0  0  0  0  0  0  0  0  0  0
   -0.3580    5.8049  -10.0854 H   0  0  0  0  0  0  0  0  0  0  0  0
   -1.7656    6.6112   -9.4089 H   0  0  0  0  0  0  0  0  0  0  0  0
   -3.2749    4.4532  -12.3029 H   0  0  0  0  0  0  0  0  0  0  0  0
   -1.6530    5.0750  -11.9765 H   0  0  0  0  0  0  0  0  0  0  0  0
   -3.0551    5.8961  -11.3058 H   0  0  0  0  0  0  0  0  0  0  0  0
   -3.8159    2.5496  -11.1578 H   0  0  0  0  0  0  0  0  0  0  0  0
  1  2  2  0  0  0  0
  2  3  1  0  0  0  0
  3  4  2  0  0  0  0
  3  5  1  0  0  0  0
  5  6  2  0  0  0  0
  6  7  1  0  0  0  0
  7  8  2  0  0  0  0
  8  9  1  0  0  0  0
  9 10  1  0  0  0  0
  9 11  2  0  0  0  0
 11 12  1  0  0  0  0
 11 13  1  0  0  0  0
 13 14  2  0  0  0  0
 14 15  1  0  0  0  0
 15 16  2  0  0  0  0
 16 17  1  0  0  0  0
 17 18  2  0  0  0  0
 18 19  1  0  0  0  0
 19 20  3  0  0  0  0
 18 21  1  0  0  0  0
 21 22  3  0  0  0  0
  1 23  1  0  0  0  0
 23 24  2  0  0  0  0
 24 25  1  0  0  0  0
 25 26  1  0  0  0  0
 24 27  1  0  0  0  0
 27 28  1  0  0  0  0
 28 29  1  0  0  0  0
 29 30  1  0  0  0  0
 30 31  1  0  0  0  0
 31 32  1  0  0  0  0
 32 33  2  0  0  0  0
 33 34  1  0  0  0  0
 34 35  1  0  0  0  0
 32 36  1  0  0  0  0
 36 37  1  0  0  0  0
 37 38  1  0  0  0  0
 38 39  1  0  0  0  0
 39 40  1  0  0  0  0
 40 41  1  0  0  0  0
 41 42  1  0  0  0  0
 40 43  2  0  0  0  0
 43 44  1  0  0  0  0
 44 45  1  0  0  0  0
 45 46  1  0  0  0  0
 46 47  1  0  0  0  0
 47 48  1  0  0  0  0
 48 49  1  0  0  0  0
 49 50  1  0  0  0  0
 50 51  1  0  0  0  0
 51 52  1  0  0  0  0
 52 53  1  0  0  0  0
 50 54  1  0  0  0  0
 54 55  1  0  0  0  0
 47 56  1  0  0  0  0
 56 57  1  0  0  0  0
 43 58  1  0  0  0  0
 58 59  2  0  0  0  0
 59 60  1  0  0  0  0
 60 61  2  0  0  0  0
 60 62  1  0  0  0  0
 62 63  2  0  0  0  0
 63 64  1  0  0  0  0
 64 65  1  0  0  0  0
 64 66  2  0  0  0  0
 66 67  1  0  0  0  0
 66 68  1  0  0  0  0
 68 69  2  0  0  0  0
 69 70  1  0  0  0  0
 70 71  2  0  0  0  0
 71 72  1  0  0  0  0
 72 73  3  0  0  0  0
 71 74  1  0  0  0  0
 74 75  3  0  0  0  0
 17  2  1  0  0  0  0
 53 23  1  0  0  0  0
 70 59  1  0  0  0  0
 16  5  1  0  0  0  0
 52 27  2  0  0  0  0
 69 62  1  0  0  0  0
 14  7  1  0  0  0  0
 51 29  2  0  0  0  0
 49 30  2  0  0  0  0
 35 31  2  0  0  0  0
 48 36  2  0  0  0  0
 46 37  2  0  0  0  0
 45 39  2  0  0  0  0
  1 76  1  0  0  0  0
  6 77  1  0  0  0  0
  8 78  1  0  0  0  0
 13 79  1  0  0  0  0
 15 80  1  0  0  0  0
 25 81  1  0  0  0  0
 25 82  1  0  0  0  0
 26 83  1  0  0  0  0
 26 84  1  0  0  0  0
 26 85  1  0  0  0  0
 41 86  1  0  0  0  0
 41 87  1  0  0  0  0
 42 88  1  0  0  0  0
 42 89  1  0  0  0  0
 42 90  1  0  0  0  0
 54 91  1  0  0  0  0
 54 92  1  0  0  0  0
 55 93  1  0  0  0  0
 55 94  1  0  0  0  0
 55 95  1  0  0  0  0
 56 96  1  0  0  0  0
 56 97  1  0  0  0  0
 57 98  1  0  0  0  0
 57 99  1  0  0  0  0
 57100  1  0  0  0  0
 58101  1  0  0  0  0
 63102  1  0  0  0  0
 65103  1  0  0  0  0
 65104  1  0  0  0  0
 65105  1  0  0  0  0
 67106  1  0  0  0  0
 67107  1  0  0  0  0
 67108  1  0  0  0  0
 68109  1  0  0  0  0
M  END
