
  xtb     02012220563D
 energy: -195.554406739956 gnorm: 0.000863750210 xtb: 6.4.1 (unknown)
106118  0     0  0            999 V2000
    3.7513    6.9988    0.5131 C   0  0  0  0  0  0  0  0  0  0  0  0
    4.3478    7.1008   -0.7241 C   0  0  0  0  0  0  0  0  0  0  0  0
    4.2871    6.1057   -1.7931 C   0  0  0  0  0  0  0  0  0  0  0  0
    3.7061    5.0325   -1.7838 O   0  0  0  0  0  0  0  0  0  0  0  0
    5.0738    6.6557   -2.9130 C   0  0  0  0  0  0  0  0  0  0  0  0
    5.3181    6.1068   -4.1377 C   0  0  0  0  0  0  0  0  0  0  0  0
    6.1025    6.8263   -5.0671 C   0  0  0  0  0  0  0  0  0  0  0  0
    6.3844    6.3094   -6.3461 C   0  0  0  0  0  0  0  0  0  0  0  0
    7.1441    7.0281   -7.2263 C   0  0  0  0  0  0  0  0  0  0  0  0
    7.4107    6.5340   -8.4440 F   0  0  0  0  0  0  0  0  0  0  0  0
    7.6540    8.2910   -6.8668 C   0  0  0  0  0  0  0  0  0  0  0  0
    8.3955    8.9732   -7.7505 F   0  0  0  0  0  0  0  0  0  0  0  0
    7.3979    8.8186   -5.6321 C   0  0  0  0  0  0  0  0  0  0  0  0
    6.6177    8.1032   -4.7020 C   0  0  0  0  0  0  0  0  0  0  0  0
    6.3470    8.6438   -3.4233 C   0  0  0  0  0  0  0  0  0  0  0  0
    5.5838    7.9299   -2.5385 C   0  0  0  0  0  0  0  0  0  0  0  0
    5.1401    8.2243   -1.1762 C   0  0  0  0  0  0  0  0  0  0  0  0
    5.4343    9.3750   -0.4867 C   0  0  0  0  0  0  0  0  0  0  0  0
    5.0127    9.6860    0.8218 C   0  0  0  0  0  0  0  0  0  0  0  0
    4.7106   10.0160    1.8808 N   0  0  0  0  0  0  0  0  0  0  0  0
    6.2127   10.4295   -1.0070 C   0  0  0  0  0  0  0  0  0  0  0  0
    6.8396   11.3220   -1.3663 N   0  0  0  0  0  0  0  0  0  0  0  0
    2.9557    5.9974    1.0688 C   0  0  0  0  0  0  0  0  0  0  0  0
    2.4265    6.0803    2.3717 C   0  0  0  0  0  0  0  0  0  0  0  0
    2.6763    7.1832    3.3472 C   0  0  0  0  0  0  0  0  0  0  0  0
    4.0095    6.9794    4.0722 C   0  0  0  0  0  0  0  0  0  0  0  0
    1.6600    4.9670    2.6773 C   0  0  0  0  0  0  0  0  0  0  0  0
    0.7517    4.5249    4.1113 S   0  0  0  0  0  0  0  0  0  0  0  0
    0.2511    3.0813    3.3041 C   0  0  0  0  0  0  0  0  0  0  0  0
   -0.5751    1.9771    3.5344 C   0  0  0  0  0  0  0  0  0  0  0  0
   -1.4161    1.6803    4.6296 C   0  0  0  0  0  0  0  0  0  0  0  0
   -2.2696    0.5348    4.5503 C   0  0  0  0  0  0  0  0  0  0  0  0
   -3.0413    0.4027    5.6176 N   0  0  0  0  0  0  0  0  0  0  0  0
   -2.7156    1.6162    6.6381 S   0  0  0  0  0  0  0  0  0  0  0  0
   -1.5789    2.3584    5.7546 N   0  0  0  0  0  0  0  0  0  0  0  0
   -2.1734   -0.3071    3.4206 C   0  0  0  0  0  0  0  0  0  0  0  0
   -2.8265   -1.5099    3.1305 C   0  0  0  0  0  0  0  0  0  0  0  0
   -4.0359   -2.5358    3.8176 S   0  0  0  0  0  0  0  0  0  0  0  0
   -3.8289   -3.6259    2.4598 C   0  0  0  0  0  0  0  0  0  0  0  0
   -4.4459   -4.8250    2.1288 C   0  0  0  0  0  0  0  0  0  0  0  0
   -5.5335   -5.4258    2.9581 C   0  0  0  0  0  0  0  0  0  0  0  0
   -6.9089   -4.9786    2.4551 C   0  0  0  0  0  0  0  0  0  0  0  0
   -3.9588   -5.3328    0.9128 C   0  0  0  0  0  0  0  0  0  0  0  0
   -2.7093   -4.3008    0.2133 S   0  0  0  0  0  0  0  0  0  0  0  0
   -2.8625   -3.2002    1.5327 C   0  0  0  0  0  0  0  0  0  0  0  0
   -2.2950   -1.9830    1.9252 C   0  0  0  0  0  0  0  0  0  0  0  0
   -1.3561   -1.1058    1.4525 N   0  0  0  0  0  0  0  0  0  0  0  0
   -1.2647   -0.0530    2.3486 C   0  0  0  0  0  0  0  0  0  0  0  0
   -0.5187    1.1577    2.3651 C   0  0  0  0  0  0  0  0  0  0  0  0
    0.3137    1.7779    1.4501 N   0  0  0  0  0  0  0  0  0  0  0  0
    0.7681    2.9421    2.0097 C   0  0  0  0  0  0  0  0  0  0  0  0
    1.5740    4.0213    1.6376 C   0  0  0  0  0  0  0  0  0  0  0  0
    2.4721    4.5091    0.2496 S   0  0  0  0  0  0  0  0  0  0  0  0
    0.4862    1.5655    0.0305 C   0  0  0  0  0  0  0  0  0  0  0  0
   -0.8185    1.7901   -0.7299 C   0  0  0  0  0  0  0  0  0  0  0  0
   -0.4467   -1.5453    0.4171 C   0  0  0  0  0  0  0  0  0  0  0  0
    0.9390   -1.8433    0.9849 C   0  0  0  0  0  0  0  0  0  0  0  0
   -4.4436   -6.5120    0.3365 C   0  0  0  0  0  0  0  0  0  0  0  0
   -4.1246   -7.1375   -0.8426 C   0  0  0  0  0  0  0  0  0  0  0  0
   -3.1224   -6.6929   -1.8176 C   0  0  0  0  0  0  0  0  0  0  0  0
   -2.3933   -5.7174   -1.7390 O   0  0  0  0  0  0  0  0  0  0  0  0
   -3.1652   -7.6664   -2.9190 C   0  0  0  0  0  0  0  0  0  0  0  0
   -2.4269   -7.7004   -4.0862 C   0  0  0  0  0  0  0  0  0  0  0  0
   -2.6605   -8.7311   -4.9821 C   0  0  0  0  0  0  0  0  0  0  0  0
   -3.6145   -9.7134   -4.7232 C   0  0  0  0  0  0  0  0  0  0  0  0
   -3.8620  -10.7994   -5.7212 C   0  0  0  0  0  0  0  0  0  0  0  0
   -4.3531   -9.6722   -3.5413 C   0  0  0  0  0  0  0  0  0  0  0  0
   -4.1291   -8.6499   -2.6357 C   0  0  0  0  0  0  0  0  0  0  0  0
   -4.7368   -8.3542   -1.3379 C   0  0  0  0  0  0  0  0  0  0  0  0
   -5.7028   -9.1131   -0.7275 C   0  0  0  0  0  0  0  0  0  0  0  0
   -6.2471  -10.2936   -1.2754 C   0  0  0  0  0  0  0  0  0  0  0  0
   -6.7381  -11.2578   -1.6597 N   0  0  0  0  0  0  0  0  0  0  0  0
   -6.2954   -8.8481    0.5244 C   0  0  0  0  0  0  0  0  0  0  0  0
   -6.8237   -8.7081    1.5356 N   0  0  0  0  0  0  0  0  0  0  0  0
    3.9150    7.8321    1.1822 H   0  0  0  0  0  0  0  0  0  0  0  0
    4.9180    5.1378   -4.3950 H   0  0  0  0  0  0  0  0  0  0  0  0
    6.0013    5.3439   -6.6370 H   0  0  0  0  0  0  0  0  0  0  0  0
    7.7958    9.7872   -5.3726 H   0  0  0  0  0  0  0  0  0  0  0  0
    6.7523    9.6123   -3.1798 H   0  0  0  0  0  0  0  0  0  0  0  0
    1.8679    7.1773    4.0810 H   0  0  0  0  0  0  0  0  0  0  0  0
    2.6798    8.1546    2.8505 H   0  0  0  0  0  0  0  0  0  0  0  0
    4.1664    7.7844    4.7841 H   0  0  0  0  0  0  0  0  0  0  0  0
    4.8367    6.9786    3.3663 H   0  0  0  0  0  0  0  0  0  0  0  0
    4.0080    6.0330    4.6079 H   0  0  0  0  0  0  0  0  0  0  0  0
   -5.4038   -5.0854    3.9875 H   0  0  0  0  0  0  0  0  0  0  0  0
   -5.4810   -6.5152    2.9494 H   0  0  0  0  0  0  0  0  0  0  0  0
   -6.9921   -3.8950    2.4948 H   0  0  0  0  0  0  0  0  0  0  0  0
   -7.6865   -5.4125    3.0769 H   0  0  0  0  0  0  0  0  0  0  0  0
   -7.0676   -5.3027    1.4292 H   0  0  0  0  0  0  0  0  0  0  0  0
    0.9015    0.5766   -0.1605 H   0  0  0  0  0  0  0  0  0  0  0  0
    1.2267    2.2955   -0.3053 H   0  0  0  0  0  0  0  0  0  0  0  0
   -1.6084    1.1385   -0.3626 H   0  0  0  0  0  0  0  0  0  0  0  0
   -0.6669    1.5998   -1.7888 H   0  0  0  0  0  0  0  0  0  0  0  0
   -1.1449    2.8203   -0.6082 H   0  0  0  0  0  0  0  0  0  0  0  0
   -0.8697   -2.4635    0.0026 H   0  0  0  0  0  0  0  0  0  0  0  0
   -0.4038   -0.8188   -0.3935 H   0  0  0  0  0  0  0  0  0  0  0  0
    0.8744   -2.6450    1.7169 H   0  0  0  0  0  0  0  0  0  0  0  0
    1.6059   -2.1582    0.1871 H   0  0  0  0  0  0  0  0  0  0  0  0
    1.3625   -0.9698    1.4760 H   0  0  0  0  0  0  0  0  0  0  0  0
   -5.2109   -6.9893    0.9304 H   0  0  0  0  0  0  0  0  0  0  0  0
   -1.6896   -6.9373   -4.2833 H   0  0  0  0  0  0  0  0  0  0  0  0
   -2.0952   -8.7788   -5.9015 H   0  0  0  0  0  0  0  0  0  0  0  0
   -4.4885  -10.4209   -6.5295 H   0  0  0  0  0  0  0  0  0  0  0  0
   -4.3734  -11.6414   -5.2624 H   0  0  0  0  0  0  0  0  0  0  0  0
   -2.9276  -11.1441   -6.1586 H   0  0  0  0  0  0  0  0  0  0  0  0
   -5.0879  -10.4379   -3.3525 H   0  0  0  0  0  0  0  0  0  0  0  0
  1  2  2  0  0  0  0
  2  3  1  0  0  0  0
  3  4  2  0  0  0  0
  3  5  1  0  0  0  0
  5  6  2  0  0  0  0
  6  7  1  0  0  0  0
  7  8  2  0  0  0  0
  8  9  1  0  0  0  0
  9 10  1  0  0  0  0
  9 11  2  0  0  0  0
 11 12  1  0  0  0  0
 11 13  1  0  0  0  0
 13 14  2  0  0  0  0
 14 15  1  0  0  0  0
 15 16  2  0  0  0  0
 16 17  1  0  0  0  0
 17 18  2  0  0  0  0
 18 19  1  0  0  0  0
 19 20  3  0  0  0  0
 18 21  1  0  0  0  0
 21 22  3  0  0  0  0
  1 23  1  0  0  0  0
 23 24  2  0  0  0  0
 24 25  1  0  0  0  0
 25 26  1  0  0  0  0
 24 27  1  0  0  0  0
 27 28  1  0  0  0  0
 28 29  1  0  0  0  0
 29 30  1  0  0  0  0
 30 31  1  0  0  0  0
 31 32  1  0  0  0  0
 32 33  2  0  0  0  0
 33 34  1  0  0  0  0
 34 35  1  0  0  0  0
 32 36  1  0  0  0  0
 36 37  1  0  0  0  0
 37 38  1  0  0  0  0
 38 39  1  0  0  0  0
 39 40  1  0  0  0  0
 40 41  1  0  0  0  0
 41 42  1  0  0  0  0
 40 43  2  0  0  0  0
 43 44  1  0  0  0  0
 44 45  1  0  0  0  0
 45 46  1  0  0  0  0
 46 47  1  0  0  0  0
 47 48  1  0  0  0  0
 48 49  1  0  0  0  0
 49 50  1  0  0  0  0
 50 51  1  0  0  0  0
 51 52  1  0  0  0  0
 52 53  1  0  0  0  0
 50 54  1  0  0  0  0
 54 55  1  0  0  0  0
 47 56  1  0  0  0  0
 56 57  1  0  0  0  0
 43 58  1  0  0  0  0
 58 59  2  0  0  0  0
 59 60  1  0  0  0  0
 60 61  2  0  0  0  0
 60 62  1  0  0  0  0
 62 63  2  0  0  0  0
 63 64  1  0  0  0  0
 64 65  2  0  0  0  0
 65 66  1  0  0  0  0
 65 67  1  0  0  0  0
 67 68  2  0  0  0  0
 68 69  1  0  0  0  0
 69 70  2  0  0  0  0
 70 71  1  0  0  0  0
 71 72  3  0  0  0  0
 70 73  1  0  0  0  0
 73 74  3  0  0  0  0
 17  2  1  0  0  0  0
 53 23  1  0  0  0  0
 69 59  1  0  0  0  0
 16  5  1  0  0  0  0
 52 27  2  0  0  0  0
 68 62  1  0  0  0  0
 14  7  1  0  0  0  0
 51 29  2  0  0  0  0
 49 30  2  0  0  0  0
 35 31  2  0  0  0  0
 48 36  2  0  0  0  0
 46 37  2  0  0  0  0
 45 39  2  0  0  0  0
  1 75  1  0  0  0  0
  6 76  1  0  0  0  0
  8 77  1  0  0  0  0
 13 78  1  0  0  0  0
 15 79  1  0  0  0  0
 25 80  1  0  0  0  0
 25 81  1  0  0  0  0
 26 82  1  0  0  0  0
 26 83  1  0  0  0  0
 26 84  1  0  0  0  0
 41 85  1  0  0  0  0
 41 86  1  0  0  0  0
 42 87  1  0  0  0  0
 42 88  1  0  0  0  0
 42 89  1  0  0  0  0
 54 90  1  0  0  0  0
 54 91  1  0  0  0  0
 55 92  1  0  0  0  0
 55 93  1  0  0  0  0
 55 94  1  0  0  0  0
 56 95  1  0  0  0  0
 56 96  1  0  0  0  0
 57 97  1  0  0  0  0
 57 98  1  0  0  0  0
 57 99  1  0  0  0  0
 58100  1  0  0  0  0
 63101  1  0  0  0  0
 64102  1  0  0  0  0
 66103  1  0  0  0  0
 66104  1  0  0  0  0
 66105  1  0  0  0  0
 67106  1  0  0  0  0
M  END
