
  xtb     02012223513D
 energy: -199.597926011785 gnorm: 0.000361198092 xtb: 6.4.1 (unknown)
107119  0     0  0            999 V2000
   -7.3913    1.8018    2.7014 C   0  0  0  0  0  0  0  0  0  0  0  0
   -7.9269    0.5764    2.4182 C   0  0  0  0  0  0  0  0  0  0  0  0
   -9.3973    0.4180    2.3115 C   0  0  0  0  0  0  0  0  0  0  0  0
  -10.2436    1.2134    2.6541 O   0  0  0  0  0  0  0  0  0  0  0  0
   -9.5987   -0.8873    1.6436 C   0  0  0  0  0  0  0  0  0  0  0  0
  -10.7585   -1.4660    1.2175 C   0  0  0  0  0  0  0  0  0  0  0  0
  -10.7028   -2.7205    0.5682 C   0  0  0  0  0  0  0  0  0  0  0  0
  -11.8709   -3.3621    0.1129 C   0  0  0  0  0  0  0  0  0  0  0  0
  -11.7905   -4.5710   -0.5197 C   0  0  0  0  0  0  0  0  0  0  0  0
  -12.9039   -5.1797   -0.9529 F   0  0  0  0  0  0  0  0  0  0  0  0
  -10.5417   -5.1898   -0.7252 C   0  0  0  0  0  0  0  0  0  0  0  0
  -10.4922   -6.3739   -1.3517 F   0  0  0  0  0  0  0  0  0  0  0  0
   -9.3908   -4.5933   -0.2928 C   0  0  0  0  0  0  0  0  0  0  0  0
   -9.4398   -3.3488    0.3663 C   0  0  0  0  0  0  0  0  0  0  0  0
   -8.2557   -2.7312    0.8304 C   0  0  0  0  0  0  0  0  0  0  0  0
   -8.3363   -1.5222    1.4660 C   0  0  0  0  0  0  0  0  0  0  0  0
   -7.3115   -0.6873    2.0870 C   0  0  0  0  0  0  0  0  0  0  0  0
   -6.0909   -1.1386    2.5243 C   0  0  0  0  0  0  0  0  0  0  0  0
   -5.2687   -0.4149    3.4120 C   0  0  0  0  0  0  0  0  0  0  0  0
   -4.5959    0.1199    4.1737 N   0  0  0  0  0  0  0  0  0  0  0  0
   -5.5505   -2.3950    2.1934 C   0  0  0  0  0  0  0  0  0  0  0  0
   -5.0416   -3.3876    1.9196 N   0  0  0  0  0  0  0  0  0  0  0  0
   -6.0859    2.2632    2.4455 C   0  0  0  0  0  0  0  0  0  0  0  0
   -5.4459    3.3472    3.0403 C   0  0  0  0  0  0  0  0  0  0  0  0
   -6.0411    4.2329    4.0839 C   0  0  0  0  0  0  0  0  0  0  0  0
   -6.6721    5.4691    3.4373 C   0  0  0  0  0  0  0  0  0  0  0  0
   -4.1454    3.4999    2.5556 C   0  0  0  0  0  0  0  0  0  0  0  0
   -2.8384    4.5798    2.9909 S   0  0  0  0  0  0  0  0  0  0  0  0
   -1.8075    3.7394    1.8877 C   0  0  0  0  0  0  0  0  0  0  0  0
   -0.4577    3.7025    1.5110 C   0  0  0  0  0  0  0  0  0  0  0  0
    0.6545    4.4219    2.0014 C   0  0  0  0  0  0  0  0  0  0  0  0
    1.9673    4.0497    1.5620 C   0  0  0  0  0  0  0  0  0  0  0  0
    2.9172    4.7603    2.1494 N   0  0  0  0  0  0  0  0  0  0  0  0
    2.2193    5.8099    3.1645 S   0  0  0  0  0  0  0  0  0  0  0  0
    0.6770    5.3988    2.8942 N   0  0  0  0  0  0  0  0  0  0  0  0
    2.0955    3.0633    0.5597 C   0  0  0  0  0  0  0  0  0  0  0  0
    3.2218    2.5950   -0.1306 C   0  0  0  0  0  0  0  0  0  0  0  0
    4.9407    2.7758   -0.1159 S   0  0  0  0  0  0  0  0  0  0  0  0
    5.0497    1.6830   -1.4777 C   0  0  0  0  0  0  0  0  0  0  0  0
    6.1378    1.1499   -2.1877 C   0  0  0  0  0  0  0  0  0  0  0  0
    7.5580    1.5544   -1.9405 C   0  0  0  0  0  0  0  0  0  0  0  0
    7.9962    1.3306   -0.4930 C   0  0  0  0  0  0  0  0  0  0  0  0
    5.7045    0.3218   -3.2112 C   0  0  0  0  0  0  0  0  0  0  0  0
    3.9505    0.2394   -3.3145 S   0  0  0  0  0  0  0  0  0  0  0  0
    3.7985    1.2428   -1.9256 C   0  0  0  0  0  0  0  0  0  0  0  0
    2.7578    1.7373   -1.1326 C   0  0  0  0  0  0  0  0  0  0  0  0
    1.3963    1.6380   -1.0677 N   0  0  0  0  0  0  0  0  0  0  0  0
    0.9599    2.4168   -0.0136 C   0  0  0  0  0  0  0  0  0  0  0  0
   -0.3184    2.6495    0.5589 C   0  0  0  0  0  0  0  0  0  0  0  0
   -1.5573    2.0528    0.3806 N   0  0  0  0  0  0  0  0  0  0  0  0
   -2.4474    2.7051    1.1946 C   0  0  0  0  0  0  0  0  0  0  0  0
   -3.7805    2.5651    1.5756 C   0  0  0  0  0  0  0  0  0  0  0  0
   -5.0779    1.4921    1.2178 S   0  0  0  0  0  0  0  0  0  0  0  0
   -1.9006    0.7008   -0.0107 C   0  0  0  0  0  0  0  0  0  0  0  0
   -1.6528   -0.2813    1.1330 C   0  0  0  0  0  0  0  0  0  0  0  0
    0.6806    0.9848   -2.1386 C   0  0  0  0  0  0  0  0  0  0  0  0
    0.7201   -0.5375   -2.0019 C   0  0  0  0  0  0  0  0  0  0  0  0
    6.4255   -0.3983   -4.2021 C   0  0  0  0  0  0  0  0  0  0  0  0
    7.5938   -1.0813   -4.0927 C   0  0  0  0  0  0  0  0  0  0  0  0
    8.3598   -1.4406   -5.3172 C   0  0  0  0  0  0  0  0  0  0  0  0
    7.9788   -1.3491   -6.4611 O   0  0  0  0  0  0  0  0  0  0  0  0
    9.6847   -1.8777   -4.8270 C   0  0  0  0  0  0  0  0  0  0  0  0
   10.7968   -2.2309   -5.5517 C   0  0  0  0  0  0  0  0  0  0  0  0
   11.9578   -2.6098   -4.8613 C   0  0  0  0  0  0  0  0  0  0  0  0
   13.0095   -2.9527   -5.6332 O   0  0  0  0  0  0  0  0  0  0  0  0
   14.2070   -3.3763   -5.0213 C   0  0  0  0  0  0  0  0  0  0  0  0
   11.9605   -2.6101   -3.4641 C   0  0  0  0  0  0  0  0  0  0  0  0
   10.8312   -2.2611   -2.7400 C   0  0  0  0  0  0  0  0  0  0  0  0
    9.6787   -1.8966   -3.4166 C   0  0  0  0  0  0  0  0  0  0  0  0
    8.3499   -1.5395   -2.9432 C   0  0  0  0  0  0  0  0  0  0  0  0
    7.8394   -1.8336   -1.7056 C   0  0  0  0  0  0  0  0  0  0  0  0
    6.4761   -1.7305   -1.3649 C   0  0  0  0  0  0  0  0  0  0  0  0
    5.3759   -1.7192   -1.0361 N   0  0  0  0  0  0  0  0  0  0  0  0
    8.6092   -2.3645   -0.6507 C   0  0  0  0  0  0  0  0  0  0  0  0
    9.1948   -2.7763    0.2468 N   0  0  0  0  0  0  0  0  0  0  0  0
   -8.0898    2.5274    3.1054 H   0  0  0  0  0  0  0  0  0  0  0  0
  -11.7071   -0.9751    1.3731 H   0  0  0  0  0  0  0  0  0  0  0  0
  -12.8349   -2.9014    0.2618 H   0  0  0  0  0  0  0  0  0  0  0  0
   -8.4429   -5.0827   -0.4538 H   0  0  0  0  0  0  0  0  0  0  0  0
   -7.3117   -3.2257    0.6646 H   0  0  0  0  0  0  0  0  0  0  0  0
   -5.2465    4.5493    4.7624 H   0  0  0  0  0  0  0  0  0  0  0  0
   -6.7902    3.6901    4.6598 H   0  0  0  0  0  0  0  0  0  0  0  0
   -5.9243    6.0263    2.8780 H   0  0  0  0  0  0  0  0  0  0  0  0
   -7.0859    6.1180    4.2043 H   0  0  0  0  0  0  0  0  0  0  0  0
   -7.4708    5.1816    2.7573 H   0  0  0  0  0  0  0  0  0  0  0  0
    8.2185    1.0163   -2.6218 H   0  0  0  0  0  0  0  0  0  0  0  0
    7.6462    2.6219   -2.1667 H   0  0  0  0  0  0  0  0  0  0  0  0
    7.8167    0.3059   -0.1782 H   0  0  0  0  0  0  0  0  0  0  0  0
    7.4504    1.9883    0.1778 H   0  0  0  0  0  0  0  0  0  0  0  0
    9.0582    1.5408   -0.3932 H   0  0  0  0  0  0  0  0  0  0  0  0
   -1.3452    0.3943   -0.8882 H   0  0  0  0  0  0  0  0  0  0  0  0
   -2.9641    0.7077   -0.2671 H   0  0  0  0  0  0  0  0  0  0  0  0
   -2.2284   -0.0007    2.0123 H   0  0  0  0  0  0  0  0  0  0  0  0
   -0.5987   -0.2948    1.4024 H   0  0  0  0  0  0  0  0  0  0  0  0
   -1.9529   -1.2814    0.8323 H   0  0  0  0  0  0  0  0  0  0  0  0
   -0.3368    1.3770   -2.1795 H   0  0  0  0  0  0  0  0  0  0  0  0
    1.1744    1.2624   -3.0770 H   0  0  0  0  0  0  0  0  0  0  0  0
    0.1068   -0.9942   -2.7737 H   0  0  0  0  0  0  0  0  0  0  0  0
    1.7399   -0.8933   -2.1194 H   0  0  0  0  0  0  0  0  0  0  0  0
    0.3649   -0.8621   -1.0274 H   0  0  0  0  0  0  0  0  0  0  0  0
    5.9923   -0.3885   -5.1990 H   0  0  0  0  0  0  0  0  0  0  0  0
   10.7897   -2.2280   -6.6297 H   0  0  0  0  0  0  0  0  0  0  0  0
   14.0501   -4.2709   -4.4113 H   0  0  0  0  0  0  0  0  0  0  0  0
   14.6447   -2.5846   -4.4059 H   0  0  0  0  0  0  0  0  0  0  0  0
   14.8851   -3.6123   -5.8394 H   0  0  0  0  0  0  0  0  0  0  0  0
   12.8504   -2.8869   -2.9217 H   0  0  0  0  0  0  0  0  0  0  0  0
   10.8705   -2.2685   -1.6625 H   0  0  0  0  0  0  0  0  0  0  0  0
  1  2  2  0  0  0  0
  2  3  1  0  0  0  0
  3  4  2  0  0  0  0
  3  5  1  0  0  0  0
  5  6  2  0  0  0  0
  6  7  1  0  0  0  0
  7  8  2  0  0  0  0
  8  9  1  0  0  0  0
  9 10  1  0  0  0  0
  9 11  2  0  0  0  0
 11 12  1  0  0  0  0
 11 13  1  0  0  0  0
 13 14  2  0  0  0  0
 14 15  1  0  0  0  0
 15 16  2  0  0  0  0
 16 17  1  0  0  0  0
 17 18  2  0  0  0  0
 18 19  1  0  0  0  0
 19 20  3  0  0  0  0
 18 21  1  0  0  0  0
 21 22  3  0  0  0  0
  1 23  1  0  0  0  0
 23 24  2  0  0  0  0
 24 25  1  0  0  0  0
 25 26  1  0  0  0  0
 24 27  1  0  0  0  0
 27 28  1  0  0  0  0
 28 29  1  0  0  0  0
 29 30  1  0  0  0  0
 30 31  1  0  0  0  0
 31 32  1  0  0  0  0
 32 33  2  0  0  0  0
 33 34  1  0  0  0  0
 34 35  1  0  0  0  0
 32 36  1  0  0  0  0
 36 37  1  0  0  0  0
 37 38  1  0  0  0  0
 38 39  1  0  0  0  0
 39 40  1  0  0  0  0
 40 41  1  0  0  0  0
 41 42  1  0  0  0  0
 40 43  2  0  0  0  0
 43 44  1  0  0  0  0
 44 45  1  0  0  0  0
 45 46  1  0  0  0  0
 46 47  1  0  0  0  0
 47 48  1  0  0  0  0
 48 49  1  0  0  0  0
 49 50  1  0  0  0  0
 50 51  1  0  0  0  0
 51 52  1  0  0  0  0
 52 53  1  0  0  0  0
 50 54  1  0  0  0  0
 54 55  1  0  0  0  0
 47 56  1  0  0  0  0
 56 57  1  0  0  0  0
 43 58  1  0  0  0  0
 58 59  2  0  0  0  0
 59 60  1  0  0  0  0
 60 61  2  0  0  0  0
 60 62  1  0  0  0  0
 62 63  2  0  0  0  0
 63 64  1  0  0  0  0
 64 65  1  0  0  0  0
 65 66  1  0  0  0  0
 64 67  2  0  0  0  0
 67 68  1  0  0  0  0
 68 69  2  0  0  0  0
 69 70  1  0  0  0  0
 70 71  2  0  0  0  0
 71 72  1  0  0  0  0
 72 73  3  0  0  0  0
 71 74  1  0  0  0  0
 74 75  3  0  0  0  0
 17  2  1  0  0  0  0
 53 23  1  0  0  0  0
 70 59  1  0  0  0  0
 16  5  1  0  0  0  0
 52 27  2  0  0  0  0
 69 62  1  0  0  0  0
 14  7  1  0  0  0  0
 51 29  2  0  0  0  0
 49 30  2  0  0  0  0
 35 31  2  0  0  0  0
 48 36  2  0  0  0  0
 46 37  2  0  0  0  0
 45 39  2  0  0  0  0
  1 76  1  0  0  0  0
  6 77  1  0  0  0  0
  8 78  1  0  0  0  0
 13 79  1  0  0  0  0
 15 80  1  0  0  0  0
 25 81  1  0  0  0  0
 25 82  1  0  0  0  0
 26 83  1  0  0  0  0
 26 84  1  0  0  0  0
 26 85  1  0  0  0  0
 41 86  1  0  0  0  0
 41 87  1  0  0  0  0
 42 88  1  0  0  0  0
 42 89  1  0  0  0  0
 42 90  1  0  0  0  0
 54 91  1  0  0  0  0
 54 92  1  0  0  0  0
 55 93  1  0  0  0  0
 55 94  1  0  0  0  0
 55 95  1  0  0  0  0
 56 96  1  0  0  0  0
 56 97  1  0  0  0  0
 57 98  1  0  0  0  0
 57 99  1  0  0  0  0
 57100  1  0  0  0  0
 58101  1  0  0  0  0
 63102  1  0  0  0  0
 66103  1  0  0  0  0
 66104  1  0  0  0  0
 66105  1  0  0  0  0
 67106  1  0  0  0  0
 68107  1  0  0  0  0
M  END
