
  xtb     02012221503D
 energy: -182.437679373765 gnorm: 0.000213067457 xtb: 6.4.1 (unknown)
 98109  0     0  0            999 V2000
    5.8862    1.0638    3.1032 C   0  0  0  0  0  0  0  0  0  0  0  0
    5.6843    0.2505    4.1969 C   0  0  0  0  0  0  0  0  0  0  0  0
    4.5405   -0.6337    4.4123 C   0  0  0  0  0  0  0  0  0  0  0  0
    3.6038   -0.8444    3.6586 O   0  0  0  0  0  0  0  0  0  0  0  0
    4.7324   -1.2410    5.7417 C   0  0  0  0  0  0  0  0  0  0  0  0
    3.9256   -2.1197    6.4033 C   0  0  0  0  0  0  0  0  0  0  0  0
    4.3097   -2.5687    7.6867 C   0  0  0  0  0  0  0  0  0  0  0  0
    3.5147   -3.4735    8.4161 C   0  0  0  0  0  0  0  0  0  0  0  0
    3.9096   -3.8907    9.6564 C   0  0  0  0  0  0  0  0  0  0  0  0
    3.1511   -4.7520   10.3496 F   0  0  0  0  0  0  0  0  0  0  0  0
    5.1130   -3.4224   10.2193 C   0  0  0  0  0  0  0  0  0  0  0  0
    5.4751   -3.8485   11.4373 F   0  0  0  0  0  0  0  0  0  0  0  0
    5.9054   -2.5435    9.5352 C   0  0  0  0  0  0  0  0  0  0  0  0
    5.5269   -2.0941    8.2545 C   0  0  0  0  0  0  0  0  0  0  0  0
    6.3417   -1.1840    7.5409 C   0  0  0  0  0  0  0  0  0  0  0  0
    5.9505   -0.7615    6.2985 C   0  0  0  0  0  0  0  0  0  0  0  0
    6.5654    0.1585    5.3417 C   0  0  0  0  0  0  0  0  0  0  0  0
    7.7693    0.7930    5.5260 C   0  0  0  0  0  0  0  0  0  0  0  0
    8.5727    0.6406    6.6747 C   0  0  0  0  0  0  0  0  0  0  0  0
    9.2737    0.5609    7.5808 N   0  0  0  0  0  0  0  0  0  0  0  0
    8.3870    1.6739    4.6155 C   0  0  0  0  0  0  0  0  0  0  0  0
    8.9563    2.3995    3.9292 N   0  0  0  0  0  0  0  0  0  0  0  0
    5.1196    1.2597    1.9548 C   0  0  0  0  0  0  0  0  0  0  0  0
    5.4612    2.1910    0.9542 C   0  0  0  0  0  0  0  0  0  0  0  0
    6.6354    3.1132    0.9882 C   0  0  0  0  0  0  0  0  0  0  0  0
    6.3227    4.3610    1.8191 C   0  0  0  0  0  0  0  0  0  0  0  0
    4.5227    2.2046   -0.0660 C   0  0  0  0  0  0  0  0  0  0  0  0
    4.3825    3.1603   -1.5318 S   0  0  0  0  0  0  0  0  0  0  0  0
    2.9099    2.3287   -1.8949 C   0  0  0  0  0  0  0  0  0  0  0  0
    1.8916    2.3444   -2.8554 C   0  0  0  0  0  0  0  0  0  0  0  0
    1.6687    3.2072   -3.9518 C   0  0  0  0  0  0  0  0  0  0  0  0
    0.4429    3.0913   -4.6851 C   0  0  0  0  0  0  0  0  0  0  0  0
    0.3382    3.9992   -5.6426 N   0  0  0  0  0  0  0  0  0  0  0  0
    1.6714    4.9173   -5.6268 S   0  0  0  0  0  0  0  0  0  0  0  0
    2.4321    4.1934   -4.3946 N   0  0  0  0  0  0  0  0  0  0  0  0
   -0.4521    2.0485   -4.3581 C   0  0  0  0  0  0  0  0  0  0  0  0
   -1.6566    1.6514   -4.9553 C   0  0  0  0  0  0  0  0  0  0  0  0
   -2.7260    2.1583   -6.2174 S   0  0  0  0  0  0  0  0  0  0  0  0
   -3.7455    0.7776   -5.8724 C   0  0  0  0  0  0  0  0  0  0  0  0
   -4.9452    0.3278   -6.4316 C   0  0  0  0  0  0  0  0  0  0  0  0
   -5.6666    1.0577   -7.5169 C   0  0  0  0  0  0  0  0  0  0  0  0
   -6.7069    2.0123   -6.9254 C   0  0  0  0  0  0  0  0  0  0  0  0
   -5.3898   -0.8330   -5.8061 C   0  0  0  0  0  0  0  0  0  0  0  0
   -4.2989   -1.3672   -4.5316 S   0  0  0  0  0  0  0  0  0  0  0  0
   -3.2589   -0.0245   -4.8315 C   0  0  0  0  0  0  0  0  0  0  0  0
   -2.0661    0.4828   -4.3052 C   0  0  0  0  0  0  0  0  0  0  0  0
   -1.1796    0.1581   -3.3156 N   0  0  0  0  0  0  0  0  0  0  0  0
   -0.1795    1.1176   -3.3132 C   0  0  0  0  0  0  0  0  0  0  0  0
    0.9516    1.3361   -2.4827 C   0  0  0  0  0  0  0  0  0  0  0  0
    1.3860    0.7539   -1.3066 N   0  0  0  0  0  0  0  0  0  0  0  0
    2.5593    1.3597   -0.9459 C   0  0  0  0  0  0  0  0  0  0  0  0
    3.4700    1.2872    0.1099 C   0  0  0  0  0  0  0  0  0  0  0  0
    3.6230    0.4003    1.5783 S   0  0  0  0  0  0  0  0  0  0  0  0
    0.6748   -0.0486   -0.3362 C   0  0  0  0  0  0  0  0  0  0  0  0
   -0.5653    0.6728    0.1849 C   0  0  0  0  0  0  0  0  0  0  0  0
   -1.1924   -1.1802   -2.7657 C   0  0  0  0  0  0  0  0  0  0  0  0
    0.0080   -1.9925   -3.2442 C   0  0  0  0  0  0  0  0  0  0  0  0
   -6.5690   -1.5450   -6.0988 C   0  0  0  0  0  0  0  0  0  0  0  0
   -7.0415   -2.6682   -5.5026 C   0  0  0  0  0  0  0  0  0  0  0  0
   -6.3139   -3.5735   -4.1938 S   0  0  0  0  0  0  0  0  0  0  0  0
   -7.6545   -4.7667   -4.2058 C   0  0  0  0  0  0  0  0  0  0  0  0
   -7.7110   -5.7103   -3.4728 O   0  0  0  0  0  0  0  0  0  0  0  0
   -8.5530   -4.4190   -5.1694 N   0  0  0  0  0  0  0  0  0  0  0  0
   -9.7596   -5.2054   -5.3698 C   0  0  0  0  0  0  0  0  0  0  0  0
  -10.8055   -4.8911   -4.3086 C   0  0  0  0  0  0  0  0  0  0  0  0
   -8.2981   -3.2845   -5.9238 C   0  0  0  0  0  0  0  0  0  0  0  0
   -9.0267   -2.8882   -6.8050 O   0  0  0  0  0  0  0  0  0  0  0  0
    6.7794    1.6725    3.1297 H   0  0  0  0  0  0  0  0  0  0  0  0
    3.0068   -2.4662    5.9551 H   0  0  0  0  0  0  0  0  0  0  0  0
    2.5903   -3.8410    7.9987 H   0  0  0  0  0  0  0  0  0  0  0  0
    6.8239   -2.1949    9.9810 H   0  0  0  0  0  0  0  0  0  0  0  0
    7.2551   -0.8443    8.0011 H   0  0  0  0  0  0  0  0  0  0  0  0
    6.8609    3.4158   -0.0363 H   0  0  0  0  0  0  0  0  0  0  0  0
    7.5148    2.6152    1.3992 H   0  0  0  0  0  0  0  0  0  0  0  0
    7.1828    5.0241    1.8240 H   0  0  0  0  0  0  0  0  0  0  0  0
    6.0894    4.0917    2.8467 H   0  0  0  0  0  0  0  0  0  0  0  0
    5.4728    4.8927    1.3976 H   0  0  0  0  0  0  0  0  0  0  0  0
   -6.1557    0.3519   -8.1895 H   0  0  0  0  0  0  0  0  0  0  0  0
   -4.9367    1.6327   -8.0901 H   0  0  0  0  0  0  0  0  0  0  0  0
   -7.4479    1.4620   -6.3503 H   0  0  0  0  0  0  0  0  0  0  0  0
   -6.2257    2.7344   -6.2701 H   0  0  0  0  0  0  0  0  0  0  0  0
   -7.2136    2.5508   -7.7217 H   0  0  0  0  0  0  0  0  0  0  0  0
    1.3657   -0.2184    0.4929 H   0  0  0  0  0  0  0  0  0  0  0  0
    0.4292   -1.0254   -0.7527 H   0  0  0  0  0  0  0  0  0  0  0  0
   -1.2460    0.9275   -0.6242 H   0  0  0  0  0  0  0  0  0  0  0  0
   -1.0864    0.0416    0.8992 H   0  0  0  0  0  0  0  0  0  0  0  0
   -0.2745    1.5931    0.6860 H   0  0  0  0  0  0  0  0  0  0  0  0
   -1.2520   -1.1509   -1.6778 H   0  0  0  0  0  0  0  0  0  0  0  0
   -2.1108   -1.6523   -3.1230 H   0  0  0  0  0  0  0  0  0  0  0  0
   -0.0128   -2.0817   -4.3279 H   0  0  0  0  0  0  0  0  0  0  0  0
    0.9454   -1.5194   -2.9613 H   0  0  0  0  0  0  0  0  0  0  0  0
   -0.0268   -2.9901   -2.8151 H   0  0  0  0  0  0  0  0  0  0  0  0
   -7.1911   -1.1550   -6.8955 H   0  0  0  0  0  0  0  0  0  0  0  0
   -9.4836   -6.2619   -5.3307 H   0  0  0  0  0  0  0  0  0  0  0  0
  -10.1285   -4.9500   -6.3658 H   0  0  0  0  0  0  0  0  0  0  0  0
  -10.4225   -5.1354   -3.3205 H   0  0  0  0  0  0  0  0  0  0  0  0
  -11.0697   -3.8364   -4.3380 H   0  0  0  0  0  0  0  0  0  0  0  0
  -11.6989   -5.4807   -4.4922 H   0  0  0  0  0  0  0  0  0  0  0  0
  1  2  2  0  0  0  0
  2  3  1  0  0  0  0
  3  4  2  0  0  0  0
  3  5  1  0  0  0  0
  5  6  2  0  0  0  0
  6  7  1  0  0  0  0
  7  8  2  0  0  0  0
  8  9  1  0  0  0  0
  9 10  1  0  0  0  0
  9 11  2  0  0  0  0
 11 12  1  0  0  0  0
 11 13  1  0  0  0  0
 13 14  2  0  0  0  0
 14 15  1  0  0  0  0
 15 16  2  0  0  0  0
 16 17  1  0  0  0  0
 17 18  2  0  0  0  0
 18 19  1  0  0  0  0
 19 20  3  0  0  0  0
 18 21  1  0  0  0  0
 21 22  3  0  0  0  0
  1 23  1  0  0  0  0
 23 24  2  0  0  0  0
 24 25  1  0  0  0  0
 25 26  1  0  0  0  0
 24 27  1  0  0  0  0
 27 28  1  0  0  0  0
 28 29  1  0  0  0  0
 29 30  1  0  0  0  0
 30 31  1  0  0  0  0
 31 32  1  0  0  0  0
 32 33  2  0  0  0  0
 33 34  1  0  0  0  0
 34 35  1  0  0  0  0
 32 36  1  0  0  0  0
 36 37  1  0  0  0  0
 37 38  1  0  0  0  0
 38 39  1  0  0  0  0
 39 40  1  0  0  0  0
 40 41  1  0  0  0  0
 41 42  1  0  0  0  0
 40 43  2  0  0  0  0
 43 44  1  0  0  0  0
 44 45  1  0  0  0  0
 45 46  1  0  0  0  0
 46 47  1  0  0  0  0
 47 48  1  0  0  0  0
 48 49  1  0  0  0  0
 49 50  1  0  0  0  0
 50 51  1  0  0  0  0
 51 52  1  0  0  0  0
 52 53  1  0  0  0  0
 50 54  1  0  0  0  0
 54 55  1  0  0  0  0
 47 56  1  0  0  0  0
 56 57  1  0  0  0  0
 43 58  1  0  0  0  0
 58 59  2  0  0  0  0
 59 60  1  0  0  0  0
 60 61  1  0  0  0  0
 61 62  2  0  0  0  0
 61 63  1  0  0  0  0
 63 64  1  0  0  0  0
 64 65  1  0  0  0  0
 63 66  1  0  0  0  0
 66 67  2  0  0  0  0
 17  2  1  0  0  0  0
 53 23  1  0  0  0  0
 66 59  1  0  0  0  0
 16  5  1  0  0  0  0
 52 27  2  0  0  0  0
 14  7  1  0  0  0  0
 51 29  2  0  0  0  0
 49 30  2  0  0  0  0
 35 31  2  0  0  0  0
 48 36  2  0  0  0  0
 46 37  2  0  0  0  0
 45 39  2  0  0  0  0
  1 68  1  0  0  0  0
  6 69  1  0  0  0  0
  8 70  1  0  0  0  0
 13 71  1  0  0  0  0
 15 72  1  0  0  0  0
 25 73  1  0  0  0  0
 25 74  1  0  0  0  0
 26 75  1  0  0  0  0
 26 76  1  0  0  0  0
 26 77  1  0  0  0  0
 41 78  1  0  0  0  0
 41 79  1  0  0  0  0
 42 80  1  0  0  0  0
 42 81  1  0  0  0  0
 42 82  1  0  0  0  0
 54 83  1  0  0  0  0
 54 84  1  0  0  0  0
 55 85  1  0  0  0  0
 55 86  1  0  0  0  0
 55 87  1  0  0  0  0
 56 88  1  0  0  0  0
 56 89  1  0  0  0  0
 57 90  1  0  0  0  0
 57 91  1  0  0  0  0
 57 92  1  0  0  0  0
 58 93  1  0  0  0  0
 64 94  1  0  0  0  0
 64 95  1  0  0  0  0
 65 96  1  0  0  0  0
 65 97  1  0  0  0  0
 65 98  1  0  0  0  0
M  END
