
  xtb     02022200313D
 energy: -208.539983484502 gnorm: 0.000272950891 xtb: 6.4.1 (unknown)
103115  0     0  0            999 V2000
   -0.4502    2.2362    6.8411 C   0  0  0  0  0  0  0  0  0  0  0  0
    0.6461    2.5613    7.5939 C   0  0  0  0  0  0  0  0  0  0  0  0
    1.9686    2.8900    7.0142 C   0  0  0  0  0  0  0  0  0  0  0  0
    2.2344    3.1623    5.8627 O   0  0  0  0  0  0  0  0  0  0  0  0
    2.9332    2.6954    8.1169 C   0  0  0  0  0  0  0  0  0  0  0  0
    4.2941    2.7853    8.0776 C   0  0  0  0  0  0  0  0  0  0  0  0
    5.0335    2.5200    9.2522 C   0  0  0  0  0  0  0  0  0  0  0  0
    6.4400    2.5875    9.2631 C   0  0  0  0  0  0  0  0  0  0  0  0
    7.1332    2.3120   10.4084 C   0  0  0  0  0  0  0  0  0  0  0  0
    8.4721    2.3716   10.4155 F   0  0  0  0  0  0  0  0  0  0  0  0
    6.4516    1.9611   11.5906 C   0  0  0  0  0  0  0  0  0  0  0  0
    7.1571    1.6952   12.6981 F   0  0  0  0  0  0  0  0  0  0  0  0
    5.0868    1.8898   11.6118 C   0  0  0  0  0  0  0  0  0  0  0  0
    4.3427    2.1657   10.4472 C   0  0  0  0  0  0  0  0  0  0  0  0
    2.9309    2.0848   10.4575 C   0  0  0  0  0  0  0  0  0  0  0  0
    2.2358    2.3457    9.3068 C   0  0  0  0  0  0  0  0  0  0  0  0
    0.8080    2.3147    9.0099 C   0  0  0  0  0  0  0  0  0  0  0  0
   -0.2078    2.1638    9.9176 C   0  0  0  0  0  0  0  0  0  0  0  0
   -1.5757    2.2450    9.5825 C   0  0  0  0  0  0  0  0  0  0  0  0
   -2.7010    2.3261    9.3695 N   0  0  0  0  0  0  0  0  0  0  0  0
   -0.0060    1.9552   11.2966 C   0  0  0  0  0  0  0  0  0  0  0  0
    0.1083    1.7775   12.4250 N   0  0  0  0  0  0  0  0  0  0  0  0
   -0.6222    2.5466    5.4754 C   0  0  0  0  0  0  0  0  0  0  0  0
   -0.3004    3.6919    4.7575 C   0  0  0  0  0  0  0  0  0  0  0  0
    0.1452    4.9794    5.3634 C   0  0  0  0  0  0  0  0  0  0  0  0
   -0.7867    6.1326    4.9925 C   0  0  0  0  0  0  0  0  0  0  0  0
   -0.5623    3.5173    3.3916 C   0  0  0  0  0  0  0  0  0  0  0  0
   -0.2661    4.5237    1.9906 S   0  0  0  0  0  0  0  0  0  0  0  0
   -0.7761    3.2242    0.9729 C   0  0  0  0  0  0  0  0  0  0  0  0
   -0.8162    2.8952   -0.3895 C   0  0  0  0  0  0  0  0  0  0  0  0
   -0.3652    3.6132   -1.5190 C   0  0  0  0  0  0  0  0  0  0  0  0
   -0.3096    2.9434   -2.7843 C   0  0  0  0  0  0  0  0  0  0  0  0
    0.1996    3.7063   -3.7389 N   0  0  0  0  0  0  0  0  0  0  0  0
    0.5710    5.1463   -3.1002 S   0  0  0  0  0  0  0  0  0  0  0  0
    0.0999    4.8511   -1.5806 N   0  0  0  0  0  0  0  0  0  0  0  0
   -0.8200    1.6305   -2.8817 C   0  0  0  0  0  0  0  0  0  0  0  0
   -0.9448    0.7740   -3.9826 C   0  0  0  0  0  0  0  0  0  0  0  0
   -0.4856    0.7122   -5.6458 S   0  0  0  0  0  0  0  0  0  0  0  0
   -1.2212   -0.8693   -5.7671 C   0  0  0  0  0  0  0  0  0  0  0  0
   -1.2260   -1.8301   -6.7855 C   0  0  0  0  0  0  0  0  0  0  0  0
   -0.6979   -1.5772   -8.1603 C   0  0  0  0  0  0  0  0  0  0  0  0
   -1.3407   -0.3426   -8.7933 C   0  0  0  0  0  0  0  0  0  0  0  0
   -1.8602   -2.9961   -6.3682 C   0  0  0  0  0  0  0  0  0  0  0  0
   -2.5256   -2.8500   -4.7435 S   0  0  0  0  0  0  0  0  0  0  0  0
   -1.8250   -1.2886   -4.5713 C   0  0  0  0  0  0  0  0  0  0  0  0
   -1.6429   -0.3574   -3.5455 C   0  0  0  0  0  0  0  0  0  0  0  0
   -1.9345   -0.2371   -2.2131 N   0  0  0  0  0  0  0  0  0  0  0  0
   -1.4036    0.9586   -1.7666 C   0  0  0  0  0  0  0  0  0  0  0  0
   -1.2894    1.5534   -0.4816 C   0  0  0  0  0  0  0  0  0  0  0  0
   -1.5262    1.0861    0.8024 N   0  0  0  0  0  0  0  0  0  0  0  0
   -1.1927    2.0892    1.6754 C   0  0  0  0  0  0  0  0  0  0  0  0
   -1.0758    2.2554    3.0578 C   0  0  0  0  0  0  0  0  0  0  0  0
   -1.3373    1.2915    4.4604 S   0  0  0  0  0  0  0  0  0  0  0  0
   -1.5323   -0.2678    1.3134 C   0  0  0  0  0  0  0  0  0  0  0  0
   -0.1234   -0.8575    1.3044 C   0  0  0  0  0  0  0  0  0  0  0  0
   -2.9054   -1.1246   -1.6135 C   0  0  0  0  0  0  0  0  0  0  0  0
   -2.3052   -2.4823   -1.2506 C   0  0  0  0  0  0  0  0  0  0  0  0
   -2.0094   -4.2514   -6.9965 C   0  0  0  0  0  0  0  0  0  0  0  0
   -1.1658   -4.8554   -7.8802 C   0  0  0  0  0  0  0  0  0  0  0  0
   -1.6121   -6.0266   -8.6704 C   0  0  0  0  0  0  0  0  0  0  0  0
   -2.6253   -6.6637   -8.5127 O   0  0  0  0  0  0  0  0  0  0  0  0
   -0.5785   -6.1958   -9.7235 C   0  0  0  0  0  0  0  0  0  0  0  0
   -0.5755   -7.0471  -10.8149 C   0  0  0  0  0  0  0  0  0  0  0  0
   -1.7958   -8.2192  -11.0304 Cl  0  0  0  0  0  0  0  0  0  0  0  0
    0.4602   -6.9194  -11.7532 C   0  0  0  0  0  0  0  0  0  0  0  0
    0.5219   -7.9709  -13.0994 Cl  0  0  0  0  0  0  0  0  0  0  0  0
    1.4161   -5.9135  -11.6139 C   0  0  0  0  0  0  0  0  0  0  0  0
    2.6102   -5.7154  -12.8218 Cl  0  0  0  0  0  0  0  0  0  0  0  0
    1.4083   -5.0534  -10.5044 C   0  0  0  0  0  0  0  0  0  0  0  0
    2.5039   -3.7340  -10.4688 Cl  0  0  0  0  0  0  0  0  0  0  0  0
    0.4439   -5.2447   -9.5263 C   0  0  0  0  0  0  0  0  0  0  0  0
    0.2090   -4.5801   -8.2454 C   0  0  0  0  0  0  0  0  0  0  0  0
    1.1747   -4.1142   -7.3936 C   0  0  0  0  0  0  0  0  0  0  0  0
    2.5677   -4.1831   -7.6133 C   0  0  0  0  0  0  0  0  0  0  0  0
    3.7111   -4.2599   -7.6660 N   0  0  0  0  0  0  0  0  0  0  0  0
    0.9176   -3.6928   -6.0708 C   0  0  0  0  0  0  0  0  0  0  0  0
    0.8016   -3.3718   -4.9749 N   0  0  0  0  0  0  0  0  0  0  0  0
   -1.2076    1.5963    7.2802 H   0  0  0  0  0  0  0  0  0  0  0  0
    4.8004    3.0494    7.1616 H   0  0  0  0  0  0  0  0  0  0  0  0
    6.9764    2.8535    8.3657 H   0  0  0  0  0  0  0  0  0  0  0  0
    4.5808    1.6203   12.5256 H   0  0  0  0  0  0  0  0  0  0  0  0
    2.4348    1.8047   11.3729 H   0  0  0  0  0  0  0  0  0  0  0  0
    1.1577    5.1938    5.0119 H   0  0  0  0  0  0  0  0  0  0  0  0
    0.1812    4.8768    6.4487 H   0  0  0  0  0  0  0  0  0  0  0  0
   -0.4559    7.0424    5.4864 H   0  0  0  0  0  0  0  0  0  0  0  0
   -1.8035    5.9162    5.3134 H   0  0  0  0  0  0  0  0  0  0  0  0
   -0.7886    6.3058    3.9200 H   0  0  0  0  0  0  0  0  0  0  0  0
   -0.8911   -2.4420   -8.7963 H   0  0  0  0  0  0  0  0  0  0  0  0
    0.3852   -1.4286   -8.1038 H   0  0  0  0  0  0  0  0  0  0  0  0
   -1.1046    0.5549   -8.2288 H   0  0  0  0  0  0  0  0  0  0  0  0
   -2.4217   -0.4575   -8.8309 H   0  0  0  0  0  0  0  0  0  0  0  0
   -0.9705   -0.2183   -9.8075 H   0  0  0  0  0  0  0  0  0  0  0  0
   -2.2119   -0.8966    0.7496 H   0  0  0  0  0  0  0  0  0  0  0  0
   -1.9017   -0.2139    2.3409 H   0  0  0  0  0  0  0  0  0  0  0  0
    0.5400   -0.2573    1.9227 H   0  0  0  0  0  0  0  0  0  0  0  0
    0.2775   -0.8783    0.2929 H   0  0  0  0  0  0  0  0  0  0  0  0
   -0.1415   -1.8694    1.6996 H   0  0  0  0  0  0  0  0  0  0  0  0
   -3.3565   -0.6250   -0.7547 H   0  0  0  0  0  0  0  0  0  0  0  0
   -3.7006   -1.2836   -2.3510 H   0  0  0  0  0  0  0  0  0  0  0  0
   -3.0480   -3.0855   -0.7356 H   0  0  0  0  0  0  0  0  0  0  0  0
   -2.0027   -3.0082   -2.1516 H   0  0  0  0  0  0  0  0  0  0  0  0
   -1.4302   -2.3787   -0.6165 H   0  0  0  0  0  0  0  0  0  0  0  0
   -2.9050   -4.8131   -6.7497 H   0  0  0  0  0  0  0  0  0  0  0  0
  1  2  2  0  0  0  0
  2  3  1  0  0  0  0
  3  4  2  0  0  0  0
  3  5  1  0  0  0  0
  5  6  2  0  0  0  0
  6  7  1  0  0  0  0
  7  8  2  0  0  0  0
  8  9  1  0  0  0  0
  9 10  1  0  0  0  0
  9 11  2  0  0  0  0
 11 12  1  0  0  0  0
 11 13  1  0  0  0  0
 13 14  2  0  0  0  0
 14 15  1  0  0  0  0
 15 16  2  0  0  0  0
 16 17  1  0  0  0  0
 17 18  2  0  0  0  0
 18 19  1  0  0  0  0
 19 20  3  0  0  0  0
 18 21  1  0  0  0  0
 21 22  3  0  0  0  0
  1 23  1  0  0  0  0
 23 24  2  0  0  0  0
 24 25  1  0  0  0  0
 25 26  1  0  0  0  0
 24 27  1  0  0  0  0
 27 28  1  0  0  0  0
 28 29  1  0  0  0  0
 29 30  1  0  0  0  0
 30 31  1  0  0  0  0
 31 32  1  0  0  0  0
 32 33  2  0  0  0  0
 33 34  1  0  0  0  0
 34 35  1  0  0  0  0
 32 36  1  0  0  0  0
 36 37  1  0  0  0  0
 37 38  1  0  0  0  0
 38 39  1  0  0  0  0
 39 40  1  0  0  0  0
 40 41  1  0  0  0  0
 41 42  1  0  0  0  0
 40 43  2  0  0  0  0
 43 44  1  0  0  0  0
 44 45  1  0  0  0  0
 45 46  1  0  0  0  0
 46 47  1  0  0  0  0
 47 48  1  0  0  0  0
 48 49  1  0  0  0  0
 49 50  1  0  0  0  0
 50 51  1  0  0  0  0
 51 52  1  0  0  0  0
 52 53  1  0  0  0  0
 50 54  1  0  0  0  0
 54 55  1  0  0  0  0
 47 56  1  0  0  0  0
 56 57  1  0  0  0  0
 43 58  1  0  0  0  0
 58 59  2  0  0  0  0
 59 60  1  0  0  0  0
 60 61  2  0  0  0  0
 60 62  1  0  0  0  0
 62 63  2  0  0  0  0
 63 64  1  0  0  0  0
 63 65  1  0  0  0  0
 65 66  1  0  0  0  0
 65 67  2  0  0  0  0
 67 68  1  0  0  0  0
 67 69  1  0  0  0  0
 69 70  1  0  0  0  0
 69 71  2  0  0  0  0
 71 72  1  0  0  0  0
 72 73  2  0  0  0  0
 73 74  1  0  0  0  0
 74 75  3  0  0  0  0
 73 76  1  0  0  0  0
 76 77  3  0  0  0  0
 17  2  1  0  0  0  0
 53 23  1  0  0  0  0
 72 59  1  0  0  0  0
 16  5  1  0  0  0  0
 52 27  2  0  0  0  0
 71 62  1  0  0  0  0
 14  7  1  0  0  0  0
 51 29  2  0  0  0  0
 49 30  2  0  0  0  0
 35 31  2  0  0  0  0
 48 36  2  0  0  0  0
 46 37  2  0  0  0  0
 45 39  2  0  0  0  0
  1 78  1  0  0  0  0
  6 79  1  0  0  0  0
  8 80  1  0  0  0  0
 13 81  1  0  0  0  0
 15 82  1  0  0  0  0
 25 83  1  0  0  0  0
 25 84  1  0  0  0  0
 26 85  1  0  0  0  0
 26 86  1  0  0  0  0
 26 87  1  0  0  0  0
 41 88  1  0  0  0  0
 41 89  1  0  0  0  0
 42 90  1  0  0  0  0
 42 91  1  0  0  0  0
 42 92  1  0  0  0  0
 54 93  1  0  0  0  0
 54 94  1  0  0  0  0
 55 95  1  0  0  0  0
 55 96  1  0  0  0  0
 55 97  1  0  0  0  0
 56 98  1  0  0  0  0
 56 99  1  0  0  0  0
 57100  1  0  0  0  0
 57101  1  0  0  0  0
 57102  1  0  0  0  0
 58103  1  0  0  0  0
M  END
