
  xtb     02022200113D
 energy: -265.306173959107 gnorm: 0.000623624188 xtb: 6.4.1 (unknown)
146162  0     0  0            999 V2000
   -5.1852   -4.8426    5.9693 C   0  0  0  0  0  0  0  0  0  0  0  0
   -5.2790   -4.6762    7.3201 C   0  0  0  0  0  0  0  0  0  0  0  0
   -6.3326   -5.4031    8.0771 C   0  0  0  0  0  0  0  0  0  0  0  0
   -7.0284   -6.3039    7.6685 O   0  0  0  0  0  0  0  0  0  0  0  0
   -6.3760   -4.7527    9.4036 C   0  0  0  0  0  0  0  0  0  0  0  0
   -7.2400   -4.9685   10.4377 C   0  0  0  0  0  0  0  0  0  0  0  0
   -7.1066   -4.2003   11.6165 C   0  0  0  0  0  0  0  0  0  0  0  0
   -7.9694   -4.3860   12.7140 C   0  0  0  0  0  0  0  0  0  0  0  0
   -7.8229   -3.6264   13.8409 C   0  0  0  0  0  0  0  0  0  0  0  0
   -8.6453   -3.8040   14.8838 F   0  0  0  0  0  0  0  0  0  0  0  0
   -6.8099   -2.6500   13.9197 C   0  0  0  0  0  0  0  0  0  0  0  0
   -6.6900   -1.9198   15.0364 F   0  0  0  0  0  0  0  0  0  0  0  0
   -5.9572   -2.4465   12.8713 C   0  0  0  0  0  0  0  0  0  0  0  0
   -6.0804   -3.2147   11.6963 C   0  0  0  0  0  0  0  0  0  0  0  0
   -5.1952   -3.0188   10.6114 C   0  0  0  0  0  0  0  0  0  0  0  0
   -5.3360   -3.7832    9.4845 C   0  0  0  0  0  0  0  0  0  0  0  0
   -4.5586   -3.8338    8.2477 C   0  0  0  0  0  0  0  0  0  0  0  0
   -3.2683   -3.3861    8.1159 C   0  0  0  0  0  0  0  0  0  0  0  0
   -2.4297   -3.6922    7.0252 C   0  0  0  0  0  0  0  0  0  0  0  0
   -1.6802   -3.9481    6.1937 N   0  0  0  0  0  0  0  0  0  0  0  0
   -2.5920   -2.6469    9.1072 C   0  0  0  0  0  0  0  0  0  0  0  0
   -2.0032   -2.0281    9.8744 N   0  0  0  0  0  0  0  0  0  0  0  0
   -4.5436   -4.0060    5.0305 C   0  0  0  0  0  0  0  0  0  0  0  0
   -4.2673   -2.6505    5.1214 C   0  0  0  0  0  0  0  0  0  0  0  0
   -3.6249   -2.1738    3.9877 C   0  0  0  0  0  0  0  0  0  0  0  0
   -2.9590   -0.6394    3.5341 S   0  0  0  0  0  0  0  0  0  0  0  0
   -2.3124   -1.3464    2.0832 C   0  0  0  0  0  0  0  0  0  0  0  0
   -1.5119   -0.7484    1.0838 C   0  0  0  0  0  0  0  0  0  0  0  0
   -0.8400   -1.5809    0.2019 C   0  0  0  0  0  0  0  0  0  0  0  0
   -0.8887   -3.0753    0.4204 C   0  0  0  0  0  0  0  0  0  0  0  0
   -2.2084   -3.4310    0.8883 O   0  0  0  0  0  0  0  0  0  0  0  0
   -2.6118   -2.7003    1.9474 C   0  0  0  0  0  0  0  0  0  0  0  0
   -3.3750   -3.1629    3.0225 C   0  0  0  0  0  0  0  0  0  0  0  0
   -4.0191   -4.6839    3.4957 S   0  0  0  0  0  0  0  0  0  0  0  0
    0.1152   -3.4673    1.4997 C   0  0  0  0  0  0  0  0  0  0  0  0
   -0.1646   -4.5592    2.3114 C   0  0  0  0  0  0  0  0  0  0  0  0
    0.6807   -4.8949    3.3500 C   0  0  0  0  0  0  0  0  0  0  0  0
    1.8339   -4.1606    3.5941 C   0  0  0  0  0  0  0  0  0  0  0  0
    2.7621   -4.5485    4.7075 C   0  0  0  0  0  0  0  0  0  0  0  0
    3.7402   -5.6269    4.2366 C   0  0  0  0  0  0  0  0  0  0  0  0
    2.1275   -3.0929    2.7568 C   0  0  0  0  0  0  0  0  0  0  0  0
    1.2764   -2.7414    1.7250 C   0  0  0  0  0  0  0  0  0  0  0  0
   -0.6688   -3.7955   -0.8932 C   0  0  0  0  0  0  0  0  0  0  0  0
    0.5510   -4.3775   -1.2065 C   0  0  0  0  0  0  0  0  0  0  0  0
    0.7352   -4.9791   -2.4379 C   0  0  0  0  0  0  0  0  0  0  0  0
   -0.2862   -5.0137   -3.3775 C   0  0  0  0  0  0  0  0  0  0  0  0
   -0.0954   -5.7103   -4.6933 C   0  0  0  0  0  0  0  0  0  0  0  0
   -0.4974   -7.1822   -4.5781 C   0  0  0  0  0  0  0  0  0  0  0  0
   -1.5056   -4.4325   -3.0526 C   0  0  0  0  0  0  0  0  0  0  0  0
   -1.6957   -3.8239   -1.8274 C   0  0  0  0  0  0  0  0  0  0  0  0
   -0.1175   -0.8459   -0.7370 C   0  0  0  0  0  0  0  0  0  0  0  0
    0.9418   -1.2523   -2.0448 S   0  0  0  0  0  0  0  0  0  0  0  0
    1.2255    0.4473   -2.3325 C   0  0  0  0  0  0  0  0  0  0  0  0
    2.0143    1.0338   -3.3451 C   0  0  0  0  0  0  0  0  0  0  0  0
    1.8873    2.4056   -3.5603 C   0  0  0  0  0  0  0  0  0  0  0  0
    1.0245    3.1833   -2.8831 O   0  0  0  0  0  0  0  0  0  0  0  0
    0.7204    2.7762   -1.5316 C   0  0  0  0  0  0  0  0  0  0  0  0
   -0.5944    3.4383   -1.1592 C   0  0  0  0  0  0  0  0  0  0  0  0
   -0.7961    4.0126    0.0873 C   0  0  0  0  0  0  0  0  0  0  0  0
   -2.0345    4.5317    0.4181 C   0  0  0  0  0  0  0  0  0  0  0  0
   -3.0908    4.4916   -0.4816 C   0  0  0  0  0  0  0  0  0  0  0  0
   -4.4514    4.9889   -0.0890 C   0  0  0  0  0  0  0  0  0  0  0  0
   -5.2625    3.8538    0.5403 C   0  0  0  0  0  0  0  0  0  0  0  0
   -2.8760    3.9245   -1.7316 C   0  0  0  0  0  0  0  0  0  0  0  0
   -1.6438    3.3994   -2.0677 C   0  0  0  0  0  0  0  0  0  0  0  0
    1.8671    3.2257   -0.6345 C   0  0  0  0  0  0  0  0  0  0  0  0
    2.4655    4.4517   -0.8985 C   0  0  0  0  0  0  0  0  0  0  0  0
    3.5059    4.9053   -0.1118 C   0  0  0  0  0  0  0  0  0  0  0  0
    3.9685    4.1533    0.9611 C   0  0  0  0  0  0  0  0  0  0  0  0
    5.1231    4.6326    1.7919 C   0  0  0  0  0  0  0  0  0  0  0  0
    6.4489    4.1861    1.1723 C   0  0  0  0  0  0  0  0  0  0  0  0
    3.3658    2.9296    1.2187 C   0  0  0  0  0  0  0  0  0  0  0  0
    2.3274    2.4661    0.4312 C   0  0  0  0  0  0  0  0  0  0  0  0
    0.5339    1.2801   -1.4668 C   0  0  0  0  0  0  0  0  0  0  0  0
   -0.2351    0.5442   -0.5647 C   0  0  0  0  0  0  0  0  0  0  0  0
   -1.2688    0.9497    0.7647 S   0  0  0  0  0  0  0  0  0  0  0  0
    2.7050    2.8398   -4.6088 C   0  0  0  0  0  0  0  0  0  0  0  0
    3.4544    1.7953   -5.1835 C   0  0  0  0  0  0  0  0  0  0  0  0
    3.1438    0.2641   -4.4220 S   0  0  0  0  0  0  0  0  0  0  0  0
    4.2820    2.2151   -6.2031 C   0  0  0  0  0  0  0  0  0  0  0  0
    4.1888    3.5935   -6.4304 C   0  0  0  0  0  0  0  0  0  0  0  0
    3.0377    4.3633   -5.3414 S   0  0  0  0  0  0  0  0  0  0  0  0
    4.9566    4.2195   -7.4213 C   0  0  0  0  0  0  0  0  0  0  0  0
    5.0394    5.5412   -7.7878 C   0  0  0  0  0  0  0  0  0  0  0  0
    4.3020    6.6476   -7.1701 C   0  0  0  0  0  0  0  0  0  0  0  0
    3.4938    6.5947   -6.2626 O   0  0  0  0  0  0  0  0  0  0  0  0
    4.7405    7.8710   -7.8739 C   0  0  0  0  0  0  0  0  0  0  0  0
    4.3416    9.1745   -7.6555 C   0  0  0  0  0  0  0  0  0  0  0  0
    4.9030   10.1594   -8.4521 C   0  0  0  0  0  0  0  0  0  0  0  0
    4.5471   11.4378   -8.2765 F   0  0  0  0  0  0  0  0  0  0  0  0
    5.8362    9.8308   -9.4355 C   0  0  0  0  0  0  0  0  0  0  0  0
    6.3629   10.8018  -10.1898 F   0  0  0  0  0  0  0  0  0  0  0  0
    6.2358    8.5204   -9.6542 C   0  0  0  0  0  0  0  0  0  0  0  0
    5.6792    7.5288   -8.8614 C   0  0  0  0  0  0  0  0  0  0  0  0
    5.8836    6.0788   -8.8359 C   0  0  0  0  0  0  0  0  0  0  0  0
    6.7251    5.3902   -9.6711 C   0  0  0  0  0  0  0  0  0  0  0  0
    7.5148    5.9947  -10.6726 C   0  0  0  0  0  0  0  0  0  0  0  0
    8.1843    6.4221  -11.5010 N   0  0  0  0  0  0  0  0  0  0  0  0
    6.9336    3.9948   -9.6689 C   0  0  0  0  0  0  0  0  0  0  0  0
    7.1612    2.8711   -9.7403 N   0  0  0  0  0  0  0  0  0  0  0  0
   -5.7148   -5.7016    5.5698 H   0  0  0  0  0  0  0  0  0  0  0  0
   -8.0148   -5.7158   10.3589 H   0  0  0  0  0  0  0  0  0  0  0  0
   -8.7500   -5.1291   12.6698 H   0  0  0  0  0  0  0  0  0  0  0  0
   -5.1843   -1.6980   12.9493 H   0  0  0  0  0  0  0  0  0  0  0  0
   -4.4317   -2.2621   10.6961 H   0  0  0  0  0  0  0  0  0  0  0  0
   -4.5521   -2.0399    5.9590 H   0  0  0  0  0  0  0  0  0  0  0  0
   -1.0564   -5.1410    2.1306 H   0  0  0  0  0  0  0  0  0  0  0  0
    0.4340   -5.7308    3.9872 H   0  0  0  0  0  0  0  0  0  0  0  0
    3.3230   -3.6749    5.0451 H   0  0  0  0  0  0  0  0  0  0  0  0
    2.1822   -4.9295    5.5500 H   0  0  0  0  0  0  0  0  0  0  0  0
    4.4106   -5.9112    5.0442 H   0  0  0  0  0  0  0  0  0  0  0  0
    4.3360   -5.2600    3.4035 H   0  0  0  0  0  0  0  0  0  0  0  0
    3.1991   -6.5108    3.9066 H   0  0  0  0  0  0  0  0  0  0  0  0
    3.0269   -2.5166    2.9211 H   0  0  0  0  0  0  0  0  0  0  0  0
    1.5229   -1.8985    1.0955 H   0  0  0  0  0  0  0  0  0  0  0  0
    1.3577   -4.3607   -0.4891 H   0  0  0  0  0  0  0  0  0  0  0  0
    1.6905   -5.4261   -2.6720 H   0  0  0  0  0  0  0  0  0  0  0  0
   -0.7063   -5.2294   -5.4598 H   0  0  0  0  0  0  0  0  0  0  0  0
    0.9508   -5.6454   -4.9983 H   0  0  0  0  0  0  0  0  0  0  0  0
    0.1091   -7.6817   -3.8261 H   0  0  0  0  0  0  0  0  0  0  0  0
   -1.5417   -7.2674   -4.2861 H   0  0  0  0  0  0  0  0  0  0  0  0
   -0.3597   -7.6900   -5.5298 H   0  0  0  0  0  0  0  0  0  0  0  0
   -2.3132   -4.4505   -3.7704 H   0  0  0  0  0  0  0  0  0  0  0  0
   -2.6461   -3.3724   -1.5845 H   0  0  0  0  0  0  0  0  0  0  0  0
    0.0112    4.0509    0.8030 H   0  0  0  0  0  0  0  0  0  0  0  0
   -2.1811    4.9721    1.3935 H   0  0  0  0  0  0  0  0  0  0  0  0
   -4.3559    5.8047    0.6298 H   0  0  0  0  0  0  0  0  0  0  0  0
   -4.9788    5.3654   -0.9675 H   0  0  0  0  0  0  0  0  0  0  0  0
   -4.7528    3.4685    1.4206 H   0  0  0  0  0  0  0  0  0  0  0  0
   -6.2479    4.2074    0.8341 H   0  0  0  0  0  0  0  0  0  0  0  0
   -5.3828    3.0375   -0.1684 H   0  0  0  0  0  0  0  0  0  0  0  0
   -3.6846    3.8883   -2.4476 H   0  0  0  0  0  0  0  0  0  0  0  0
   -1.4879    2.9578   -3.0409 H   0  0  0  0  0  0  0  0  0  0  0  0
    2.1078    5.0458   -1.7263 H   0  0  0  0  0  0  0  0  0  0  0  0
    3.9599    5.8610   -0.3297 H   0  0  0  0  0  0  0  0  0  0  0  0
    5.1054    5.7222    1.8552 H   0  0  0  0  0  0  0  0  0  0  0  0
    5.0446    4.2294    2.8033 H   0  0  0  0  0  0  0  0  0  0  0  0
    6.5524    4.5899    0.1678 H   0  0  0  0  0  0  0  0  0  0  0  0
    7.2855    4.5331    1.7741 H   0  0  0  0  0  0  0  0  0  0  0  0
    6.4915    3.1011    1.1107 H   0  0  0  0  0  0  0  0  0  0  0  0
    3.7095    2.3295    2.0490 H   0  0  0  0  0  0  0  0  0  0  0  0
    1.8747    1.5129    0.6604 H   0  0  0  0  0  0  0  0  0  0  0  0
    4.9346    1.5758   -6.7696 H   0  0  0  0  0  0  0  0  0  0  0  0
    5.5839    3.5258   -7.9678 H   0  0  0  0  0  0  0  0  0  0  0  0
    3.6196    9.4223   -6.8939 H   0  0  0  0  0  0  0  0  0  0  0  0
    6.9604    8.3220  -10.4264 H   0  0  0  0  0  0  0  0  0  0  0  0
  1  2  2  0  0  0  0
  2  3  1  0  0  0  0
  3  4  2  0  0  0  0
  3  5  1  0  0  0  0
  5  6  2  0  0  0  0
  6  7  1  0  0  0  0
  7  8  2  0  0  0  0
  8  9  1  0  0  0  0
  9 10  1  0  0  0  0
  9 11  2  0  0  0  0
 11 12  1  0  0  0  0
 11 13  1  0  0  0  0
 13 14  2  0  0  0  0
 14 15  1  0  0  0  0
 15 16  2  0  0  0  0
 16 17  1  0  0  0  0
 17 18  2  0  0  0  0
 18 19  1  0  0  0  0
 19 20  3  0  0  0  0
 18 21  1  0  0  0  0
 21 22  3  0  0  0  0
  1 23  1  0  0  0  0
 23 24  2  0  0  0  0
 24 25  1  0  0  0  0
 25 26  1  0  0  0  0
 26 27  1  0  0  0  0
 27 28  1  0  0  0  0
 28 29  2  0  0  0  0
 29 30  1  0  0  0  0
 30 31  1  0  0  0  0
 31 32  1  0  0  0  0
 32 33  1  0  0  0  0
 33 34  1  0  0  0  0
 30 35  1  0  0  0  0
 35 36  2  0  0  0  0
 36 37  1  0  0  0  0
 37 38  2  0  0  0  0
 38 39  1  0  0  0  0
 39 40  1  0  0  0  0
 38 41  1  0  0  0  0
 41 42  2  0  0  0  0
 30 43  1  0  0  0  0
 43 44  2  0  0  0  0
 44 45  1  0  0  0  0
 45 46  2  0  0  0  0
 46 47  1  0  0  0  0
 47 48  1  0  0  0  0
 46 49  1  0  0  0  0
 49 50  2  0  0  0  0
 29 51  1  0  0  0  0
 51 52  1  0  0  0  0
 52 53  1  0  0  0  0
 53 54  1  0  0  0  0
 54 55  2  0  0  0  0
 55 56  1  0  0  0  0
 56 57  1  0  0  0  0
 57 58  1  0  0  0  0
 58 59  2  0  0  0  0
 59 60  1  0  0  0  0
 60 61  2  0  0  0  0
 61 62  1  0  0  0  0
 62 63  1  0  0  0  0
 61 64  1  0  0  0  0
 64 65  2  0  0  0  0
 57 66  1  0  0  0  0
 66 67  2  0  0  0  0
 67 68  1  0  0  0  0
 68 69  2  0  0  0  0
 69 70  1  0  0  0  0
 70 71  1  0  0  0  0
 69 72  1  0  0  0  0
 72 73  2  0  0  0  0
 57 74  1  0  0  0  0
 74 75  1  0  0  0  0
 75 76  1  0  0  0  0
 55 77  1  0  0  0  0
 77 78  2  0  0  0  0
 78 79  1  0  0  0  0
 78 80  1  0  0  0  0
 80 81  2  0  0  0  0
 81 82  1  0  0  0  0
 81 83  1  0  0  0  0
 83 84  2  0  0  0  0
 84 85  1  0  0  0  0
 85 86  2  0  0  0  0
 85 87  1  0  0  0  0
 87 88  2  0  0  0  0
 88 89  1  0  0  0  0
 89 90  1  0  0  0  0
 89 91  2  0  0  0  0
 91 92  1  0  0  0  0
 91 93  1  0  0  0  0
 93 94  2  0  0  0  0
 94 95  1  0  0  0  0
 95 96  2  0  0  0  0
 96 97  1  0  0  0  0
 97 98  3  0  0  0  0
 96 99  1  0  0  0  0
 99100  3  0  0  0  0
 17  2  1  0  0  0  0
 34 23  1  0  0  0  0
 42 35  1  0  0  0  0
 50 43  1  0  0  0  0
 75 51  2  0  0  0  0
 82 77  1  0  0  0  0
 95 84  1  0  0  0  0
 16  5  1  0  0  0  0
 33 25  2  0  0  0  0
 74 53  2  0  0  0  0
 94 87  1  0  0  0  0
 14  7  1  0  0  0  0
 32 27  2  0  0  0  0
 79 54  1  0  0  0  0
 76 28  1  0  0  0  0
 65 58  1  0  0  0  0
 73 66  1  0  0  0  0
  1101  1  0  0  0  0
  6102  1  0  0  0  0
  8103  1  0  0  0  0
 13104  1  0  0  0  0
 15105  1  0  0  0  0
 24106  1  0  0  0  0
 36107  1  0  0  0  0
 37108  1  0  0  0  0
 39109  1  0  0  0  0
 39110  1  0  0  0  0
 40111  1  0  0  0  0
 40112  1  0  0  0  0
 40113  1  0  0  0  0
 41114  1  0  0  0  0
 42115  1  0  0  0  0
 44116  1  0  0  0  0
 45117  1  0  0  0  0
 47118  1  0  0  0  0
 47119  1  0  0  0  0
 48120  1  0  0  0  0
 48121  1  0  0  0  0
 48122  1  0  0  0  0
 49123  1  0  0  0  0
 50124  1  0  0  0  0
 59125  1  0  0  0  0
 60126  1  0  0  0  0
 62127  1  0  0  0  0
 62128  1  0  0  0  0
 63129  1  0  0  0  0
 63130  1  0  0  0  0
 63131  1  0  0  0  0
 64132  1  0  0  0  0
 65133  1  0  0  0  0
 67134  1  0  0  0  0
 68135  1  0  0  0  0
 70136  1  0  0  0  0
 70137  1  0  0  0  0
 71138  1  0  0  0  0
 71139  1  0  0  0  0
 71140  1  0  0  0  0
 72141  1  0  0  0  0
 73142  1  0  0  0  0
 80143  1  0  0  0  0
 83144  1  0  0  0  0
 88145  1  0  0  0  0
 93146  1  0  0  0  0
M  END
