
  xtb     02012219123D
 energy: -210.417767888989 gnorm: 0.000469098151 xtb: 6.4.1 (unknown)
109122  0     0  0            999 V2000
   -2.9164   -0.6634    7.8883 C   0  0  0  0  0  0  0  0  0  0  0  0
   -4.1898   -0.1476    7.7959 C   0  0  0  0  0  0  0  0  0  0  0  0
   -4.8560    0.2863    6.5688 C   0  0  0  0  0  0  0  0  0  0  0  0
   -4.4288    0.2335    5.4267 O   0  0  0  0  0  0  0  0  0  0  0  0
   -6.1716    0.8113    6.9765 C   0  0  0  0  0  0  0  0  0  0  0  0
   -7.1550    1.3490    6.1987 C   0  0  0  0  0  0  0  0  0  0  0  0
   -8.3443    1.8004    6.8134 C   0  0  0  0  0  0  0  0  0  0  0  0
   -9.3907    2.3667    6.0604 C   0  0  0  0  0  0  0  0  0  0  0  0
  -10.5294    2.7981    6.6812 C   0  0  0  0  0  0  0  0  0  0  0  0
  -11.5241    3.3379    5.9626 F   0  0  0  0  0  0  0  0  0  0  0  0
  -10.6709    2.6818    8.0781 C   0  0  0  0  0  0  0  0  0  0  0  0
  -11.7981    3.1138    8.6597 F   0  0  0  0  0  0  0  0  0  0  0  0
   -9.6726    2.1357    8.8354 C   0  0  0  0  0  0  0  0  0  0  0  0
   -8.4860    1.6816    8.2260 C   0  0  0  0  0  0  0  0  0  0  0  0
   -7.4481    1.1167    9.0035 C   0  0  0  0  0  0  0  0  0  0  0  0
   -6.3034    0.6859    8.3874 C   0  0  0  0  0  0  0  0  0  0  0  0
   -5.0821    0.0774    8.9141 C   0  0  0  0  0  0  0  0  0  0  0  0
   -4.8608   -0.2205   10.2359 C   0  0  0  0  0  0  0  0  0  0  0  0
   -5.7911    0.0275   11.2665 C   0  0  0  0  0  0  0  0  0  0  0  0
   -6.5005    0.2033   12.1521 N   0  0  0  0  0  0  0  0  0  0  0  0
   -3.6973   -0.8141   10.7660 C   0  0  0  0  0  0  0  0  0  0  0  0
   -2.7855   -1.2949   11.2748 N   0  0  0  0  0  0  0  0  0  0  0  0
   -1.9551   -0.9116    6.9078 C   0  0  0  0  0  0  0  0  0  0  0  0
   -0.6678   -1.4002    7.2044 C   0  0  0  0  0  0  0  0  0  0  0  0
   -0.1355   -1.6794    8.5715 C   0  0  0  0  0  0  0  0  0  0  0  0
    0.3797   -0.3947    9.2269 C   0  0  0  0  0  0  0  0  0  0  0  0
    0.0992   -1.5338    6.0568 C   0  0  0  0  0  0  0  0  0  0  0  0
    1.7591   -2.0417    5.7984 S   0  0  0  0  0  0  0  0  0  0  0  0
    1.5466   -1.7610    4.1052 C   0  0  0  0  0  0  0  0  0  0  0  0
    2.2978   -1.7866    2.9244 C   0  0  0  0  0  0  0  0  0  0  0  0
    3.6748   -2.0209    2.7119 C   0  0  0  0  0  0  0  0  0  0  0  0
    4.2196   -1.8002    1.4054 C   0  0  0  0  0  0  0  0  0  0  0  0
    5.5289   -1.9898    1.3643 N   0  0  0  0  0  0  0  0  0  0  0  0
    6.0316   -2.4183    2.8416 S   0  0  0  0  0  0  0  0  0  0  0  0
    4.5985   -2.3719    3.5924 N   0  0  0  0  0  0  0  0  0  0  0  0
    3.3443   -1.4616    0.3494 C   0  0  0  0  0  0  0  0  0  0  0  0
    3.5900   -1.2496   -1.0137 C   0  0  0  0  0  0  0  0  0  0  0  0
    4.9274   -1.1549   -2.1043 S   0  0  0  0  0  0  0  0  0  0  0  0
    3.8067   -0.8277   -3.4084 C   0  0  0  0  0  0  0  0  0  0  0  0
    4.0108   -0.5674   -4.7672 C   0  0  0  0  0  0  0  0  0  0  0  0
    5.3879   -0.4012   -5.3209 C   0  0  0  0  0  0  0  0  0  0  0  0
    5.6379    1.0149   -5.8406 C   0  0  0  0  0  0  0  0  0  0  0  0
    2.7975   -0.3423   -5.4207 C   0  0  0  0  0  0  0  0  0  0  0  0
    1.4273   -0.4184   -4.3062 S   0  0  0  0  0  0  0  0  0  0  0  0
    2.4678   -0.8042   -2.9939 C   0  0  0  0  0  0  0  0  0  0  0  0
    2.3468   -1.0444   -1.6233 C   0  0  0  0  0  0  0  0  0  0  0  0
    1.3476   -1.1014   -0.6895 N   0  0  0  0  0  0  0  0  0  0  0  0
    1.9372   -1.3347    0.5431 C   0  0  0  0  0  0  0  0  0  0  0  0
    1.4245   -1.3909    1.8661 C   0  0  0  0  0  0  0  0  0  0  0  0
    0.1850   -1.1116    2.4110 N   0  0  0  0  0  0  0  0  0  0  0  0
    0.2622   -1.3193    3.7613 C   0  0  0  0  0  0  0  0  0  0  0  0
   -0.5720   -1.1773    4.8726 C   0  0  0  0  0  0  0  0  0  0  0  0
   -2.1825   -0.6467    5.1767 S   0  0  0  0  0  0  0  0  0  0  0  0
   -0.9391   -0.3836    1.8663 C   0  0  0  0  0  0  0  0  0  0  0  0
   -0.5432    1.0326    1.4571 C   0  0  0  0  0  0  0  0  0  0  0  0
   -0.0154   -1.3193   -1.1262 C   0  0  0  0  0  0  0  0  0  0  0  0
   -0.4905   -2.7303   -0.7906 C   0  0  0  0  0  0  0  0  0  0  0  0
    2.4565    0.0185   -6.7373 C   0  0  0  0  0  0  0  0  0  0  0  0
    3.0959   -0.1391   -7.9368 C   0  0  0  0  0  0  0  0  0  0  0  0
    2.7112    0.7549   -9.0615 C   0  0  0  0  0  0  0  0  0  0  0  0
    1.7632    1.5061   -9.0992 O   0  0  0  0  0  0  0  0  0  0  0  0
    3.7610    0.5674  -10.0843 C   0  0  0  0  0  0  0  0  0  0  0  0
    3.9500    1.2420  -11.2548 C   0  0  0  0  0  0  0  0  0  0  0  0
    5.0608    0.9125  -12.0646 C   0  0  0  0  0  0  0  0  0  0  0  0
    5.3063    1.5845  -13.2774 C   0  0  0  0  0  0  0  0  0  0  0  0
    6.3930    1.2556  -14.0385 C   0  0  0  0  0  0  0  0  0  0  0  0
    6.6273    1.8989  -15.1907 F   0  0  0  0  0  0  0  0  0  0  0  0
    7.2778    0.2416  -13.6217 C   0  0  0  0  0  0  0  0  0  0  0  0
    8.3356   -0.0594  -14.3869 F   0  0  0  0  0  0  0  0  0  0  0  0
    7.0647   -0.4296  -12.4501 C   0  0  0  0  0  0  0  0  0  0  0  0
    5.9540   -0.1144  -11.6426 C   0  0  0  0  0  0  0  0  0  0  0  0
    5.7243   -0.8050  -10.4295 C   0  0  0  0  0  0  0  0  0  0  0  0
    4.6415   -0.4693   -9.6634 C   0  0  0  0  0  0  0  0  0  0  0  0
    4.1520   -1.0007   -8.3929 C   0  0  0  0  0  0  0  0  0  0  0  0
    4.4838   -2.2233   -7.8584 C   0  0  0  0  0  0  0  0  0  0  0  0
    3.7869   -2.7914   -6.7741 C   0  0  0  0  0  0  0  0  0  0  0  0
    3.2229   -3.2766   -5.9000 N   0  0  0  0  0  0  0  0  0  0  0  0
    5.4746   -3.0703   -8.3921 C   0  0  0  0  0  0  0  0  0  0  0  0
    6.2875   -3.7821   -8.7800 N   0  0  0  0  0  0  0  0  0  0  0  0
   -2.5817   -0.9114    8.8861 H   0  0  0  0  0  0  0  0  0  0  0  0
   -7.0271    1.4306    5.1300 H   0  0  0  0  0  0  0  0  0  0  0  0
   -9.2975    2.4629    4.9899 H   0  0  0  0  0  0  0  0  0  0  0  0
   -9.7974    2.0539    9.9039 H   0  0  0  0  0  0  0  0  0  0  0  0
   -7.5885    1.0427   10.0695 H   0  0  0  0  0  0  0  0  0  0  0  0
   -0.8996   -2.1289    9.2073 H   0  0  0  0  0  0  0  0  0  0  0  0
    0.6911   -2.3863    8.4776 H   0  0  0  0  0  0  0  0  0  0  0  0
    0.7707   -0.6182   10.2153 H   0  0  0  0  0  0  0  0  0  0  0  0
   -0.4210    0.3339    9.3301 H   0  0  0  0  0  0  0  0  0  0  0  0
    1.1739    0.0439    8.6272 H   0  0  0  0  0  0  0  0  0  0  0  0
    6.0960   -0.6195   -4.5183 H   0  0  0  0  0  0  0  0  0  0  0  0
    5.5728   -1.1196   -6.1228 H   0  0  0  0  0  0  0  0  0  0  0  0
    4.9560    1.2664   -6.6489 H   0  0  0  0  0  0  0  0  0  0  0  0
    5.5020    1.7376   -5.0395 H   0  0  0  0  0  0  0  0  0  0  0  0
    6.6568    1.0967   -6.2104 H   0  0  0  0  0  0  0  0  0  0  0  0
   -1.3855   -0.9344    1.0385 H   0  0  0  0  0  0  0  0  0  0  0  0
   -1.6894   -0.3311    2.6588 H   0  0  0  0  0  0  0  0  0  0  0  0
   -1.4017    1.5490    1.0366 H   0  0  0  0  0  0  0  0  0  0  0  0
    0.2590    1.0243    0.7227 H   0  0  0  0  0  0  0  0  0  0  0  0
   -0.2005    1.5868    2.3277 H   0  0  0  0  0  0  0  0  0  0  0  0
   -0.0160   -1.1891   -2.2111 H   0  0  0  0  0  0  0  0  0  0  0  0
   -0.6805   -0.5604   -0.7136 H   0  0  0  0  0  0  0  0  0  0  0  0
   -1.5148   -2.8648   -1.1272 H   0  0  0  0  0  0  0  0  0  0  0  0
    0.1372   -3.4626   -1.2930 H   0  0  0  0  0  0  0  0  0  0  0  0
   -0.4438   -2.9205    0.2792 H   0  0  0  0  0  0  0  0  0  0  0  0
    1.5280    0.5804   -6.8195 H   0  0  0  0  0  0  0  0  0  0  0  0
    3.2647    2.0186  -11.5585 H   0  0  0  0  0  0  0  0  0  0  0  0
    4.6382    2.3635  -13.6098 H   0  0  0  0  0  0  0  0  0  0  0  0
    7.7506   -1.2055  -12.1479 H   0  0  0  0  0  0  0  0  0  0  0  0
    6.4185   -1.5746  -10.1313 H   0  0  0  0  0  0  0  0  0  0  0  0
  1  2  2  0  0  0  0
  2  3  1  0  0  0  0
  3  4  2  0  0  0  0
  3  5  1  0  0  0  0
  5  6  2  0  0  0  0
  6  7  1  0  0  0  0
  7  8  2  0  0  0  0
  8  9  1  0  0  0  0
  9 10  1  0  0  0  0
  9 11  2  0  0  0  0
 11 12  1  0  0  0  0
 11 13  1  0  0  0  0
 13 14  2  0  0  0  0
 14 15  1  0  0  0  0
 15 16  2  0  0  0  0
 16 17  1  0  0  0  0
 17 18  2  0  0  0  0
 18 19  1  0  0  0  0
 19 20  3  0  0  0  0
 18 21  1  0  0  0  0
 21 22  3  0  0  0  0
  1 23  1  0  0  0  0
 23 24  2  0  0  0  0
 24 25  1  0  0  0  0
 25 26  1  0  0  0  0
 24 27  1  0  0  0  0
 27 28  1  0  0  0  0
 28 29  1  0  0  0  0
 29 30  1  0  0  0  0
 30 31  1  0  0  0  0
 31 32  1  0  0  0  0
 32 33  2  0  0  0  0
 33 34  1  0  0  0  0
 34 35  1  0  0  0  0
 32 36  1  0  0  0  0
 36 37  1  0  0  0  0
 37 38  1  0  0  0  0
 38 39  1  0  0  0  0
 39 40  1  0  0  0  0
 40 41  1  0  0  0  0
 41 42  1  0  0  0  0
 40 43  2  0  0  0  0
 43 44  1  0  0  0  0
 44 45  1  0  0  0  0
 45 46  1  0  0  0  0
 46 47  1  0  0  0  0
 47 48  1  0  0  0  0
 48 49  1  0  0  0  0
 49 50  1  0  0  0  0
 50 51  1  0  0  0  0
 51 52  1  0  0  0  0
 52 53  1  0  0  0  0
 50 54  1  0  0  0  0
 54 55  1  0  0  0  0
 47 56  1  0  0  0  0
 56 57  1  0  0  0  0
 43 58  1  0  0  0  0
 58 59  2  0  0  0  0
 59 60  1  0  0  0  0
 60 61  2  0  0  0  0
 60 62  1  0  0  0  0
 62 63  2  0  0  0  0
 63 64  1  0  0  0  0
 64 65  2  0  0  0  0
 65 66  1  0  0  0  0
 66 67  1  0  0  0  0
 66 68  2  0  0  0  0
 68 69  1  0  0  0  0
 68 70  1  0  0  0  0
 70 71  2  0  0  0  0
 71 72  1  0  0  0  0
 72 73  2  0  0  0  0
 73 74  1  0  0  0  0
 74 75  2  0  0  0  0
 75 76  1  0  0  0  0
 76 77  3  0  0  0  0
 75 78  1  0  0  0  0
 78 79  3  0  0  0  0
 17  2  1  0  0  0  0
 53 23  1  0  0  0  0
 74 59  1  0  0  0  0
 16  5  1  0  0  0  0
 52 27  2  0  0  0  0
 73 62  1  0  0  0  0
 14  7  1  0  0  0  0
 51 29  2  0  0  0  0
 71 64  1  0  0  0  0
 49 30  2  0  0  0  0
 35 31  2  0  0  0  0
 48 36  2  0  0  0  0
 46 37  2  0  0  0  0
 45 39  2  0  0  0  0
  1 80  1  0  0  0  0
  6 81  1  0  0  0  0
  8 82  1  0  0  0  0
 13 83  1  0  0  0  0
 15 84  1  0  0  0  0
 25 85  1  0  0  0  0
 25 86  1  0  0  0  0
 26 87  1  0  0  0  0
 26 88  1  0  0  0  0
 26 89  1  0  0  0  0
 41 90  1  0  0  0  0
 41 91  1  0  0  0  0
 42 92  1  0  0  0  0
 42 93  1  0  0  0  0
 42 94  1  0  0  0  0
 54 95  1  0  0  0  0
 54 96  1  0  0  0  0
 55 97  1  0  0  0  0
 55 98  1  0  0  0  0
 55 99  1  0  0  0  0
 56100  1  0  0  0  0
 56101  1  0  0  0  0
 57102  1  0  0  0  0
 57103  1  0  0  0  0
 57104  1  0  0  0  0
 58105  1  0  0  0  0
 63106  1  0  0  0  0
 65107  1  0  0  0  0
 70108  1  0  0  0  0
 72109  1  0  0  0  0
M  END
