107

C         -7.39130        1.80180        2.70140
C         -7.92690        0.57640        2.41820
C         -9.39730        0.41800        2.31150
O        -10.24360        1.21340        2.65410
C         -9.59870       -0.88730        1.64360
C        -10.75850       -1.46600        1.21750
C        -10.70280       -2.72050        0.56820
C        -11.87090       -3.36210        0.11290
C        -11.79050       -4.57100       -0.51970
F        -12.90390       -5.17970       -0.95290
C        -10.54170       -5.18980       -0.72520
F        -10.49220       -6.37390       -1.35170
C         -9.39080       -4.59330       -0.29280
C         -9.43980       -3.34880        0.36630
C         -8.25570       -2.73120        0.83040
C         -8.33630       -1.52220        1.46600
C         -7.31150       -0.68730        2.08700
C         -6.09090       -1.13860        2.52430
C         -5.26870       -0.41490        3.41200
N         -4.59590        0.11990        4.17370
C         -5.55050       -2.39500        2.19340
N         -5.04160       -3.38760        1.91960
C         -6.08590        2.26320        2.44550
C         -5.44590        3.34720        3.04030
C         -6.04110        4.23290        4.08390
C         -6.67210        5.46910        3.43730
C         -4.14540        3.49990        2.55560
S         -2.83840        4.57980        2.99090
C         -1.80750        3.73940        1.88770
C         -0.45770        3.70250        1.51100
C          0.65450        4.42190        2.00140
C          1.96730        4.04970        1.56200
N          2.91720        4.76030        2.14940
S          2.21930        5.80990        3.16450
N          0.67700        5.39880        2.89420
C          2.09550        3.06330        0.55970
C          3.22180        2.59500       -0.13060
S          4.94070        2.77580       -0.11590
C          5.04970        1.68300       -1.47770
C          6.13780        1.14990       -2.18770
C          7.55800        1.55440       -1.94050
C          7.99620        1.33060       -0.49300
C          5.70450        0.32180       -3.21120
S          3.95050        0.23940       -3.31450
C          3.79850        1.24280       -1.92560
C          2.75780        1.73730       -1.13260
N          1.39630        1.63800       -1.06770
C          0.95990        2.41680       -0.01360
C         -0.31840        2.64950        0.55890
N         -1.55730        2.05280        0.38060
C         -2.44740        2.70510        1.19460
C         -3.78050        2.56510        1.57560
S         -5.07790        1.49210        1.21780
C         -1.90060        0.70080       -0.01070
C         -1.65280       -0.28130        1.13300
C          0.68060        0.98480       -2.13860
C          0.72010       -0.53750       -2.00190
C          6.42550       -0.39830       -4.20210
C          7.59380       -1.08130       -4.09270
C          8.35980       -1.44060       -5.31720
O          7.97880       -1.34910       -6.46110
C          9.68470       -1.87770       -4.82700
C         10.79680       -2.23090       -5.55170
C         11.95780       -2.60980       -4.86130
O         13.00950       -2.95270       -5.63320
C         14.20700       -3.37630       -5.02130
C         11.96050       -2.61010       -3.46410
C         10.83120       -2.26110       -2.74000
C          9.67870       -1.89660       -3.41660
C          8.34990       -1.53950       -2.94320
C          7.83940       -1.83360       -1.70560
C          6.47610       -1.73050       -1.36490
N          5.37590       -1.71920       -1.03610
C          8.60920       -2.36450       -0.65070
N          9.19480       -2.77630        0.24680
H         -8.08980        2.52740        3.10540
H        -11.70710       -0.97510        1.37310
H        -12.83490       -2.90140        0.26180
H         -8.44290       -5.08270       -0.45380
H         -7.31170       -3.22570        0.66460
H         -5.24650        4.54930        4.76240
H         -6.79020        3.69010        4.65980
H         -5.92430        6.02630        2.87800
H         -7.08590        6.11800        4.20430
H         -7.47080        5.18160        2.75730
H          8.21850        1.01630       -2.62180
H          7.64620        2.62190       -2.16670
H          7.81670        0.30590       -0.17820
H          7.45040        1.98830        0.17780
H          9.05820        1.54080       -0.39320
H         -1.34520        0.39430       -0.88820
H         -2.96410        0.70770       -0.26710
H         -2.22840       -0.00070        2.01230
H         -0.59870       -0.29480        1.40240
H         -1.95290       -1.28140        0.83230
H         -0.33680        1.37700       -2.17950
H          1.17440        1.26240       -3.07700
H          0.10680       -0.99420       -2.77370
H          1.73990       -0.89330       -2.11940
H          0.36490       -0.86210       -1.02740
H          5.99230       -0.38850       -5.19900
H         10.78970       -2.22800       -6.62970
H         14.05010       -4.27090       -4.41130
H         14.64470       -2.58460       -4.40590
H         14.88510       -3.61230       -5.83940
H         12.85040       -2.88690       -2.92170
H         10.87050       -2.26850       -1.66250
