
  xtb     02012219103D
 energy: -205.042801190195 gnorm: 0.000934592391 xtb: 6.4.1 (unknown)
103115  0     0  0            999 V2000
   -5.7173    1.0236   -4.5749 C   0  0  0  0  0  0  0  0  0  0  0  0
   -6.3108    2.1827   -4.1304 C   0  0  0  0  0  0  0  0  0  0  0  0
   -5.8552    3.0089   -3.0124 C   0  0  0  0  0  0  0  0  0  0  0  0
   -4.8988    2.8128   -2.2805 O   0  0  0  0  0  0  0  0  0  0  0  0
   -6.7886    4.1468   -2.9333 C   0  0  0  0  0  0  0  0  0  0  0  0
   -6.7862    5.1949   -2.0599 C   0  0  0  0  0  0  0  0  0  0  0  0
   -7.7871    6.1854   -2.1758 C   0  0  0  0  0  0  0  0  0  0  0  0
   -7.8319    7.2894   -1.3029 C   0  0  0  0  0  0  0  0  0  0  0  0
   -8.8090    8.2353   -1.4400 C   0  0  0  0  0  0  0  0  0  0  0  0
   -8.8499    9.2856   -0.6085 F   0  0  0  0  0  0  0  0  0  0  0  0
   -9.7810    8.1186   -2.4533 C   0  0  0  0  0  0  0  0  0  0  0  0
  -10.7258    9.0619   -2.5653 F   0  0  0  0  0  0  0  0  0  0  0  0
   -9.7643    7.0573   -3.3144 C   0  0  0  0  0  0  0  0  0  0  0  0
   -8.7705    6.0649   -3.1994 C   0  0  0  0  0  0  0  0  0  0  0  0
   -8.7471    4.9637   -4.0868 C   0  0  0  0  0  0  0  0  0  0  0  0
   -7.7685    4.0145   -3.9562 C   0  0  0  0  0  0  0  0  0  0  0  0
   -7.4916    2.7911   -4.7080 C   0  0  0  0  0  0  0  0  0  0  0  0
   -8.2410    2.3302   -5.7617 C   0  0  0  0  0  0  0  0  0  0  0  0
   -9.3834    2.9869   -6.2646 C   0  0  0  0  0  0  0  0  0  0  0  0
  -10.3185    3.4702   -6.7233 N   0  0  0  0  0  0  0  0  0  0  0  0
   -7.9998    1.1503   -6.4946 C   0  0  0  0  0  0  0  0  0  0  0  0
   -7.8724    0.2097   -7.1429 N   0  0  0  0  0  0  0  0  0  0  0  0
   -4.5871    0.3395   -4.1231 C   0  0  0  0  0  0  0  0  0  0  0  0
   -4.1128   -0.8356   -4.7370 C   0  0  0  0  0  0  0  0  0  0  0  0
   -4.6958   -1.4828   -5.9502 C   0  0  0  0  0  0  0  0  0  0  0  0
   -4.2054   -0.7944   -7.2273 C   0  0  0  0  0  0  0  0  0  0  0  0
   -2.9737   -1.3108   -4.1046 C   0  0  0  0  0  0  0  0  0  0  0  0
   -1.9398   -2.6927   -4.4207 S   0  0  0  0  0  0  0  0  0  0  0  0
   -0.9615   -2.2248   -3.0746 C   0  0  0  0  0  0  0  0  0  0  0  0
    0.2146   -2.6272   -2.4303 C   0  0  0  0  0  0  0  0  0  0  0  0
    1.1477   -3.6367   -2.7576 C   0  0  0  0  0  0  0  0  0  0  0  0
    2.3563   -3.7358   -1.9947 C   0  0  0  0  0  0  0  0  0  0  0  0
    3.1655   -4.6796   -2.4487 N   0  0  0  0  0  0  0  0  0  0  0  0
    2.4635   -5.3871   -3.7241 S   0  0  0  0  0  0  0  0  0  0  0  0
    1.1010   -4.5145   -3.7471 N   0  0  0  0  0  0  0  0  0  0  0  0
    2.5163   -2.9055   -0.8626 C   0  0  0  0  0  0  0  0  0  0  0  0
    3.5033   -2.8874    0.1285 C   0  0  0  0  0  0  0  0  0  0  0  0
    4.9961   -3.6763    0.4987 S   0  0  0  0  0  0  0  0  0  0  0  0
    5.0568   -2.7800    2.0060 C   0  0  0  0  0  0  0  0  0  0  0  0
    5.9707   -2.7696    3.0462 C   0  0  0  0  0  0  0  0  0  0  0  0
    7.2260   -3.5779    3.0334 C   0  0  0  0  0  0  0  0  0  0  0  0
    8.4060   -2.7436    2.5262 C   0  0  0  0  0  0  0  0  0  0  0  0
    5.5848   -1.8666    4.0598 C   0  0  0  0  0  0  0  0  0  0  0  0
    4.0625   -1.0545    3.6800 S   0  0  0  0  0  0  0  0  0  0  0  0
    3.9617   -1.9118    2.1908 C   0  0  0  0  0  0  0  0  0  0  0  0
    3.0847   -1.9739    1.1071 C   0  0  0  0  0  0  0  0  0  0  0  0
    1.8869   -1.4194    0.7421 N   0  0  0  0  0  0  0  0  0  0  0  0
    1.5247   -1.9513   -0.4781 C   0  0  0  0  0  0  0  0  0  0  0  0
    0.4238   -1.7238   -1.3453 C   0  0  0  0  0  0  0  0  0  0  0  0
   -0.5873   -0.7771   -1.3632 N   0  0  0  0  0  0  0  0  0  0  0  0
   -1.4154   -1.0761   -2.4141 C   0  0  0  0  0  0  0  0  0  0  0  0
   -2.5624   -0.5377   -3.0032 C   0  0  0  0  0  0  0  0  0  0  0  0
   -3.5912    0.8202   -2.7465 S   0  0  0  0  0  0  0  0  0  0  0  0
   -0.5986    0.5819   -0.8628 C   0  0  0  0  0  0  0  0  0  0  0  0
    0.3346    1.4698   -1.6831 C   0  0  0  0  0  0  0  0  0  0  0  0
    1.1091   -0.6948    1.7228 C   0  0  0  0  0  0  0  0  0  0  0  0
    1.5812    0.7492    1.8841 C   0  0  0  0  0  0  0  0  0  0  0  0
    6.3391   -1.6581    5.2118 C   0  0  0  0  0  0  0  0  0  0  0  0
    6.1468   -0.8126    6.2849 C   0  0  0  0  0  0  0  0  0  0  0  0
    5.0276    0.1102    6.4588 C   0  0  0  0  0  0  0  0  0  0  0  0
    4.0814    0.2872    5.7153 O   0  0  0  0  0  0  0  0  0  0  0  0
    5.2734    0.8017    7.7464 C   0  0  0  0  0  0  0  0  0  0  0  0
    6.4669    0.3217    8.3137 C   0  0  0  0  0  0  0  0  0  0  0  0
    6.9164    0.8167    9.5256 C   0  0  0  0  0  0  0  0  0  0  0  0
    6.1562    1.7924   10.1557 C   0  0  0  0  0  0  0  0  0  0  0  0
    6.5724    2.2838   11.3251 F   0  0  0  0  0  0  0  0  0  0  0  0
    4.9714    2.2768    9.6070 C   0  0  0  0  0  0  0  0  0  0  0  0
    4.2677    3.2163   10.2446 F   0  0  0  0  0  0  0  0  0  0  0  0
    4.5237    1.7733    8.3836 C   0  0  0  0  0  0  0  0  0  0  0  0
    3.3921    2.2378    7.8605 F   0  0  0  0  0  0  0  0  0  0  0  0
    7.0324   -0.6932    7.4197 C   0  0  0  0  0  0  0  0  0  0  0  0
    8.1951   -1.3833    7.6576 C   0  0  0  0  0  0  0  0  0  0  0  0
    9.0069   -1.2045    8.7975 C   0  0  0  0  0  0  0  0  0  0  0  0
    9.7167   -1.1091    9.6944 N   0  0  0  0  0  0  0  0  0  0  0  0
    8.7568   -2.3677    6.8180 C   0  0  0  0  0  0  0  0  0  0  0  0
    9.2804   -3.1745    6.1894 N   0  0  0  0  0  0  0  0  0  0  0  0
   -6.1903    0.5497   -5.4240 H   0  0  0  0  0  0  0  0  0  0  0  0
   -6.0310    5.2685   -1.2922 H   0  0  0  0  0  0  0  0  0  0  0  0
   -7.0948    7.3931   -0.5221 H   0  0  0  0  0  0  0  0  0  0  0  0
  -10.5164    6.9830   -4.0843 H   0  0  0  0  0  0  0  0  0  0  0  0
   -9.5070    4.9029   -4.8486 H   0  0  0  0  0  0  0  0  0  0  0  0
   -5.7862   -1.4586   -5.9224 H   0  0  0  0  0  0  0  0  0  0  0  0
   -4.3773   -2.5270   -5.9649 H   0  0  0  0  0  0  0  0  0  0  0  0
   -3.1209   -0.8428   -7.2910 H   0  0  0  0  0  0  0  0  0  0  0  0
   -4.5088    0.2497   -7.2447 H   0  0  0  0  0  0  0  0  0  0  0  0
   -4.6293   -1.2894   -8.0960 H   0  0  0  0  0  0  0  0  0  0  0  0
    7.4560   -3.9627    4.0280 H   0  0  0  0  0  0  0  0  0  0  0  0
    7.0777   -4.4273    2.3638 H   0  0  0  0  0  0  0  0  0  0  0  0
    9.3060   -3.3512    2.5149 H   0  0  0  0  0  0  0  0  0  0  0  0
    8.2112   -2.3869    1.5177 H   0  0  0  0  0  0  0  0  0  0  0  0
    8.5784   -1.8856    3.1716 H   0  0  0  0  0  0  0  0  0  0  0  0
   -1.6258    0.9432   -0.9574 H   0  0  0  0  0  0  0  0  0  0  0  0
   -0.3245    0.6192    0.1856 H   0  0  0  0  0  0  0  0  0  0  0  0
    0.0283    1.4773   -2.7265 H   0  0  0  0  0  0  0  0  0  0  0  0
    0.2998    2.4880   -1.3063 H   0  0  0  0  0  0  0  0  0  0  0  0
    1.3589    1.1059   -1.6273 H   0  0  0  0  0  0  0  0  0  0  0  0
    0.0542   -0.7622    1.4534 H   0  0  0  0  0  0  0  0  0  0  0  0
    1.2347   -1.2071    2.6830 H   0  0  0  0  0  0  0  0  0  0  0  0
    2.5706    0.7676    2.3325 H   0  0  0  0  0  0  0  0  0  0  0  0
    0.9037    1.2847    2.5430 H   0  0  0  0  0  0  0  0  0  0  0  0
    1.6299    1.2645    0.9286 H   0  0  0  0  0  0  0  0  0  0  0  0
    7.2314   -2.2670    5.2539 H   0  0  0  0  0  0  0  0  0  0  0  0
    7.8239    0.4816    9.9993 H   0  0  0  0  0  0  0  0  0  0  0  0
  1  2  2  0  0  0  0
  2  3  1  0  0  0  0
  3  4  2  0  0  0  0
  3  5  1  0  0  0  0
  5  6  2  0  0  0  0
  6  7  1  0  0  0  0
  7  8  2  0  0  0  0
  8  9  1  0  0  0  0
  9 10  1  0  0  0  0
  9 11  2  0  0  0  0
 11 12  1  0  0  0  0
 11 13  1  0  0  0  0
 13 14  2  0  0  0  0
 14 15  1  0  0  0  0
 15 16  2  0  0  0  0
 16 17  1  0  0  0  0
 17 18  2  0  0  0  0
 18 19  1  0  0  0  0
 19 20  3  0  0  0  0
 18 21  1  0  0  0  0
 21 22  3  0  0  0  0
  1 23  1  0  0  0  0
 23 24  2  0  0  0  0
 24 25  1  0  0  0  0
 25 26  1  0  0  0  0
 24 27  1  0  0  0  0
 27 28  1  0  0  0  0
 28 29  1  0  0  0  0
 29 30  1  0  0  0  0
 30 31  1  0  0  0  0
 31 32  1  0  0  0  0
 32 33  2  0  0  0  0
 33 34  1  0  0  0  0
 34 35  1  0  0  0  0
 32 36  1  0  0  0  0
 36 37  1  0  0  0  0
 37 38  1  0  0  0  0
 38 39  1  0  0  0  0
 39 40  1  0  0  0  0
 40 41  1  0  0  0  0
 41 42  1  0  0  0  0
 40 43  2  0  0  0  0
 43 44  1  0  0  0  0
 44 45  1  0  0  0  0
 45 46  1  0  0  0  0
 46 47  1  0  0  0  0
 47 48  1  0  0  0  0
 48 49  1  0  0  0  0
 49 50  1  0  0  0  0
 50 51  1  0  0  0  0
 51 52  1  0  0  0  0
 52 53  1  0  0  0  0
 50 54  1  0  0  0  0
 54 55  1  0  0  0  0
 47 56  1  0  0  0  0
 56 57  1  0  0  0  0
 43 58  1  0  0  0  0
 58 59  2  0  0  0  0
 59 60  1  0  0  0  0
 60 61  2  0  0  0  0
 60 62  1  0  0  0  0
 62 63  2  0  0  0  0
 63 64  1  0  0  0  0
 64 65  2  0  0  0  0
 65 66  1  0  0  0  0
 65 67  1  0  0  0  0
 67 68  1  0  0  0  0
 67 69  2  0  0  0  0
 69 70  1  0  0  0  0
 63 71  1  0  0  0  0
 71 72  2  0  0  0  0
 72 73  1  0  0  0  0
 73 74  3  0  0  0  0
 72 75  1  0  0  0  0
 75 76  3  0  0  0  0
 17  2  1  0  0  0  0
 53 23  1  0  0  0  0
 71 59  1  0  0  0  0
 16  5  1  0  0  0  0
 52 27  2  0  0  0  0
 69 62  1  0  0  0  0
 14  7  1  0  0  0  0
 51 29  2  0  0  0  0
 49 30  2  0  0  0  0
 35 31  2  0  0  0  0
 48 36  2  0  0  0  0
 46 37  2  0  0  0  0
 45 39  2  0  0  0  0
  1 77  1  0  0  0  0
  6 78  1  0  0  0  0
  8 79  1  0  0  0  0
 13 80  1  0  0  0  0
 15 81  1  0  0  0  0
 25 82  1  0  0  0  0
 25 83  1  0  0  0  0
 26 84  1  0  0  0  0
 26 85  1  0  0  0  0
 26 86  1  0  0  0  0
 41 87  1  0  0  0  0
 41 88  1  0  0  0  0
 42 89  1  0  0  0  0
 42 90  1  0  0  0  0
 42 91  1  0  0  0  0
 54 92  1  0  0  0  0
 54 93  1  0  0  0  0
 55 94  1  0  0  0  0
 55 95  1  0  0  0  0
 55 96  1  0  0  0  0
 56 97  1  0  0  0  0
 56 98  1  0  0  0  0
 57 99  1  0  0  0  0
 57100  1  0  0  0  0
 57101  1  0  0  0  0
 58102  1  0  0  0  0
 64103  1  0  0  0  0
M  END
