
  xtb     02012220043D
 energy: -193.480021943879 gnorm: 0.000439975075 xtb: 6.4.1 (unknown)
103115  0     0  0            999 V2000
   -5.6516   -0.2570   -5.1601 C   0  0  0  0  0  0  0  0  0  0  0  0
   -5.6594    1.0964   -5.3509 C   0  0  0  0  0  0  0  0  0  0  0  0
   -6.9480    1.8034   -5.5472 C   0  0  0  0  0  0  0  0  0  0  0  0
   -8.0250    1.3052   -5.7874 O   0  0  0  0  0  0  0  0  0  0  0  0
   -6.6415    3.2331   -5.3182 C   0  0  0  0  0  0  0  0  0  0  0  0
   -7.4945    4.2962   -5.2594 C   0  0  0  0  0  0  0  0  0  0  0  0
   -6.9722    5.5822   -4.9912 C   0  0  0  0  0  0  0  0  0  0  0  0
   -7.8105    6.7113   -4.9152 C   0  0  0  0  0  0  0  0  0  0  0  0
   -7.2833    7.9435   -4.6473 C   0  0  0  0  0  0  0  0  0  0  0  0
   -8.0836    9.0166   -4.5722 F   0  0  0  0  0  0  0  0  0  0  0  0
   -5.8979    8.1007   -4.4457 C   0  0  0  0  0  0  0  0  0  0  0  0
   -5.4082    9.3207   -4.1835 F   0  0  0  0  0  0  0  0  0  0  0  0
   -5.0587    7.0243   -4.5141 C   0  0  0  0  0  0  0  0  0  0  0  0
   -5.5706    5.7405   -4.7886 C   0  0  0  0  0  0  0  0  0  0  0  0
   -4.7094    4.6216   -4.8663 C   0  0  0  0  0  0  0  0  0  0  0  0
   -5.2382    3.3876   -5.1300 C   0  0  0  0  0  0  0  0  0  0  0  0
   -4.6066    2.0818   -5.3002 C   0  0  0  0  0  0  0  0  0  0  0  0
   -3.2923    1.8745   -5.6373 C   0  0  0  0  0  0  0  0  0  0  0  0
   -2.3114    2.8833   -5.6315 C   0  0  0  0  0  0  0  0  0  0  0  0
   -1.4704    3.6651   -5.6100 N   0  0  0  0  0  0  0  0  0  0  0  0
   -2.8136    0.6362   -6.1117 C   0  0  0  0  0  0  0  0  0  0  0  0
   -2.4105   -0.3455   -6.5500 N   0  0  0  0  0  0  0  0  0  0  0  0
   -4.6881   -1.0554   -4.5168 C   0  0  0  0  0  0  0  0  0  0  0  0
   -4.6066   -2.4451   -4.5487 C   0  0  0  0  0  0  0  0  0  0  0  0
   -5.4890   -3.3406   -5.3535 C   0  0  0  0  0  0  0  0  0  0  0  0
   -6.6866   -3.8026   -4.5183 C   0  0  0  0  0  0  0  0  0  0  0  0
   -3.5915   -2.9178   -3.7158 C   0  0  0  0  0  0  0  0  0  0  0  0
   -3.0174   -4.5309   -3.3571 S   0  0  0  0  0  0  0  0  0  0  0  0
   -1.8483   -3.8477   -2.2843 C   0  0  0  0  0  0  0  0  0  0  0  0
   -0.8390   -4.2682   -1.4092 C   0  0  0  0  0  0  0  0  0  0  0  0
   -0.4489   -5.5653   -1.0087 C   0  0  0  0  0  0  0  0  0  0  0  0
    0.5429   -5.7023    0.0159 C   0  0  0  0  0  0  0  0  0  0  0  0
    0.7706   -6.9669    0.3335 N   0  0  0  0  0  0  0  0  0  0  0  0
   -0.1776   -7.9048   -0.5832 S   0  0  0  0  0  0  0  0  0  0  0  0
   -0.9189   -6.7328   -1.4186 N   0  0  0  0  0  0  0  0  0  0  0  0
    1.1724   -4.5405    0.5149 C   0  0  0  0  0  0  0  0  0  0  0  0
    2.2249   -4.3902    1.4264 C   0  0  0  0  0  0  0  0  0  0  0  0
    3.2196   -5.3664    2.4499 S   0  0  0  0  0  0  0  0  0  0  0  0
    4.0744   -3.9170    2.9444 C   0  0  0  0  0  0  0  0  0  0  0  0
    5.1295   -3.7095    3.8253 C   0  0  0  0  0  0  0  0  0  0  0  0
    5.7473   -4.8144    4.6184 C   0  0  0  0  0  0  0  0  0  0  0  0
    5.1017   -4.9126    6.0034 C   0  0  0  0  0  0  0  0  0  0  0  0
    5.4686   -2.3501    3.9046 C   0  0  0  0  0  0  0  0  0  0  0  0
    4.4623   -1.3491    2.8585 S   0  0  0  0  0  0  0  0  0  0  0  0
    3.5990   -2.7456    2.3333 C   0  0  0  0  0  0  0  0  0  0  0  0
    2.5359   -3.0261    1.4683 C   0  0  0  0  0  0  0  0  0  0  0  0
    1.7005   -2.3283    0.6390 N   0  0  0  0  0  0  0  0  0  0  0  0
    0.8375   -3.2346    0.0465 C   0  0  0  0  0  0  0  0  0  0  0  0
   -0.2566   -3.0933   -0.8480 C   0  0  0  0  0  0  0  0  0  0  0  0
   -0.9312   -1.9936   -1.3514 N   0  0  0  0  0  0  0  0  0  0  0  0
   -1.8934   -2.4492   -2.2113 C   0  0  0  0  0  0  0  0  0  0  0  0
   -2.8947   -1.9158   -3.0234 C   0  0  0  0  0  0  0  0  0  0  0  0
   -3.5018   -0.3514   -3.4131 S   0  0  0  0  0  0  0  0  0  0  0  0
   -0.9948   -0.6326   -0.8675 C   0  0  0  0  0  0  0  0  0  0  0  0
   -1.4465   -0.5779    0.5897 C   0  0  0  0  0  0  0  0  0  0  0  0
    2.0565   -0.9811    0.2483 C   0  0  0  0  0  0  0  0  0  0  0  0
    2.5317   -0.9278   -1.2013 C   0  0  0  0  0  0  0  0  0  0  0  0
    6.4904   -1.8658    4.7329 C   0  0  0  0  0  0  0  0  0  0  0  0
    6.9390   -0.5931    4.9634 C   0  0  0  0  0  0  0  0  0  0  0  0
    6.4205    0.6475    4.3514 C   0  0  0  0  0  0  0  0  0  0  0  0
    5.5289    0.7529    3.5267 O   0  0  0  0  0  0  0  0  0  0  0  0
    7.2151    1.7084    4.9496 C   0  0  0  0  0  0  0  0  0  0  0  0
    7.2937    3.4133    4.8362 S   0  0  0  0  0  0  0  0  0  0  0  0
    8.5920    3.4446    5.9995 C   0  0  0  0  0  0  0  0  0  0  0  0
    9.1948    4.7407    6.3985 C   0  0  0  0  0  0  0  0  0  0  0  0
    8.9346    2.1962    6.4401 C   0  0  0  0  0  0  0  0  0  0  0  0
    8.1476    1.1959    5.8407 C   0  0  0  0  0  0  0  0  0  0  0  0
    8.0153   -0.2478    5.8773 C   0  0  0  0  0  0  0  0  0  0  0  0
    8.7911   -1.0778    6.6455 C   0  0  0  0  0  0  0  0  0  0  0  0
    8.6974   -2.4815    6.7067 C   0  0  0  0  0  0  0  0  0  0  0  0
    8.6763   -3.6260    6.8077 N   0  0  0  0  0  0  0  0  0  0  0  0
    9.8066   -0.5725    7.4840 C   0  0  0  0  0  0  0  0  0  0  0  0
   10.6374   -0.1855    8.1747 N   0  0  0  0  0  0  0  0  0  0  0  0
   -6.5645   -0.7636   -5.4567 H   0  0  0  0  0  0  0  0  0  0  0  0
   -8.5540    4.1601   -5.4142 H   0  0  0  0  0  0  0  0  0  0  0  0
   -8.8735    6.6077   -5.0672 H   0  0  0  0  0  0  0  0  0  0  0  0
   -3.9998    7.1626   -4.3611 H   0  0  0  0  0  0  0  0  0  0  0  0
   -3.6527    4.7654   -4.7049 H   0  0  0  0  0  0  0  0  0  0  0  0
   -4.9085   -4.2131   -5.6591 H   0  0  0  0  0  0  0  0  0  0  0  0
   -5.8349   -2.8258   -6.2496 H   0  0  0  0  0  0  0  0  0  0  0  0
   -7.2845   -2.9520   -4.1986 H   0  0  0  0  0  0  0  0  0  0  0  0
   -7.3144   -4.4662   -5.1065 H   0  0  0  0  0  0  0  0  0  0  0  0
   -6.3469   -4.3387   -3.6353 H   0  0  0  0  0  0  0  0  0  0  0  0
    5.5841   -5.7514    4.0823 H   0  0  0  0  0  0  0  0  0  0  0  0
    6.8225   -4.6668    4.7291 H   0  0  0  0  0  0  0  0  0  0  0  0
    5.2457   -3.9904    6.5615 H   0  0  0  0  0  0  0  0  0  0  0  0
    4.0344   -5.0996    5.9103 H   0  0  0  0  0  0  0  0  0  0  0  0
    5.5523   -5.7273    6.5628 H   0  0  0  0  0  0  0  0  0  0  0  0
   -0.0401   -0.1275   -1.0138 H   0  0  0  0  0  0  0  0  0  0  0  0
   -1.7281   -0.1156   -1.4914 H   0  0  0  0  0  0  0  0  0  0  0  0
   -1.4690    0.4531    0.9318 H   0  0  0  0  0  0  0  0  0  0  0  0
   -2.4461   -0.9959    0.6850 H   0  0  0  0  0  0  0  0  0  0  0  0
   -0.7787   -1.1476    1.2316 H   0  0  0  0  0  0  0  0  0  0  0  0
    2.8732   -0.6738    0.9059 H   0  0  0  0  0  0  0  0  0  0  0  0
    1.2285   -0.2954    0.4276 H   0  0  0  0  0  0  0  0  0  0  0  0
    3.4184   -1.5455   -1.3234 H   0  0  0  0  0  0  0  0  0  0  0  0
    2.7842    0.0943   -1.4696 H   0  0  0  0  0  0  0  0  0  0  0  0
    1.7683   -1.2930   -1.8845 H   0  0  0  0  0  0  0  0  0  0  0  0
    6.9962   -2.6467    5.2851 H   0  0  0  0  0  0  0  0  0  0  0  0
    9.9508    4.5808    7.1628 H   0  0  0  0  0  0  0  0  0  0  0  0
    8.4331    5.4147    6.7888 H   0  0  0  0  0  0  0  0  0  0  0  0
    9.6589    5.2273    5.5409 H   0  0  0  0  0  0  0  0  0  0  0  0
    9.7132    2.0193    7.1588 H   0  0  0  0  0  0  0  0  0  0  0  0
  1  2  2  0  0  0  0
  2  3  1  0  0  0  0
  3  4  2  0  0  0  0
  3  5  1  0  0  0  0
  5  6  2  0  0  0  0
  6  7  1  0  0  0  0
  7  8  2  0  0  0  0
  8  9  1  0  0  0  0
  9 10  1  0  0  0  0
  9 11  2  0  0  0  0
 11 12  1  0  0  0  0
 11 13  1  0  0  0  0
 13 14  2  0  0  0  0
 14 15  1  0  0  0  0
 15 16  2  0  0  0  0
 16 17  1  0  0  0  0
 17 18  2  0  0  0  0
 18 19  1  0  0  0  0
 19 20  3  0  0  0  0
 18 21  1  0  0  0  0
 21 22  3  0  0  0  0
  1 23  1  0  0  0  0
 23 24  2  0  0  0  0
 24 25  1  0  0  0  0
 25 26  1  0  0  0  0
 24 27  1  0  0  0  0
 27 28  1  0  0  0  0
 28 29  1  0  0  0  0
 29 30  1  0  0  0  0
 30 31  1  0  0  0  0
 31 32  1  0  0  0  0
 32 33  2  0  0  0  0
 33 34  1  0  0  0  0
 34 35  1  0  0  0  0
 32 36  1  0  0  0  0
 36 37  1  0  0  0  0
 37 38  1  0  0  0  0
 38 39  1  0  0  0  0
 39 40  1  0  0  0  0
 40 41  1  0  0  0  0
 41 42  1  0  0  0  0
 40 43  2  0  0  0  0
 43 44  1  0  0  0  0
 44 45  1  0  0  0  0
 45 46  1  0  0  0  0
 46 47  1  0  0  0  0
 47 48  1  0  0  0  0
 48 49  1  0  0  0  0
 49 50  1  0  0  0  0
 50 51  1  0  0  0  0
 51 52  1  0  0  0  0
 52 53  1  0  0  0  0
 50 54  1  0  0  0  0
 54 55  1  0  0  0  0
 47 56  1  0  0  0  0
 56 57  1  0  0  0  0
 43 58  1  0  0  0  0
 58 59  2  0  0  0  0
 59 60  1  0  0  0  0
 60 61  2  0  0  0  0
 60 62  1  0  0  0  0
 62 63  1  0  0  0  0
 63 64  1  0  0  0  0
 64 65  1  0  0  0  0
 64 66  2  0  0  0  0
 66 67  1  0  0  0  0
 67 68  1  0  0  0  0
 68 69  2  0  0  0  0
 69 70  1  0  0  0  0
 70 71  3  0  0  0  0
 69 72  1  0  0  0  0
 72 73  3  0  0  0  0
 17  2  1  0  0  0  0
 53 23  1  0  0  0  0
 68 59  1  0  0  0  0
 16  5  1  0  0  0  0
 52 27  2  0  0  0  0
 67 62  2  0  0  0  0
 14  7  1  0  0  0  0
 51 29  2  0  0  0  0
 49 30  2  0  0  0  0
 35 31  2  0  0  0  0
 48 36  2  0  0  0  0
 46 37  2  0  0  0  0
 45 39  2  0  0  0  0
  1 74  1  0  0  0  0
  6 75  1  0  0  0  0
  8 76  1  0  0  0  0
 13 77  1  0  0  0  0
 15 78  1  0  0  0  0
 25 79  1  0  0  0  0
 25 80  1  0  0  0  0
 26 81  1  0  0  0  0
 26 82  1  0  0  0  0
 26 83  1  0  0  0  0
 41 84  1  0  0  0  0
 41 85  1  0  0  0  0
 42 86  1  0  0  0  0
 42 87  1  0  0  0  0
 42 88  1  0  0  0  0
 54 89  1  0  0  0  0
 54 90  1  0  0  0  0
 55 91  1  0  0  0  0
 55 92  1  0  0  0  0
 55 93  1  0  0  0  0
 56 94  1  0  0  0  0
 56 95  1  0  0  0  0
 57 96  1  0  0  0  0
 57 97  1  0  0  0  0
 57 98  1  0  0  0  0
 58 99  1  0  0  0  0
 65100  1  0  0  0  0
 65101  1  0  0  0  0
 65102  1  0  0  0  0
 66103  1  0  0  0  0
M  END
