103

C         -7.17910        0.40630        2.09990
C         -7.69320       -0.53970        1.24220
C         -6.93100       -1.32990        0.27620
O         -5.73670       -1.26460        0.03400
C         -7.89690       -2.24060       -0.36500
C         -7.67350       -3.18850       -1.32040
C         -8.76030       -3.96350       -1.78380
C         -8.58690       -4.95880       -2.76460
C         -9.65490       -5.69790       -3.19050
F         -9.48750       -6.64600       -4.12330
C        -10.93910       -5.47420       -2.65610
F        -11.96700       -6.21530       -3.09130
C        -11.13870       -4.51390       -1.70410
C        -10.05850       -3.73490       -1.24360
C        -10.25720       -2.74090       -0.25720
C         -9.18990       -2.00150        0.17810
C         -9.08510       -0.93270        1.17080
C        -10.13960       -0.41480        1.88140
C        -10.06450        0.62060        2.83500
N        -10.08750        1.45660        3.62370
C        -11.47280       -0.85470        1.74730
N        -12.57720       -1.16290        1.68570
C         -5.87310        0.86060        2.28810
C         -5.53110        1.81320        3.26700
C         -6.47160        2.43880        4.24390
C         -6.68320        1.52760        5.45620
C         -4.16880        2.07170        3.26610
S         -3.17010        3.11760        4.25890
C         -1.78960        2.58980        3.36270
C         -0.40370        2.77910        3.34880
C          0.43030        3.50850        4.22520
C          1.84860        3.43250        4.04910
N          2.51110        4.11700        4.96790
S          1.43830        4.80320        5.96750
N          0.08790        4.25090        5.26610
C          2.35880        2.71800        2.94230
C          3.67010        2.58760        2.47330
S          5.26970        3.06340        2.92260
C          5.86560        2.31800        1.45080
C          7.13860        2.21530        0.91060
C          8.35580        2.72970        1.60630
C          9.03990        1.61340        2.40060
C          7.12030        1.53030       -0.31930
S          5.48970        1.02570       -0.77380
C          4.85660        1.72910        0.66610
C          3.60320        1.88240        1.26480
N          2.30450        1.54710        0.99130
C          1.51160        2.04300        2.01140
C          0.11660        1.98800        2.27940
N         -0.93930        1.31340        1.69180
C         -2.08590        1.66890        2.34950
C         -3.44700        1.35700        2.29220
S         -4.46670        0.32170        1.36550
C         -0.95310        0.15660        0.82370
C         -0.24670       -1.03340        1.46820
C          1.95650        1.09800       -0.33880
C          1.22600        2.18640       -1.12120
C          8.27070        1.30240       -1.07570
C          8.44840        0.67180       -2.28600
C          7.40190        0.05560       -3.09970
O          6.20920       -0.01900       -2.85930
C          8.07900       -0.46960       -4.30380
C          7.52470       -1.13400       -5.37720
C          8.38450       -1.52290       -6.39590
Br         7.68100       -2.44190       -7.90310
C          9.74550       -1.25610       -6.34060
C         10.29190       -0.58720       -5.25480
C          9.45400       -0.18840       -4.22400
C          9.71560        0.52150       -2.97160
C         10.95030        0.95300       -2.55640
C         12.14030        0.76780       -3.29120
N         13.14360        0.65520       -3.83770
C         11.22630        1.63620       -1.35400
N         11.53610        2.19210       -0.39700
H         -7.89340        0.87920        2.75970
H         -6.68160       -3.34710       -1.71550
H         -7.60990       -5.14270       -3.18340
H        -12.12860       -4.35510       -1.30560
H        -11.25240       -2.59430        0.12970
H         -7.43520        2.65450        3.78010
H         -6.03520        3.38140        4.58020
H         -5.73640        1.33770        5.95650
H         -7.11370        0.57600        5.15320
H         -7.36080        2.00340        6.15900
H          8.04650        3.51830        2.29510
H          9.06580        3.15540        0.89580
H          8.35780        1.20380        3.14200
H          9.91420        2.00830        2.90970
H          9.35990        0.81050        1.74070
H         -0.52730        0.40110       -0.14900
H         -2.00340       -0.09580        0.65980
H         -0.76090       -1.31810        2.38310
H         -0.25790       -1.88120        0.78900
H          0.78450       -0.79480        1.71900
H          1.37860        0.17530       -0.29370
H          2.89680        0.86320       -0.84320
H          0.96220        1.81780       -2.10850
H          0.32040        2.50350       -0.60860
H          1.87070        3.05430       -1.23830
H          9.16610        1.70070       -0.61890
H          6.46600       -1.33800       -5.41500
H         10.38450       -1.57210       -7.15070
H         11.35110       -0.39130       -5.23490
