
  xtb     02022200253D
 energy: -199.089491346741 gnorm: 0.000732876351 xtb: 6.4.1 (unknown)
106118  0     0  0            999 V2000
   -6.8739    1.8899   -0.1917 C   0  0  0  0  0  0  0  0  0  0  0  0
   -7.3836    0.8102    0.4951 C   0  0  0  0  0  0  0  0  0  0  0  0
   -6.6256   -0.3505    0.9592 C   0  0  0  0  0  0  0  0  0  0  0  0
   -5.4404   -0.5874    0.7898 O   0  0  0  0  0  0  0  0  0  0  0  0
   -7.5811   -1.2013    1.6917 C   0  0  0  0  0  0  0  0  0  0  0  0
   -7.3545   -2.3845    2.3318 C   0  0  0  0  0  0  0  0  0  0  0  0
   -8.4295   -3.0246    2.9883 C   0  0  0  0  0  0  0  0  0  0  0  0
   -8.2523   -4.2444    3.6689 C   0  0  0  0  0  0  0  0  0  0  0  0
   -9.3089   -4.8403    4.2988 C   0  0  0  0  0  0  0  0  0  0  0  0
   -9.1377   -6.0012    4.9473 F   0  0  0  0  0  0  0  0  0  0  0  0
  -10.5852   -4.2443    4.2746 C   0  0  0  0  0  0  0  0  0  0  0  0
  -11.6027   -4.8513    4.9008 F   0  0  0  0  0  0  0  0  0  0  0  0
  -10.7880   -3.0608    3.6216 C   0  0  0  0  0  0  0  0  0  0  0  0
   -9.7193   -2.4205    2.9632 C   0  0  0  0  0  0  0  0  0  0  0  0
   -9.9211   -1.1939    2.2880 C   0  0  0  0  0  0  0  0  0  0  0  0
   -8.8651   -0.5899    1.6593 C   0  0  0  0  0  0  0  0  0  0  0  0
   -8.7643    0.6580    0.9030 C   0  0  0  0  0  0  0  0  0  0  0  0
   -9.8145    1.5026    0.6397 C   0  0  0  0  0  0  0  0  0  0  0  0
  -11.1364    1.2766    1.0755 C   0  0  0  0  0  0  0  0  0  0  0  0
  -12.2316    1.1543    1.3980 N   0  0  0  0  0  0  0  0  0  0  0  0
   -9.7471    2.7009   -0.0995 C   0  0  0  0  0  0  0  0  0  0  0  0
   -9.7770    3.6865   -0.6902 N   0  0  0  0  0  0  0  0  0  0  0  0
   -5.5778    2.1726   -0.6229 C   0  0  0  0  0  0  0  0  0  0  0  0
   -5.2403    3.3599   -1.3023 C   0  0  0  0  0  0  0  0  0  0  0  0
   -6.1953    4.4320   -1.7129 C   0  0  0  0  0  0  0  0  0  0  0  0
   -6.8932    4.0651   -3.0257 C   0  0  0  0  0  0  0  0  0  0  0  0
   -3.8885    3.4010   -1.6062 C   0  0  0  0  0  0  0  0  0  0  0  0
   -2.8969    4.5989   -2.4196 S   0  0  0  0  0  0  0  0  0  0  0  0
   -1.5220    3.5808   -2.1709 C   0  0  0  0  0  0  0  0  0  0  0  0
   -0.1531    3.5574   -2.4669 C   0  0  0  0  0  0  0  0  0  0  0  0
    0.6451    4.4405   -3.2279 C   0  0  0  0  0  0  0  0  0  0  0  0
    2.0148    4.0976   -3.4751 C   0  0  0  0  0  0  0  0  0  0  0  0
    2.6262    4.9817   -4.2474 N   0  0  0  0  0  0  0  0  0  0  0  0
    1.5702    6.1486   -4.6267 S   0  0  0  0  0  0  0  0  0  0  0  0
    0.2913    5.5696   -3.8209 N   0  0  0  0  0  0  0  0  0  0  0  0
    2.5535    2.9513   -2.8495 C   0  0  0  0  0  0  0  0  0  0  0  0
    3.8661    2.4663   -2.7919 C   0  0  0  0  0  0  0  0  0  0  0  0
    5.4300    2.8474   -3.4249 S   0  0  0  0  0  0  0  0  0  0  0  0
    6.0998    1.5387   -2.4707 C   0  0  0  0  0  0  0  0  0  0  0  0
    7.3947    1.0509   -2.3311 C   0  0  0  0  0  0  0  0  0  0  0  0
    8.5690    1.6701   -3.0176 C   0  0  0  0  0  0  0  0  0  0  0  0
    9.2605    2.6857   -2.1041 C   0  0  0  0  0  0  0  0  0  0  0  0
    7.4381   -0.0315   -1.4424 C   0  0  0  0  0  0  0  0  0  0  0  0
    5.8468   -0.4319   -0.7995 S   0  0  0  0  0  0  0  0  0  0  0  0
    5.1422    0.8512   -1.7077 C   0  0  0  0  0  0  0  0  0  0  0  0
    3.8645    1.3849   -1.9028 C   0  0  0  0  0  0  0  0  0  0  0  0
    2.5989    1.1770   -1.4254 N   0  0  0  0  0  0  0  0  0  0  0  0
    1.7647    2.1094   -2.0095 C   0  0  0  0  0  0  0  0  0  0  0  0
    0.3687    2.3481   -1.9185 C   0  0  0  0  0  0  0  0  0  0  0  0
   -0.6729    1.6429   -1.3384 N   0  0  0  0  0  0  0  0  0  0  0  0
   -1.8140    2.3883   -1.4975 C   0  0  0  0  0  0  0  0  0  0  0  0
   -3.1673    2.2718   -1.1749 C   0  0  0  0  0  0  0  0  0  0  0  0
   -4.1763    1.1248   -0.3797 S   0  0  0  0  0  0  0  0  0  0  0  0
   -0.8240    0.2162   -1.1392 C   0  0  0  0  0  0  0  0  0  0  0  0
   -0.9353   -0.5092   -2.4787 C   0  0  0  0  0  0  0  0  0  0  0  0
    2.4032    0.3363   -0.2657 C   0  0  0  0  0  0  0  0  0  0  0  0
    2.3623   -1.1481   -0.6264 C   0  0  0  0  0  0  0  0  0  0  0  0
    8.6159   -0.7144   -1.1014 C   0  0  0  0  0  0  0  0  0  0  0  0
    8.8124   -1.7827   -0.2749 C   0  0  0  0  0  0  0  0  0  0  0  0
   10.4338   -2.4288   -0.0265 S   0  0  0  0  0  0  0  0  0  0  0  0
    9.8218   -3.6577    1.0485 C   0  0  0  0  0  0  0  0  0  0  0  0
   10.6482   -4.5333    1.7052 C   0  0  0  0  0  0  0  0  0  0  0  0
   12.0369   -4.4939    1.4710 C   0  0  0  0  0  0  0  0  0  0  0  0
   13.1665   -4.4683    1.2731 N   0  0  0  0  0  0  0  0  0  0  0  0
   10.2247   -5.4771    2.6574 C   0  0  0  0  0  0  0  0  0  0  0  0
    9.9562   -6.2519    3.4615 N   0  0  0  0  0  0  0  0  0  0  0  0
    8.4670   -3.5849    1.1572 N   0  0  0  0  0  0  0  0  0  0  0  0
    7.6919   -4.5483    1.8694 C   0  0  0  0  0  0  0  0  0  0  0  0
    7.5926   -5.8405    1.3741 C   0  0  0  0  0  0  0  0  0  0  0  0
    6.8332   -6.7696    2.0601 C   0  0  0  0  0  0  0  0  0  0  0  0
    6.1721   -6.4051    3.2209 C   0  0  0  0  0  0  0  0  0  0  0  0
    6.2597   -5.1077    3.6951 C   0  0  0  0  0  0  0  0  0  0  0  0
    7.0201   -4.1698    3.0200 C   0  0  0  0  0  0  0  0  0  0  0  0
    7.8416   -2.5534    0.4711 C   0  0  0  0  0  0  0  0  0  0  0  0
    6.6374   -2.3801    0.5139 O   0  0  0  0  0  0  0  0  0  0  0  0
   -7.5845    2.6670   -0.4374 H   0  0  0  0  0  0  0  0  0  0  0  0
   -6.3690   -2.8246    2.3398 H   0  0  0  0  0  0  0  0  0  0  0  0
   -7.2811   -4.7133    3.6967 H   0  0  0  0  0  0  0  0  0  0  0  0
  -11.7717   -2.6179    3.6129 H   0  0  0  0  0  0  0  0  0  0  0  0
  -10.9094   -0.7641    2.2903 H   0  0  0  0  0  0  0  0  0  0  0  0
   -5.6303    5.3553   -1.8557 H   0  0  0  0  0  0  0  0  0  0  0  0
   -6.9465    4.6068   -0.9413 H   0  0  0  0  0  0  0  0  0  0  0  0
   -6.1613    3.9332   -3.8192 H   0  0  0  0  0  0  0  0  0  0  0  0
   -7.5794    4.8574   -3.3101 H   0  0  0  0  0  0  0  0  0  0  0  0
   -7.4596    3.1434   -2.9167 H   0  0  0  0  0  0  0  0  0  0  0  0
    9.2823    0.9054   -3.3290 H   0  0  0  0  0  0  0  0  0  0  0  0
    8.2088    2.1835   -3.9111 H   0  0  0  0  0  0  0  0  0  0  0  0
    9.6259    2.2061   -1.1989 H   0  0  0  0  0  0  0  0  0  0  0  0
    8.5631    3.4701   -1.8208 H   0  0  0  0  0  0  0  0  0  0  0  0
   10.1012    3.1403   -2.6213 H   0  0  0  0  0  0  0  0  0  0  0  0
   -1.7443    0.0750   -0.5667 H   0  0  0  0  0  0  0  0  0  0  0  0
   -0.0025   -0.1922   -0.5606 H   0  0  0  0  0  0  0  0  0  0  0  0
   -1.0740   -1.5736   -2.3113 H   0  0  0  0  0  0  0  0  0  0  0  0
   -0.0359   -0.3580   -3.0731 H   0  0  0  0  0  0  0  0  0  0  0  0
   -1.7867   -0.1339   -3.0421 H   0  0  0  0  0  0  0  0  0  0  0  0
    1.5034    0.6641    0.2569 H   0  0  0  0  0  0  0  0  0  0  0  0
    3.2517    0.5038    0.4068 H   0  0  0  0  0  0  0  0  0  0  0  0
    3.3480   -1.4806   -0.9400 H   0  0  0  0  0  0  0  0  0  0  0  0
    1.6628   -1.3431   -1.4349 H   0  0  0  0  0  0  0  0  0  0  0  0
    2.0717   -1.7304    0.2435 H   0  0  0  0  0  0  0  0  0  0  0  0
    9.5118   -0.3272   -1.5714 H   0  0  0  0  0  0  0  0  0  0  0  0
    8.1116   -6.1136    0.4667 H   0  0  0  0  0  0  0  0  0  0  0  0
    6.7609   -7.7793    1.6868 H   0  0  0  0  0  0  0  0  0  0  0  0
    5.5859   -7.1357    3.7569 H   0  0  0  0  0  0  0  0  0  0  0  0
    5.7403   -4.8230    4.5971 H   0  0  0  0  0  0  0  0  0  0  0  0
    7.0973   -3.1549    3.3788 H   0  0  0  0  0  0  0  0  0  0  0  0
  1  2  2  0  0  0  0
  2  3  1  0  0  0  0
  3  4  2  0  0  0  0
  3  5  1  0  0  0  0
  5  6  2  0  0  0  0
  6  7  1  0  0  0  0
  7  8  2  0  0  0  0
  8  9  1  0  0  0  0
  9 10  1  0  0  0  0
  9 11  2  0  0  0  0
 11 12  1  0  0  0  0
 11 13  1  0  0  0  0
 13 14  2  0  0  0  0
 14 15  1  0  0  0  0
 15 16  2  0  0  0  0
 16 17  1  0  0  0  0
 17 18  2  0  0  0  0
 18 19  1  0  0  0  0
 19 20  3  0  0  0  0
 18 21  1  0  0  0  0
 21 22  3  0  0  0  0
  1 23  1  0  0  0  0
 23 24  2  0  0  0  0
 24 25  1  0  0  0  0
 25 26  1  0  0  0  0
 24 27  1  0  0  0  0
 27 28  1  0  0  0  0
 28 29  1  0  0  0  0
 29 30  1  0  0  0  0
 30 31  1  0  0  0  0
 31 32  1  0  0  0  0
 32 33  2  0  0  0  0
 33 34  1  0  0  0  0
 34 35  1  0  0  0  0
 32 36  1  0  0  0  0
 36 37  1  0  0  0  0
 37 38  1  0  0  0  0
 38 39  1  0  0  0  0
 39 40  1  0  0  0  0
 40 41  1  0  0  0  0
 41 42  1  0  0  0  0
 40 43  2  0  0  0  0
 43 44  1  0  0  0  0
 44 45  1  0  0  0  0
 45 46  1  0  0  0  0
 46 47  1  0  0  0  0
 47 48  1  0  0  0  0
 48 49  1  0  0  0  0
 49 50  1  0  0  0  0
 50 51  1  0  0  0  0
 51 52  1  0  0  0  0
 52 53  1  0  0  0  0
 50 54  1  0  0  0  0
 54 55  1  0  0  0  0
 47 56  1  0  0  0  0
 56 57  1  0  0  0  0
 43 58  1  0  0  0  0
 58 59  2  0  0  0  0
 59 60  1  0  0  0  0
 60 61  1  0  0  0  0
 61 62  2  0  0  0  0
 62 63  1  0  0  0  0
 63 64  3  0  0  0  0
 62 65  1  0  0  0  0
 65 66  3  0  0  0  0
 61 67  1  0  0  0  0
 67 68  1  0  0  0  0
 68 69  2  0  0  0  0
 69 70  1  0  0  0  0
 70 71  2  0  0  0  0
 71 72  1  0  0  0  0
 72 73  2  0  0  0  0
 67 74  1  0  0  0  0
 74 75  2  0  0  0  0
 17  2  1  0  0  0  0
 53 23  1  0  0  0  0
 74 59  1  0  0  0  0
 16  5  1  0  0  0  0
 52 27  2  0  0  0  0
 73 68  1  0  0  0  0
 14  7  1  0  0  0  0
 51 29  2  0  0  0  0
 49 30  2  0  0  0  0
 35 31  2  0  0  0  0
 48 36  2  0  0  0  0
 46 37  2  0  0  0  0
 45 39  2  0  0  0  0
  1 76  1  0  0  0  0
  6 77  1  0  0  0  0
  8 78  1  0  0  0  0
 13 79  1  0  0  0  0
 15 80  1  0  0  0  0
 25 81  1  0  0  0  0
 25 82  1  0  0  0  0
 26 83  1  0  0  0  0
 26 84  1  0  0  0  0
 26 85  1  0  0  0  0
 41 86  1  0  0  0  0
 41 87  1  0  0  0  0
 42 88  1  0  0  0  0
 42 89  1  0  0  0  0
 42 90  1  0  0  0  0
 54 91  1  0  0  0  0
 54 92  1  0  0  0  0
 55 93  1  0  0  0  0
 55 94  1  0  0  0  0
 55 95  1  0  0  0  0
 56 96  1  0  0  0  0
 56 97  1  0  0  0  0
 57 98  1  0  0  0  0
 57 99  1  0  0  0  0
 57100  1  0  0  0  0
 58101  1  0  0  0  0
 69102  1  0  0  0  0
 70103  1  0  0  0  0
 71104  1  0  0  0  0
 72105  1  0  0  0  0
 73106  1  0  0  0  0
M  END
