99

C         -2.29860        4.14480        4.67700
C         -1.17660        4.87380        5.00820
C          0.16260        4.69230        4.45240
O          0.51840        3.89570        3.59860
C          1.02860        5.67330        5.13150
C          2.36610        5.88720        4.97020
C          2.99890        6.88280        5.74790
C          4.37770        7.14160        5.62850
C          4.96520        8.10720        6.39700
F          6.27890        8.35080        6.28310
C          4.20120        8.85450        7.31460
F          4.80420        9.79470        8.05550
C          2.86040        8.62680        7.45170
C          2.22470        7.63760        6.67530
C          0.83840        7.39300        6.81540
C          0.24590        6.42120        6.05410
C         -1.13440        5.94130        5.98450
C         -2.17460        6.43610        6.73270
C         -2.04340        7.47840        7.67300
N         -2.00720        8.32010        8.45350
C         -3.51200        5.99410        6.68410
N         -4.62130        5.69340        6.70420
C         -2.46990        3.07880        3.79490
C         -3.70790        2.43250        3.60260
C         -5.00390        2.82350        4.23300
C         -5.66830        3.95720        3.44680
C         -3.59770        1.38890        2.69760
S         -4.76070        0.22050        2.09530
C         -3.49690       -0.51400        1.17100
C         -3.29680       -1.63350        0.35430
C         -4.14030       -2.72350        0.03910
C         -3.57920       -3.86660       -0.62390
N         -4.45900       -4.84310       -0.77670
S         -5.87330       -4.36480       -0.15110
N         -5.41590       -2.89310        0.34620
C         -2.23730       -3.81370       -1.06410
C         -1.45040       -4.72890       -1.77970
S         -1.54650       -6.34110       -2.40080
C          0.07990       -6.16270       -3.03470
C          0.91540       -7.02360       -3.73920
C          0.53740       -8.42860       -4.07830
C          1.07810       -9.40310       -3.02840
C          2.14990       -6.42240       -4.01570
S          2.24660       -4.77230       -3.39960
C          0.64790       -4.90590       -2.77440
C         -0.23200       -4.09630       -2.04950
N         -0.22460       -2.83360       -1.51550
C         -1.43770       -2.64940       -0.87530
C         -1.92520       -1.61470       -0.03830
N         -1.31090       -0.53960        0.56680
C         -2.25620        0.12780        1.29940
C         -2.30030        1.20880        2.18070
S         -1.18660        2.35620        2.81980
C          0.09210       -0.24570        0.75720
C          0.51620        1.02810        0.02520
C          0.65090       -1.84680       -2.11310
C          0.24200       -1.55760       -3.55730
C          3.20480       -7.05560       -4.68970
C          4.46300       -6.60940       -4.97800
C          5.43520       -7.47420       -5.67570
O          5.24860       -8.60410       -6.07370
C          6.68110       -6.67450       -5.77860
C          7.90320       -7.00830       -6.32930
C          8.92070       -6.06240       -6.28900
C          8.71630       -4.81680       -5.71260
C          7.48820       -4.47780       -5.15840
C          6.47540       -5.41690       -5.19640
C          5.08740       -5.32400       -4.68300
O          4.58690       -4.35710       -4.13400
H         -3.20880        4.42760        5.18750
H          2.93420        5.30350        4.26190
H          4.97640        6.57760        4.93050
H          2.29020        9.20820        8.15930
H          0.28340        7.98260        7.52660
H         -4.86100        3.13700        5.26800
H         -5.66200        1.95230        4.22680
H         -5.03770        4.84300        3.44140
H         -5.84710        3.65010        2.41890
H         -6.61850        4.21440        3.90560
H         -0.55220       -8.49460       -4.10010
H          0.91750       -8.70180       -5.06380
H          0.77370      -10.41780       -3.27080
H          0.68920       -9.15000       -2.04480
H          2.16430       -9.36490       -2.99130
H          0.25530       -0.09620        1.83020
H          0.67970       -1.11200        0.45140
H          0.18660        1.02450       -1.01170
H          0.08590        1.89880        0.51180
H          1.59780        1.12410        0.05210
H          0.61360       -0.92320       -1.54900
H          1.66910       -2.24610       -2.09180
H          0.31130       -2.45480       -4.16620
H         -0.78100       -1.18800       -3.59450
H          0.90300       -0.80530       -3.97800
H          3.00300       -8.06750       -5.02850
H          8.05410       -7.97930       -6.77540
H          9.88550       -6.29950       -6.71250
H          9.52460       -4.10070       -5.69520
H          7.32080       -3.51140       -4.70790
