98

C          1.85220        0.88120        6.52470
C          2.88700        0.00250        6.37160
C          3.37250       -0.78420        7.53100
O          3.11870       -0.59550        8.69950
C          4.17400       -1.88060        6.94220
C          4.74650       -2.95450        7.55940
C          5.44450       -3.90430        6.77890
C          6.04950       -5.03220        7.36690
C          6.71160       -5.94180        6.59080
F          7.28420       -7.01620        7.15250
C          6.79860       -5.76360        5.19590
F          7.45230       -6.67250        4.45900
C          6.22350       -4.67850        4.59630
C          5.53460       -3.72190        5.36840
C          4.94180       -2.59260        4.75780
C          4.27470       -1.68530        5.53480
C          3.60510       -0.43250        5.19750
C          3.84830        0.32370        4.07840
C          3.43040        1.66530        3.96540
N          3.14830        2.77460        3.87470
C          4.60360       -0.12160        2.97790
N          5.18350       -0.45480        2.04430
C          0.95610        1.36360        5.55280
C          0.11780        2.46910        5.67600
C          0.15310        3.43130        6.81390
C          1.34220        4.38470        6.66890
C         -0.68600        2.62820        4.54580
S         -1.89490        3.81580        4.11040
C         -2.14510        2.98050        2.61880
C         -2.93950        3.07480        1.46580
C         -4.00590        3.93750        1.12730
C         -4.70150        3.72970       -0.11100
N         -5.71020        4.57160       -0.27060
S         -5.77710        5.54490        1.02060
N         -4.52140        4.92980        1.83550
C         -4.21270        2.75970       -1.01510
C         -4.54810        2.48280       -2.34790
S         -5.69210        2.99560       -3.53880
C         -4.88410        1.98090       -4.71320
C         -5.12000        1.74440       -6.06960
C         -6.20960        2.41090       -6.84370
C         -5.68450        3.66060       -7.55500
C         -4.17950        0.86460       -6.59880
S         -3.01780        0.32280       -5.39180
C         -3.78810        1.28390       -4.18420
C         -3.60650        1.56260       -2.82560
N         -2.72620        1.23710       -1.82890
C         -3.08810        1.94480       -0.69880
C         -2.54300        2.00920        0.60790
N         -1.57770        1.25400        1.25170
C         -1.33350        1.84940        2.46320
C         -0.50550        1.64120        3.56540
S          0.69470        0.49910        4.03530
C         -1.27850       -0.15430        1.10540
C         -2.15470       -1.00050        2.02920
C         -1.48580        0.56370       -2.14740
C         -1.68450       -0.93490       -2.37530
C         -4.09830        0.42660       -7.93300
C         -3.17720       -0.40290       -8.48770
S         -1.82500       -1.17620       -7.69800
C         -1.32400       -1.94560       -9.20450
S         -0.03260       -2.93330       -9.32620
N         -2.16230       -1.60500      -10.21230
C         -1.96170       -2.06470      -11.57300
C         -0.94330       -1.19730      -12.30240
C         -3.21380       -0.75590       -9.90440
O         -4.03300       -0.38140      -10.71420
H          1.64140        1.17060        7.55000
H          4.66810       -3.08020        8.62850
H          5.99180       -5.18340        8.43350
H          6.30280       -4.55490        3.52750
H          5.01980       -2.47760        3.68820
H          0.23270        2.89220        7.76050
H         -0.77610        4.00450        6.81560
H          1.35380        5.09410        7.49200
H          1.27250        4.93420        5.73340
H          2.27770        3.82980        6.66750
H         -7.00000        2.69900       -6.14810
H         -6.62920        1.72050       -7.57680
H         -4.89830        3.39920       -8.25930
H         -6.49110        4.14560       -8.09810
H         -5.28130        4.36480       -6.83120
H         -1.44890       -0.46580        0.08250
H         -0.22320       -0.30080        1.35560
H         -1.92710       -2.05290        1.88430
H         -3.20700       -0.83520        1.80620
H         -1.97740       -0.75010        3.07180
H         -0.76030        0.76630       -1.35870
H         -1.09750        1.00470       -3.07240
H         -2.25070       -1.10310       -3.28710
H         -2.22750       -1.40040       -1.55550
H         -0.71850       -1.42050       -2.48000
H         -4.85300        0.79320       -8.61810
H         -1.62180       -3.10240      -11.53430
H         -2.93580       -2.00530      -12.06440
H          0.02120       -1.24550      -11.80230
H         -0.82560       -1.55380      -13.32130
H         -1.27980       -0.16340      -12.32930
