
  xtb     02012223243D
 energy: -196.600945564075 gnorm: 0.000974540292 xtb: 6.4.1 (unknown)
103115  0     0  0            999 V2000
   -4.1162   -2.9833    4.9342 C   0  0  0  0  0  0  0  0  0  0  0  0
   -4.0260   -4.3124    4.5880 C   0  0  0  0  0  0  0  0  0  0  0  0
   -3.2267   -4.8657    3.4950 C   0  0  0  0  0  0  0  0  0  0  0  0
   -2.5454   -4.2575    2.6859 O   0  0  0  0  0  0  0  0  0  0  0  0
   -3.3962   -6.3288    3.5600 C   0  0  0  0  0  0  0  0  0  0  0  0
   -2.8340   -7.2909    2.7726 C   0  0  0  0  0  0  0  0  0  0  0  0
   -3.1292   -8.6480    3.0328 C   0  0  0  0  0  0  0  0  0  0  0  0
   -2.5702   -9.6827    2.2584 C   0  0  0  0  0  0  0  0  0  0  0  0
   -2.8680  -10.9875    2.5361 C   0  0  0  0  0  0  0  0  0  0  0  0
   -2.3320  -11.9711    1.7995 F   0  0  0  0  0  0  0  0  0  0  0  0
   -3.7373  -11.3136    3.5957 C   0  0  0  0  0  0  0  0  0  0  0  0
   -4.0113  -12.6013    3.8450 F   0  0  0  0  0  0  0  0  0  0  0  0
   -4.2964  -10.3310    4.3640 C   0  0  0  0  0  0  0  0  0  0  0  0
   -4.0077   -8.9762    4.1053 C   0  0  0  0  0  0  0  0  0  0  0  0
   -4.5772   -7.9546    4.9004 C   0  0  0  0  0  0  0  0  0  0  0  0
   -4.2746   -6.6460    4.6331 C   0  0  0  0  0  0  0  0  0  0  0  0
   -4.6902   -5.3999    5.2758 C   0  0  0  0  0  0  0  0  0  0  0  0
   -5.5613   -5.3149    6.3334 C   0  0  0  0  0  0  0  0  0  0  0  0
   -5.9837   -4.1272    6.9645 C   0  0  0  0  0  0  0  0  0  0  0  0
   -6.3844   -3.2076    7.5257 N   0  0  0  0  0  0  0  0  0  0  0  0
   -6.1716   -6.4292    6.9459 C   0  0  0  0  0  0  0  0  0  0  0  0
   -6.7043   -7.2895    7.4887 N   0  0  0  0  0  0  0  0  0  0  0  0
   -3.5256   -1.8478    4.3774 C   0  0  0  0  0  0  0  0  0  0  0  0
   -3.7273   -0.5528    4.8930 C   0  0  0  0  0  0  0  0  0  0  0  0
   -4.6243   -0.1972    6.0328 C   0  0  0  0  0  0  0  0  0  0  0  0
   -6.0786   -0.0820    5.5667 C   0  0  0  0  0  0  0  0  0  0  0  0
   -3.0203    0.3947    4.1682 C   0  0  0  0  0  0  0  0  0  0  0  0
   -2.8700    2.1350    4.3331 S   0  0  0  0  0  0  0  0  0  0  0  0
   -1.8011    2.1374    2.9746 C   0  0  0  0  0  0  0  0  0  0  0  0
   -1.0816    3.0517    2.1945 C   0  0  0  0  0  0  0  0  0  0  0  0
   -1.0481    4.4639    2.2181 C   0  0  0  0  0  0  0  0  0  0  0  0
   -0.3208    5.1561    1.1952 C   0  0  0  0  0  0  0  0  0  0  0  0
   -0.4229    6.4713    1.3035 N   0  0  0  0  0  0  0  0  0  0  0  0
   -1.3515    6.8098    2.5853 S   0  0  0  0  0  0  0  0  0  0  0  0
   -1.6594    5.2908    3.0514 N   0  0  0  0  0  0  0  0  0  0  0  0
    0.4407    4.4035    0.2736 C   0  0  0  0  0  0  0  0  0  0  0  0
    1.3409    4.8085   -0.7203 C   0  0  0  0  0  0  0  0  0  0  0  0
    1.9187    6.2661   -1.4449 S   0  0  0  0  0  0  0  0  0  0  0  0
    3.0062    5.3142   -2.4296 C   0  0  0  0  0  0  0  0  0  0  0  0
    3.9382    5.6654   -3.4083 C   0  0  0  0  0  0  0  0  0  0  0  0
    4.2111    7.0770   -3.8097 C   0  0  0  0  0  0  0  0  0  0  0  0
    5.2757    7.6956   -2.8993 C   0  0  0  0  0  0  0  0  0  0  0  0
    4.5664    4.5426   -3.9391 C   0  0  0  0  0  0  0  0  0  0  0  0
    4.0112    3.0523   -3.1738 S   0  0  0  0  0  0  0  0  0  0  0  0
    2.9119    3.9359   -2.1853 C   0  0  0  0  0  0  0  0  0  0  0  0
    1.9465    3.6473   -1.2195 C   0  0  0  0  0  0  0  0  0  0  0  0
    1.4331    2.5464   -0.5898 N   0  0  0  0  0  0  0  0  0  0  0  0
    0.4833    2.9782    0.3159 C   0  0  0  0  0  0  0  0  0  0  0  0
   -0.3883    2.2948    1.2036 C   0  0  0  0  0  0  0  0  0  0  0  0
   -0.7165    0.9581    1.3618 N   0  0  0  0  0  0  0  0  0  0  0  0
   -1.5738    0.8679    2.4289 C   0  0  0  0  0  0  0  0  0  0  0  0
   -2.2723   -0.1376    3.1016 C   0  0  0  0  0  0  0  0  0  0  0  0
   -2.4444   -1.8472    2.9810 S   0  0  0  0  0  0  0  0  0  0  0  0
   -0.7494   -0.1025    0.3753 C   0  0  0  0  0  0  0  0  0  0  0  0
   -1.7861    0.1953   -0.7056 C   0  0  0  0  0  0  0  0  0  0  0  0
    2.1005    1.2716   -0.7270 C   0  0  0  0  0  0  0  0  0  0  0  0
    1.7284    0.5631   -2.0285 C   0  0  0  0  0  0  0  0  0  0  0  0
    5.6032    4.5347   -4.8931 C   0  0  0  0  0  0  0  0  0  0  0  0
    6.0914    3.4936   -5.6282 C   0  0  0  0  0  0  0  0  0  0  0  0
    7.4697    3.5650   -6.1773 C   0  0  0  0  0  0  0  0  0  0  0  0
    8.1730    4.5468   -6.2519 O   0  0  0  0  0  0  0  0  0  0  0  0
    7.8074    2.1733   -6.5481 C   0  0  0  0  0  0  0  0  0  0  0  0
    9.0085    1.6617   -7.0017 C   0  0  0  0  0  0  0  0  0  0  0  0
    9.0936    0.3026   -7.2610 C   0  0  0  0  0  0  0  0  0  0  0  0
    7.9783   -0.4970   -7.0582 C   0  0  0  0  0  0  0  0  0  0  0  0
    8.0843   -1.8133   -7.3011 F   0  0  0  0  0  0  0  0  0  0  0  0
    6.7576   -0.0067   -6.6142 C   0  0  0  0  0  0  0  0  0  0  0  0
    6.6809    1.3510   -6.3585 C   0  0  0  0  0  0  0  0  0  0  0  0
    5.5585    2.1866   -5.9323 C   0  0  0  0  0  0  0  0  0  0  0  0
    4.2336    1.8681   -6.0831 C   0  0  0  0  0  0  0  0  0  0  0  0
    3.7619    0.5870   -6.4281 C   0  0  0  0  0  0  0  0  0  0  0  0
    3.3205   -0.4451   -6.6687 N   0  0  0  0  0  0  0  0  0  0  0  0
    3.1998    2.8232   -5.9858 C   0  0  0  0  0  0  0  0  0  0  0  0
    2.3405    3.5844   -5.9692 N   0  0  0  0  0  0  0  0  0  0  0  0
   -4.7402   -2.7630    5.7894 H   0  0  0  0  0  0  0  0  0  0  0  0
   -2.1706   -7.0216    1.9648 H   0  0  0  0  0  0  0  0  0  0  0  0
   -1.9028   -9.4501    1.4434 H   0  0  0  0  0  0  0  0  0  0  0  0
   -4.9601  -10.5977    5.1716 H   0  0  0  0  0  0  0  0  0  0  0  0
   -5.2363   -8.2376    5.7047 H   0  0  0  0  0  0  0  0  0  0  0  0
   -4.3012    0.7660    6.4327 H   0  0  0  0  0  0  0  0  0  0  0  0
   -4.5588   -0.9380    6.8309 H   0  0  0  0  0  0  0  0  0  0  0  0
   -6.1688    0.6754    4.7916 H   0  0  0  0  0  0  0  0  0  0  0  0
   -6.4333   -1.0304    5.1705 H   0  0  0  0  0  0  0  0  0  0  0  0
   -6.7108    0.1969    6.4045 H   0  0  0  0  0  0  0  0  0  0  0  0
    4.5380    7.1194   -4.8485 H   0  0  0  0  0  0  0  0  0  0  0  0
    3.2852    7.6477   -3.7160 H   0  0  0  0  0  0  0  0  0  0  0  0
    4.9422    7.6817   -1.8643 H   0  0  0  0  0  0  0  0  0  0  0  0
    5.4587    8.7262   -3.1905 H   0  0  0  0  0  0  0  0  0  0  0  0
    6.2104    7.1438   -2.9695 H   0  0  0  0  0  0  0  0  0  0  0  0
    0.2275   -0.2589   -0.0709 H   0  0  0  0  0  0  0  0  0  0  0  0
   -1.0243   -1.0164    0.9075 H   0  0  0  0  0  0  0  0  0  0  0  0
   -1.8101   -0.6154   -1.4284 H   0  0  0  0  0  0  0  0  0  0  0  0
   -1.5489    1.1236   -1.2220 H   0  0  0  0  0  0  0  0  0  0  0  0
   -2.7746    0.2927   -0.2628 H   0  0  0  0  0  0  0  0  0  0  0  0
    1.8869    0.6640    0.1531 H   0  0  0  0  0  0  0  0  0  0  0  0
    3.1790    1.4674   -0.7341 H   0  0  0  0  0  0  0  0  0  0  0  0
    2.2144   -0.4076   -2.0713 H   0  0  0  0  0  0  0  0  0  0  0  0
    2.0629    1.1492   -2.8805 H   0  0  0  0  0  0  0  0  0  0  0  0
    0.6550    0.4252   -2.1182 H   0  0  0  0  0  0  0  0  0  0  0  0
    6.1586    5.4616   -4.9950 H   0  0  0  0  0  0  0  0  0  0  0  0
    9.8549    2.3142   -7.1480 H   0  0  0  0  0  0  0  0  0  0  0  0
   10.0075   -0.1469   -7.6156 H   0  0  0  0  0  0  0  0  0  0  0  0
    5.9270   -0.6791   -6.4746 H   0  0  0  0  0  0  0  0  0  0  0  0
  1  2  2  0  0  0  0
  2  3  1  0  0  0  0
  3  4  2  0  0  0  0
  3  5  1  0  0  0  0
  5  6  2  0  0  0  0
  6  7  1  0  0  0  0
  7  8  2  0  0  0  0
  8  9  1  0  0  0  0
  9 10  1  0  0  0  0
  9 11  2  0  0  0  0
 11 12  1  0  0  0  0
 11 13  1  0  0  0  0
 13 14  2  0  0  0  0
 14 15  1  0  0  0  0
 15 16  2  0  0  0  0
 16 17  1  0  0  0  0
 17 18  2  0  0  0  0
 18 19  1  0  0  0  0
 19 20  3  0  0  0  0
 18 21  1  0  0  0  0
 21 22  3  0  0  0  0
  1 23  1  0  0  0  0
 23 24  2  0  0  0  0
 24 25  1  0  0  0  0
 25 26  1  0  0  0  0
 24 27  1  0  0  0  0
 27 28  1  0  0  0  0
 28 29  1  0  0  0  0
 29 30  1  0  0  0  0
 30 31  1  0  0  0  0
 31 32  1  0  0  0  0
 32 33  2  0  0  0  0
 33 34  1  0  0  0  0
 34 35  1  0  0  0  0
 32 36  1  0  0  0  0
 36 37  1  0  0  0  0
 37 38  1  0  0  0  0
 38 39  1  0  0  0  0
 39 40  1  0  0  0  0
 40 41  1  0  0  0  0
 41 42  1  0  0  0  0
 40 43  2  0  0  0  0
 43 44  1  0  0  0  0
 44 45  1  0  0  0  0
 45 46  1  0  0  0  0
 46 47  1  0  0  0  0
 47 48  1  0  0  0  0
 48 49  1  0  0  0  0
 49 50  1  0  0  0  0
 50 51  1  0  0  0  0
 51 52  1  0  0  0  0
 52 53  1  0  0  0  0
 50 54  1  0  0  0  0
 54 55  1  0  0  0  0
 47 56  1  0  0  0  0
 56 57  1  0  0  0  0
 43 58  1  0  0  0  0
 58 59  2  0  0  0  0
 59 60  1  0  0  0  0
 60 61  2  0  0  0  0
 60 62  1  0  0  0  0
 62 63  2  0  0  0  0
 63 64  1  0  0  0  0
 64 65  2  0  0  0  0
 65 66  1  0  0  0  0
 65 67  1  0  0  0  0
 67 68  2  0  0  0  0
 68 69  1  0  0  0  0
 69 70  2  0  0  0  0
 70 71  1  0  0  0  0
 71 72  3  0  0  0  0
 70 73  1  0  0  0  0
 73 74  3  0  0  0  0
 17  2  1  0  0  0  0
 53 23  1  0  0  0  0
 69 59  1  0  0  0  0
 16  5  1  0  0  0  0
 52 27  2  0  0  0  0
 68 62  1  0  0  0  0
 14  7  1  0  0  0  0
 51 29  2  0  0  0  0
 49 30  2  0  0  0  0
 35 31  2  0  0  0  0
 48 36  2  0  0  0  0
 46 37  2  0  0  0  0
 45 39  2  0  0  0  0
  1 75  1  0  0  0  0
  6 76  1  0  0  0  0
  8 77  1  0  0  0  0
 13 78  1  0  0  0  0
 15 79  1  0  0  0  0
 25 80  1  0  0  0  0
 25 81  1  0  0  0  0
 26 82  1  0  0  0  0
 26 83  1  0  0  0  0
 26 84  1  0  0  0  0
 41 85  1  0  0  0  0
 41 86  1  0  0  0  0
 42 87  1  0  0  0  0
 42 88  1  0  0  0  0
 42 89  1  0  0  0  0
 54 90  1  0  0  0  0
 54 91  1  0  0  0  0
 55 92  1  0  0  0  0
 55 93  1  0  0  0  0
 55 94  1  0  0  0  0
 56 95  1  0  0  0  0
 56 96  1  0  0  0  0
 57 97  1  0  0  0  0
 57 98  1  0  0  0  0
 57 99  1  0  0  0  0
 58100  1  0  0  0  0
 63101  1  0  0  0  0
 64102  1  0  0  0  0
 67103  1  0  0  0  0
M  END
