109

C         -3.03410       -1.48350        7.09380
C         -3.55870       -0.25380        7.42150
C         -3.32890        0.99940        6.70340
O         -2.75290        1.15600        5.63920
C         -3.92350        2.06320        7.53470
C         -3.91880        3.41230        7.33180
C         -4.52890        4.25190        8.29100
C         -4.54150        5.65180        8.13960
C         -5.12990        6.44110        9.08790
F         -5.13740        7.77400        8.94320
C         -5.73180        5.86670       10.22470
F         -6.30030        6.66520       11.13840
C         -5.73710        4.51100       10.39830
C         -5.13720        3.66990        9.44010
C         -5.13190        2.26670        9.61720
C         -4.53120        1.47250        8.67760
C         -4.35120        0.02370        8.60050
C         -4.87750       -0.88300        9.48670
C         -4.75310       -2.28450        9.40080
N         -4.70570       -3.43290        9.39520
C         -5.64940       -0.52880       10.61230
N         -6.28170       -0.30930       11.54540
C         -2.22920       -1.88150        6.02580
C         -1.69670       -3.17990        5.91480
C         -1.95700       -4.31710        6.84710
C         -3.27900       -5.00910        6.50280
C         -0.91070       -3.30800        4.78030
S          0.05000       -4.64040        4.16610
C          0.55040       -3.62760        2.85880
C          1.41030       -3.67820        1.75690
C          2.34040       -4.66610        1.36290
C          3.23040       -4.37980        0.27800
N          4.09390       -5.35850        0.05920
S          3.80680       -6.54280        1.12550
N          2.57050       -5.84960        1.90840
C          3.05590       -3.17830       -0.44440
C          3.67490       -2.72080       -1.61320
S          4.94900       -3.19110       -2.68260
C          4.56290       -1.81160       -3.69100
C          5.10600       -1.35150       -4.88580
C          6.23860       -2.03900       -5.57710
C          5.72490       -2.99500       -6.65670
C          4.41780       -0.22710       -5.35830
S          3.11040        0.25650       -4.27960
C          3.49500       -1.03840       -3.20800
C          3.00480       -1.55520       -2.00280
N          2.03140       -1.25080       -1.09010
C          2.04570       -2.22820       -0.10970
C          1.30170       -2.42330        1.08560
N          0.42750       -1.62560        1.80180
C         -0.01510       -2.34570        2.87960
C         -0.84060       -2.14540        3.98980
S         -1.73730       -0.84560        4.68160
C          0.22420       -0.19420        1.76570
C          1.52730        0.56310        2.00650
C          1.01550       -0.27730       -1.42470
C         -0.33450       -0.94130       -1.68180
C          4.73110        0.42490       -6.56090
C          4.09870        1.44630       -7.20820
S          4.70450        2.03320       -8.75360
C          3.36430        3.14190       -8.90490
C          3.26540        3.97190       -9.99260
C          4.23230        3.88350      -11.01550
N          5.01380        3.81120      -11.85200
C          2.29990        4.97030      -10.19680
N          1.56460        5.82630      -10.41100
N          2.52910        3.05440       -7.83490
C          1.23560        3.70430       -7.76120
C          0.25950        3.12480       -8.75780
C         -0.67800        3.94240       -9.37340
C         -1.57580        3.41200      -10.28230
C         -1.54400        2.06180      -10.58670
C         -0.61780        1.24000       -9.96870
C          0.27690        1.76820       -9.05520
C          2.88720        2.14580       -6.84900
O          2.22700        1.99760       -5.83490
H         -3.24550       -2.28380        7.79010
H         -3.45070        3.83470        6.45570
H         -4.08440        6.10760        7.27530
H         -6.20240        4.08690       11.27440
H         -5.59770        1.85870       10.49940
H         -1.98480       -3.97890        7.88380
H         -1.14090       -5.03500        6.74330
H         -4.11510       -4.32380        6.61750
H         -3.26070       -5.37070        5.47730
H         -3.43580       -5.85250        7.16880
H          6.79520       -2.61030       -4.83170
H          6.91720       -1.30890       -6.02170
H          5.15920       -2.45600       -7.41330
H          5.07790       -3.74770       -6.21320
H          6.56030       -3.49660       -7.13780
H         -0.48060        0.03980        2.56710
H         -0.24550        0.10260        0.82750
H          1.92060        0.32030        2.99080
H          2.28020        0.30270        1.26600
H          1.34500        1.63320        1.96280
H          0.94630        0.48690       -0.64990
H          1.35090        0.21960       -2.33830
H         -1.07590       -0.18570       -1.92630
H         -0.25520       -1.63020       -2.51940
H         -0.67390       -1.50060       -0.81300
H          5.60770        0.03680       -7.06550
H          1.34780        4.78060       -7.91010
H          0.87880        3.52240       -6.73980
H         -0.69570        4.99820       -9.15080
H         -2.29650        4.05810      -10.75980
H         -2.23880        1.65010      -11.30310
H         -0.58960        0.18470      -10.19650
H          0.98810        1.11370       -8.56920
