
  xtb     02012222443D
 energy: -277.512861174843 gnorm: 0.000275201169 xtb: 6.4.1 (unknown)
157174  0     0  0            999 V2000
    0.3762   -2.9352    8.7197 C   0  0  0  0  0  0  0  0  0  0  0  0
    1.3432   -3.7288    9.2919 C   0  0  0  0  0  0  0  0  0  0  0  0
    2.5982   -4.1374    8.6565 C   0  0  0  0  0  0  0  0  0  0  0  0
    3.0494   -3.7646    7.5881 O   0  0  0  0  0  0  0  0  0  0  0  0
    3.2220   -5.1117    9.5727 C   0  0  0  0  0  0  0  0  0  0  0  0
    4.3740   -5.8235    9.4082 C   0  0  0  0  0  0  0  0  0  0  0  0
    4.7672   -6.7332   10.4157 C   0  0  0  0  0  0  0  0  0  0  0  0
    5.9395   -7.5033   10.2929 C   0  0  0  0  0  0  0  0  0  0  0  0
    6.2913   -8.3827   11.2785 C   0  0  0  0  0  0  0  0  0  0  0  0
    7.4065   -9.1177   11.1582 F   0  0  0  0  0  0  0  0  0  0  0  0
    5.4895   -8.5284   12.4274 C   0  0  0  0  0  0  0  0  0  0  0  0
    5.8584   -9.3993   13.3774 F   0  0  0  0  0  0  0  0  0  0  0  0
    4.3467   -7.7934   12.5757 C   0  0  0  0  0  0  0  0  0  0  0  0
    3.9553   -6.8795   11.5771 C   0  0  0  0  0  0  0  0  0  0  0  0
    2.7700   -6.1210   11.7203 C   0  0  0  0  0  0  0  0  0  0  0  0
    2.4057   -5.2485   10.7298 C   0  0  0  0  0  0  0  0  0  0  0  0
    1.2488   -4.3652   10.5878 C   0  0  0  0  0  0  0  0  0  0  0  0
    0.2766   -4.1839   11.5405 C   0  0  0  0  0  0  0  0  0  0  0  0
   -0.8322   -3.3205   11.4336 C   0  0  0  0  0  0  0  0  0  0  0  0
   -1.7594   -2.6411   11.4296 N   0  0  0  0  0  0  0  0  0  0  0  0
    0.2631   -4.8397   12.7886 C   0  0  0  0  0  0  0  0  0  0  0  0
    0.1907   -5.3394   13.8201 N   0  0  0  0  0  0  0  0  0  0  0  0
    0.3226   -2.3203    7.4657 C   0  0  0  0  0  0  0  0  0  0  0  0
    1.6010   -2.3057    6.2461 S   0  0  0  0  0  0  0  0  0  0  0  0
    0.5757   -1.4190    5.1876 C   0  0  0  0  0  0  0  0  0  0  0  0
    0.5342   -0.8916    3.9014 C   0  0  0  0  0  0  0  0  0  0  0  0
    1.5577   -0.7521    2.5102 S   0  0  0  0  0  0  0  0  0  0  0  0
    0.2504    0.0151    1.6763 C   0  0  0  0  0  0  0  0  0  0  0  0
    0.0725    0.4633    0.3323 C   0  0  0  0  0  0  0  0  0  0  0  0
    0.9538    0.4825   -0.7456 C   0  0  0  0  0  0  0  0  0  0  0  0
    0.4529    0.8910   -1.9595 C   0  0  0  0  0  0  0  0  0  0  0  0
    1.1810    1.0171   -3.2874 C   0  0  0  0  0  0  0  0  0  0  0  0
    1.7355   -0.2882   -3.8279 C   0  0  0  0  0  0  0  0  0  0  0  0
    1.3304   -1.5191   -3.3335 C   0  0  0  0  0  0  0  0  0  0  0  0
    1.8355   -2.6888   -3.8727 C   0  0  0  0  0  0  0  0  0  0  0  0
    2.7413   -2.6597   -4.9240 C   0  0  0  0  0  0  0  0  0  0  0  0
    3.3306   -3.9286   -5.4683 C   0  0  0  0  0  0  0  0  0  0  0  0
    4.6113   -4.2872   -4.7114 C   0  0  0  0  0  0  0  0  0  0  0  0
    3.1271   -1.4238   -5.4282 C   0  0  0  0  0  0  0  0  0  0  0  0
    2.6303   -0.2528   -4.8908 C   0  0  0  0  0  0  0  0  0  0  0  0
    2.2723    2.0636   -3.1324 C   0  0  0  0  0  0  0  0  0  0  0  0
    3.5160    1.6961   -2.6346 C   0  0  0  0  0  0  0  0  0  0  0  0
    4.5101    2.6407   -2.4653 C   0  0  0  0  0  0  0  0  0  0  0  0
    4.2911    3.9739   -2.7874 C   0  0  0  0  0  0  0  0  0  0  0  0
    5.3605    5.0053   -2.5724 C   0  0  0  0  0  0  0  0  0  0  0  0
    5.2407    5.6159   -1.1746 C   0  0  0  0  0  0  0  0  0  0  0  0
    3.0416    4.3377   -3.2701 C   0  0  0  0  0  0  0  0  0  0  0  0
    2.0417    3.3975   -3.4368 C   0  0  0  0  0  0  0  0  0  0  0  0
    0.0581    1.4640   -4.1844 C   0  0  0  0  0  0  0  0  0  0  0  0
   -1.1191    1.5891   -3.4640 C   0  0  0  0  0  0  0  0  0  0  0  0
   -0.9045    1.2671   -2.0893 C   0  0  0  0  0  0  0  0  0  0  0  0
   -1.7769    1.2785   -1.0039 C   0  0  0  0  0  0  0  0  0  0  0  0
   -1.2717    0.8828    0.2108 C   0  0  0  0  0  0  0  0  0  0  0  0
   -1.9876    0.8082    1.5562 C   0  0  0  0  0  0  0  0  0  0  0  0
   -2.3034    2.2389    1.9539 C   0  0  0  0  0  0  0  0  0  0  0  0
   -1.5055    2.9288    2.8565 C   0  0  0  0  0  0  0  0  0  0  0  0
   -1.7723    4.2503    3.1694 C   0  0  0  0  0  0  0  0  0  0  0  0
   -2.8374    4.9221    2.5871 C   0  0  0  0  0  0  0  0  0  0  0  0
   -3.1008    6.3678    2.8916 C   0  0  0  0  0  0  0  0  0  0  0  0
   -2.3751    7.2645    1.8862 C   0  0  0  0  0  0  0  0  0  0  0  0
   -3.6218    4.2356    1.6687 C   0  0  0  0  0  0  0  0  0  0  0  0
   -3.3578    2.9176    1.3518 C   0  0  0  0  0  0  0  0  0  0  0  0
   -3.1912   -0.1147    1.4940 C   0  0  0  0  0  0  0  0  0  0  0  0
   -3.0511   -1.3400    0.8513 C   0  0  0  0  0  0  0  0  0  0  0  0
   -4.0959   -2.2421    0.8133 C   0  0  0  0  0  0  0  0  0  0  0  0
   -5.3109   -1.9524    1.4220 C   0  0  0  0  0  0  0  0  0  0  0  0
   -6.4591   -2.9159    1.3471 C   0  0  0  0  0  0  0  0  0  0  0  0
   -7.3023   -2.6461    0.0993 C   0  0  0  0  0  0  0  0  0  0  0  0
   -5.4482   -0.7296    2.0633 C   0  0  0  0  0  0  0  0  0  0  0  0
   -4.4035    0.1778    2.1053 C   0  0  0  0  0  0  0  0  0  0  0  0
   -0.9142    0.1745    2.4150 C   0  0  0  0  0  0  0  0  0  0  0  0
   -0.7626   -0.3392    3.7071 C   0  0  0  0  0  0  0  0  0  0  0  0
   -1.5014   -0.5117    4.8476 N   0  0  0  0  0  0  0  0  0  0  0  0
   -0.7027   -1.1595    5.7552 C   0  0  0  0  0  0  0  0  0  0  0  0
   -0.8321   -1.6509    7.0376 C   0  0  0  0  0  0  0  0  0  0  0  0
   -2.8488   -0.0762    5.1135 C   0  0  0  0  0  0  0  0  0  0  0  0
   -2.8869    1.3147    5.7425 C   0  0  0  0  0  0  0  0  0  0  0  0
   -2.4811    2.0772   -4.4102 S   0  0  0  0  0  0  0  0  0  0  0  0
   -1.4599    2.1233   -5.8134 C   0  0  0  0  0  0  0  0  0  0  0  0
   -0.1274    1.7674   -5.5301 C   0  0  0  0  0  0  0  0  0  0  0  0
    0.9021    1.8333   -6.9290 S   0  0  0  0  0  0  0  0  0  0  0  0
   -0.4521    2.3504   -7.8963 C   0  0  0  0  0  0  0  0  0  0  0  0
   -0.5898    2.7105   -9.2260 C   0  0  0  0  0  0  0  0  0  0  0  0
   -1.8941    3.0746   -9.5400 C   0  0  0  0  0  0  0  0  0  0  0  0
   -2.9593    2.9400   -8.1424 S   0  0  0  0  0  0  0  0  0  0  0  0
   -1.6461    2.4467   -7.1555 C   0  0  0  0  0  0  0  0  0  0  0  0
   -2.4534    3.4480  -10.7724 C   0  0  0  0  0  0  0  0  0  0  0  0
   -1.8374    3.8763  -11.9183 C   0  0  0  0  0  0  0  0  0  0  0  0
   -2.5759    3.7656  -13.2012 C   0  0  0  0  0  0  0  0  0  0  0  0
   -3.7457    3.5103  -13.3453 O   0  0  0  0  0  0  0  0  0  0  0  0
   -1.5492    3.9926  -14.2515 C   0  0  0  0  0  0  0  0  0  0  0  0
   -0.3262    4.3339  -13.6461 C   0  0  0  0  0  0  0  0  0  0  0  0
    0.8034    4.5644  -14.4110 C   0  0  0  0  0  0  0  0  0  0  0  0
    0.6902    4.4516  -15.7896 C   0  0  0  0  0  0  0  0  0  0  0  0
    1.7690    4.6570  -16.5486 F   0  0  0  0  0  0  0  0  0  0  0  0
   -0.5150    4.1264  -16.4077 C   0  0  0  0  0  0  0  0  0  0  0  0
   -0.5838    4.0332  -17.7381 F   0  0  0  0  0  0  0  0  0  0  0  0
   -1.6509    3.8937  -15.6276 C   0  0  0  0  0  0  0  0  0  0  0  0
   -2.7966    3.5800  -16.2228 F   0  0  0  0  0  0  0  0  0  0  0  0
   -0.5251    4.3995  -12.1951 C   0  0  0  0  0  0  0  0  0  0  0  0
    0.2932    5.0790  -11.3273 C   0  0  0  0  0  0  0  0  0  0  0  0
    1.5330    5.6449  -11.6868 C   0  0  0  0  0  0  0  0  0  0  0  0
    2.5586    6.1050  -11.9188 N   0  0  0  0  0  0  0  0  0  0  0  0
   -0.0518    5.3708   -9.9926 C   0  0  0  0  0  0  0  0  0  0  0  0
   -0.3004    5.6668   -8.9119 N   0  0  0  0  0  0  0  0  0  0  0  0
   -0.5221   -2.7770    9.3044 H   0  0  0  0  0  0  0  0  0  0  0  0
    4.9737   -5.6995    8.5194 H   0  0  0  0  0  0  0  0  0  0  0  0
    6.5639   -7.4037    9.4189 H   0  0  0  0  0  0  0  0  0  0  0  0
    3.7439   -7.9169   13.4619 H   0  0  0  0  0  0  0  0  0  0  0  0
    2.1774   -6.2583   12.6100 H   0  0  0  0  0  0  0  0  0  0  0  0
    1.9798    0.1724   -0.6235 H   0  0  0  0  0  0  0  0  0  0  0  0
    0.6208   -1.5685   -2.5206 H   0  0  0  0  0  0  0  0  0  0  0  0
    1.5169   -3.6396   -3.4698 H   0  0  0  0  0  0  0  0  0  0  0  0
    2.6126   -4.7449   -5.3675 H   0  0  0  0  0  0  0  0  0  0  0  0
    3.5621   -3.8047   -6.5279 H   0  0  0  0  0  0  0  0  0  0  0  0
    5.0419   -5.2047   -5.1054 H   0  0  0  0  0  0  0  0  0  0  0  0
    5.3441   -3.4894   -4.8091 H   0  0  0  0  0  0  0  0  0  0  0  0
    4.3990   -4.4288   -3.6541 H   0  0  0  0  0  0  0  0  0  0  0  0
    3.8246   -1.3771   -6.2520 H   0  0  0  0  0  0  0  0  0  0  0  0
    2.9463    0.6995   -5.2920 H   0  0  0  0  0  0  0  0  0  0  0  0
    3.7134    0.6617   -2.3939 H   0  0  0  0  0  0  0  0  0  0  0  0
    5.4739    2.3357   -2.0831 H   0  0  0  0  0  0  0  0  0  0  0  0
    5.2662    5.7961   -3.3192 H   0  0  0  0  0  0  0  0  0  0  0  0
    6.3451    4.5468   -2.6818 H   0  0  0  0  0  0  0  0  0  0  0  0
    6.0136    6.3649   -1.0196 H   0  0  0  0  0  0  0  0  0  0  0  0
    5.3457    4.8449   -0.4145 H   0  0  0  0  0  0  0  0  0  0  0  0
    4.2687    6.0881   -1.0501 H   0  0  0  0  0  0  0  0  0  0  0  0
    2.8471    5.3696   -3.5249 H   0  0  0  0  0  0  0  0  0  0  0  0
    1.0785    3.7108   -3.8122 H   0  0  0  0  0  0  0  0  0  0  0  0
   -2.8055    1.5741   -1.1354 H   0  0  0  0  0  0  0  0  0  0  0  0
   -0.6599    2.4380    3.3166 H   0  0  0  0  0  0  0  0  0  0  0  0
   -1.1399    4.7651    3.8787 H   0  0  0  0  0  0  0  0  0  0  0  0
   -2.7552    6.6039    3.8999 H   0  0  0  0  0  0  0  0  0  0  0  0
   -4.1732    6.5671    2.8417 H   0  0  0  0  0  0  0  0  0  0  0  0
   -2.5657    8.3123    2.1051 H   0  0  0  0  0  0  0  0  0  0  0  0
   -1.3024    7.0896    1.9287 H   0  0  0  0  0  0  0  0  0  0  0  0
   -2.7155    7.0529    0.8751 H   0  0  0  0  0  0  0  0  0  0  0  0
   -4.4508    4.7405    1.1937 H   0  0  0  0  0  0  0  0  0  0  0  0
   -3.9853    2.4112    0.6339 H   0  0  0  0  0  0  0  0  0  0  0  0
   -2.1116   -1.5877    0.3781 H   0  0  0  0  0  0  0  0  0  0  0  0
   -3.9649   -3.1884    0.3084 H   0  0  0  0  0  0  0  0  0  0  0  0
   -7.0869   -2.8136    2.2345 H   0  0  0  0  0  0  0  0  0  0  0  0
   -6.0810   -3.9394    1.3114 H   0  0  0  0  0  0  0  0  0  0  0  0
   -7.7023   -1.6349    0.1240 H   0  0  0  0  0  0  0  0  0  0  0  0
   -6.6960   -2.7523   -0.7975 H   0  0  0  0  0  0  0  0  0  0  0  0
   -8.1320   -3.3465    0.0430 H   0  0  0  0  0  0  0  0  0  0  0  0
   -6.3832   -0.4816    2.5451 H   0  0  0  0  0  0  0  0  0  0  0  0
   -4.5455    1.1211    2.6131 H   0  0  0  0  0  0  0  0  0  0  0  0
   -1.7033   -1.5636    7.6619 H   0  0  0  0  0  0  0  0  0  0  0  0
   -3.4039   -0.0842    4.1741 H   0  0  0  0  0  0  0  0  0  0  0  0
   -3.3040   -0.8039    5.7912 H   0  0  0  0  0  0  0  0  0  0  0  0
   -3.9130    1.5834    5.9774 H   0  0  0  0  0  0  0  0  0  0  0  0
   -2.3034    1.3321    6.6601 H   0  0  0  0  0  0  0  0  0  0  0  0
   -2.4833    2.0545    5.0552 H   0  0  0  0  0  0  0  0  0  0  0  0
    0.2045    2.6650   -9.9484 H   0  0  0  0  0  0  0  0  0  0  0  0
   -3.5271    3.3132  -10.8653 H   0  0  0  0  0  0  0  0  0  0  0  0
    1.7603    4.8170  -13.9849 H   0  0  0  0  0  0  0  0  0  0  0  0
  1  2  2  0  0  0  0
  2  3  1  0  0  0  0
  3  4  2  0  0  0  0
  3  5  1  0  0  0  0
  5  6  2  0  0  0  0
  6  7  1  0  0  0  0
  7  8  2  0  0  0  0
  8  9  1  0  0  0  0
  9 10  1  0  0  0  0
  9 11  2  0  0  0  0
 11 12  1  0  0  0  0
 11 13  1  0  0  0  0
 13 14  2  0  0  0  0
 14 15  1  0  0  0  0
 15 16  2  0  0  0  0
 16 17  1  0  0  0  0
 17 18  2  0  0  0  0
 18 19  1  0  0  0  0
 19 20  3  0  0  0  0
 18 21  1  0  0  0  0
 21 22  3  0  0  0  0
  1 23  1  0  0  0  0
 23 24  1  0  0  0  0
 24 25  1  0  0  0  0
 25 26  1  0  0  0  0
 26 27  1  0  0  0  0
 27 28  1  0  0  0  0
 28 29  1  0  0  0  0
 29 30  2  0  0  0  0
 30 31  1  0  0  0  0
 31 32  1  0  0  0  0
 32 33  1  0  0  0  0
 33 34  2  0  0  0  0
 34 35  1  0  0  0  0
 35 36  2  0  0  0  0
 36 37  1  0  0  0  0
 37 38  1  0  0  0  0
 36 39  1  0  0  0  0
 39 40  2  0  0  0  0
 32 41  1  0  0  0  0
 41 42  2  0  0  0  0
 42 43  1  0  0  0  0
 43 44  2  0  0  0  0
 44 45  1  0  0  0  0
 45 46  1  0  0  0  0
 44 47  1  0  0  0  0
 47 48  2  0  0  0  0
 32 49  1  0  0  0  0
 49 50  2  0  0  0  0
 50 51  1  0  0  0  0
 51 52  1  0  0  0  0
 52 53  2  0  0  0  0
 53 54  1  0  0  0  0
 54 55  1  0  0  0  0
 55 56  2  0  0  0  0
 56 57  1  0  0  0  0
 57 58  2  0  0  0  0
 58 59  1  0  0  0  0
 59 60  1  0  0  0  0
 58 61  1  0  0  0  0
 61 62  2  0  0  0  0
 54 63  1  0  0  0  0
 63 64  2  0  0  0  0
 64 65  1  0  0  0  0
 65 66  2  0  0  0  0
 66 67  1  0  0  0  0
 67 68  1  0  0  0  0
 66 69  1  0  0  0  0
 69 70  2  0  0  0  0
 54 71  1  0  0  0  0
 71 72  1  0  0  0  0
 72 73  1  0  0  0  0
 73 74  1  0  0  0  0
 74 75  1  0  0  0  0
 73 76  1  0  0  0  0
 76 77  1  0  0  0  0
 50 78  1  0  0  0  0
 78 79  1  0  0  0  0
 79 80  2  0  0  0  0
 80 81  1  0  0  0  0
 81 82  1  0  0  0  0
 82 83  1  0  0  0  0
 83 84  2  0  0  0  0
 84 85  1  0  0  0  0
 85 86  1  0  0  0  0
 84 87  1  0  0  0  0
 87 88  2  0  0  0  0
 88 89  1  0  0  0  0
 89 90  2  0  0  0  0
 89 91  1  0  0  0  0
 91 92  2  0  0  0  0
 92 93  1  0  0  0  0
 93 94  2  0  0  0  0
 94 95  1  0  0  0  0
 94 96  1  0  0  0  0
 96 97  1  0  0  0  0
 96 98  2  0  0  0  0
 98 99  1  0  0  0  0
 92100  1  0  0  0  0
100101  2  0  0  0  0
101102  1  0  0  0  0
102103  3  0  0  0  0
101104  1  0  0  0  0
104105  3  0  0  0  0
 17  2  1  0  0  0  0
 75 23  2  0  0  0  0
 86 79  1  0  0  0  0
100 88  1  0  0  0  0
 16  5  1  0  0  0  0
 74 25  2  0  0  0  0
 86 82  2  0  0  0  0
 98 91  1  0  0  0  0
 14  7  1  0  0  0  0
 72 26  2  0  0  0  0
 71 28  2  0  0  0  0
 53 29  1  0  0  0  0
 62 55  1  0  0  0  0
 70 63  1  0  0  0  0
 51 31  2  0  0  0  0
 40 33  1  0  0  0  0
 48 41  1  0  0  0  0
 80 49  1  0  0  0  0
  1106  1  0  0  0  0
  6107  1  0  0  0  0
  8108  1  0  0  0  0
 13109  1  0  0  0  0
 15110  1  0  0  0  0
 30111  1  0  0  0  0
 34112  1  0  0  0  0
 35113  1  0  0  0  0
 37114  1  0  0  0  0
 37115  1  0  0  0  0
 38116  1  0  0  0  0
 38117  1  0  0  0  0
 38118  1  0  0  0  0
 39119  1  0  0  0  0
 40120  1  0  0  0  0
 42121  1  0  0  0  0
 43122  1  0  0  0  0
 45123  1  0  0  0  0
 45124  1  0  0  0  0
 46125  1  0  0  0  0
 46126  1  0  0  0  0
 46127  1  0  0  0  0
 47128  1  0  0  0  0
 48129  1  0  0  0  0
 52130  1  0  0  0  0
 56131  1  0  0  0  0
 57132  1  0  0  0  0
 59133  1  0  0  0  0
 59134  1  0  0  0  0
 60135  1  0  0  0  0
 60136  1  0  0  0  0
 60137  1  0  0  0  0
 61138  1  0  0  0  0
 62139  1  0  0  0  0
 64140  1  0  0  0  0
 65141  1  0  0  0  0
 67142  1  0  0  0  0
 67143  1  0  0  0  0
 68144  1  0  0  0  0
 68145  1  0  0  0  0
 68146  1  0  0  0  0
 69147  1  0  0  0  0
 70148  1  0  0  0  0
 75149  1  0  0  0  0
 76150  1  0  0  0  0
 76151  1  0  0  0  0
 77152  1  0  0  0  0
 77153  1  0  0  0  0
 77154  1  0  0  0  0
 83155  1  0  0  0  0
 87156  1  0  0  0  0
 93157  1  0  0  0  0
M  END
