161

C         -2.67540       -1.04620       -7.86340
C         -3.50880       -2.00890       -8.38050
C         -4.23960       -3.07650       -7.66780
O         -4.11180       -3.46700       -6.52370
C         -5.21250       -3.61390       -8.64100
C         -6.17430       -4.56060       -8.43950
C         -7.02490       -4.91180       -9.51110
C         -8.04000       -5.87580       -9.35780
C         -8.85400       -6.19060      -10.40930
F         -9.82130       -7.10750      -10.26070
C         -8.68870       -5.55760      -11.65710
F         -9.50270       -5.88570      -12.67020
C         -7.71190       -4.61880      -11.83680
C         -6.85580       -4.27140      -10.77260
C         -5.84370       -3.30000      -10.95050
C         -5.03020       -2.97610       -9.89720
C         -3.92590       -2.02830       -9.77170
C         -3.36360       -1.34250      -10.81800
C         -3.82280       -1.42610      -12.14920
N         -4.14780       -1.44390      -13.25040
C         -2.23410       -0.49950      -10.74960
N         -1.31150        0.18370      -10.79450
C         -2.18700       -0.83960       -6.56560
S         -1.30540        0.68330       -6.30820
C         -1.08580        0.29560       -4.65310
C         -0.54890        0.79590       -3.47000
S          0.31010        2.18590       -2.89320
C          0.31540        1.47940       -1.31210
C          0.82520        1.89280       -0.04430
C          1.50110        3.05080        0.33180
C          1.83960        3.17660        1.65860
C          2.54030        4.33800        2.34350
C          4.01210        4.45770        1.98530
C          4.69750        3.43910        1.34070
C          6.05030        3.56400        1.07800
C          6.75210        4.69810        1.46150
C          8.20910        4.85090        1.13430
C          8.38130        5.53300       -0.22450
C          6.06180        5.71090        2.11630
C          4.71160        5.59240        2.37950
C          1.78110        5.61410        2.03700
C          2.07930        6.34090        0.89090
C          1.36730        7.48330        0.57970
C          0.33910        7.92920        1.40030
C         -0.45520        9.15120        1.04010
C         -1.64100        8.77510        0.14920
C          0.03480        7.19030        2.53540
C          0.74240        6.04450        2.85000
C          2.46930        3.90110        3.78530
C          1.89200        2.63060        3.88270
C          1.49210        2.17150        2.59250
C          0.84110        1.00010        2.20880
C          0.51500        0.86800        0.88130
C         -0.23650       -0.27110        0.20220
C          0.56830       -1.56130        0.18220
C          1.93620       -1.50010       -0.05810
C          2.68750       -2.65550       -0.15660
C          2.09520       -3.90500       -0.02600
C          2.91080       -5.16310       -0.09330
C          3.35580       -5.58550        1.30840
C          0.72990       -3.96150        0.21440
C         -0.02620       -2.80820        0.31030
C         -1.58690       -0.38400        0.88200
C         -1.70940       -1.06240        2.08950
C         -2.92960       -1.14000        2.73180
C         -4.05900       -0.53230        2.19820
C         -5.37300       -0.59010        2.92170
C         -5.45960        0.52890        3.96150
C         -3.92650        0.17040        1.00960
C         -2.70770        0.24640        0.36000
C         -0.31150        0.24550       -1.21480
C         -0.80170       -0.16460       -2.45510
N         -1.46690       -1.23760       -3.00020
C         -1.65040       -0.96750       -4.33990
C         -2.26210       -1.60250       -5.40580
C         -1.82820       -2.43250       -2.38820
C         -1.26180       -3.65000       -2.61900
C         -1.89830       -4.65190       -1.86690
S         -1.64990       -6.34390       -1.63860
C         -2.96120       -6.40700       -0.48230
C         -3.28130       -7.69750        0.18870
C         -2.16420       -8.11730        1.14650
C         -3.54740       -5.19400       -0.29220
C         -2.94750       -4.19210       -1.08180
S         -3.18900       -2.49340       -1.27980
S          1.79050        2.04790        5.48330
C          2.53740        3.53090        6.06740
C          2.84360        4.40380        5.00920
C          2.79400        3.86980        7.39860
C          2.53850        3.18830        8.56610
C          1.91770        1.86630        8.67030
O          1.54240        1.13980        7.76840
C          1.83030        1.57100       10.11680
C          1.31250        0.45020       10.73190
C          1.33230        0.39340       12.12050
Cl         0.70100       -0.97310       12.95290
C          1.87100        1.46140       12.84040
F          1.88650        1.40140       14.17770
C          2.39350        2.59020       12.22720
C          2.37200        2.64510       10.84270
C          2.82610        3.66970        9.90190
C          3.40820        4.85930       10.25870
C          3.65060        5.25020       11.59260
N          3.87480        5.63070       12.65210
C          3.84880        5.86560        9.37390
N          4.23290        6.73600        8.72960
H         -2.36440       -0.27350       -8.55710
H         -6.28730       -5.03060       -7.47440
H         -8.17970       -6.36880       -8.40840
H         -7.59810       -4.14440      -12.79900
H         -5.74550       -2.83160      -11.91620
H          1.73450        3.81410       -0.39420
H          4.17610        2.54210        1.03970
H          6.56860        2.76270        0.57070
H          8.69970        5.45150        1.90280
H          8.68860        3.87040        1.10840
H          7.91840        6.51730       -0.21470
H          9.43630        5.64760       -0.46210
H          7.91090        4.94170       -1.00700
H          6.58970        6.60060        2.42820
H          4.19030        6.39080        2.88720
H          2.88440        6.01910        0.24600
H          1.61750        8.04040       -0.31190
H          0.18090        9.86280        0.50990
H         -0.82530        9.63300        1.94720
H         -1.29180        8.30500       -0.76750
H         -2.29430        8.07460        0.66470
H         -2.21640        9.66020       -0.11140
H         -0.76460        7.51640        3.18540
H          0.48530        5.48540        3.73800
H          0.60040        0.24660        2.94120
H          2.41700       -0.53860       -0.17070
H          3.74950       -2.58520       -0.34370
H          2.31610       -5.96360       -0.53840
H          3.79160       -5.00240       -0.71790
H          2.49010       -5.75200        1.94560
H          3.96870       -4.80900        1.76060
H          3.93590       -6.50410        1.26290
H          0.24680       -4.92230        0.32060
H         -1.08610       -2.88760        0.49370
H         -0.84840       -1.54740        2.52520
H         -3.00610       -1.68330        3.66300
H         -5.47690       -1.55460        3.42330
H         -6.19320       -0.48480        2.20900
H         -6.41080        0.48730        4.48680
H         -4.65620        0.43350        4.68860
H         -5.37020        1.50010        3.47990
H         -4.78760        0.66130        0.57970
H         -2.63670        0.80070       -0.56450
H         -2.75370       -2.55660       -5.36790
H         -0.42580       -3.80620       -3.27500
H         -4.21760       -7.58470        0.73840
H         -3.41730       -8.47780       -0.56430
H         -1.23200       -8.25110        0.60220
H         -2.01460       -7.35740        1.91040
H         -2.41930       -9.05470        1.63350
H         -4.36940       -5.02250        0.37820
H          3.30600        5.35980        5.17820
H          3.26010        4.84230        7.50120
H          0.90310       -0.35830       10.14760
H          2.79320        3.37780       12.84440
