
  xtb     02012216443D
 energy: -270.878230341632 gnorm: 0.000258345406 xtb: 6.4.1 (unknown)
158174  0     0  0            999 V2000
    0.7789    8.1116   -2.7770 C   0  0  0  0  0  0  0  0  0  0  0  0
    1.6994    9.0384   -2.3480 C   0  0  0  0  0  0  0  0  0  0  0  0
    2.9979    8.7322   -1.7422 C   0  0  0  0  0  0  0  0  0  0  0  0
    3.5591    7.6523   -1.6886 O   0  0  0  0  0  0  0  0  0  0  0  0
    3.5022   10.0052   -1.1929 C   0  0  0  0  0  0  0  0  0  0  0  0
    4.6248   10.2309   -0.4516 C   0  0  0  0  0  0  0  0  0  0  0  0
    4.8826   11.5378    0.0205 C   0  0  0  0  0  0  0  0  0  0  0  0
    6.0132   11.8232    0.8098 C   0  0  0  0  0  0  0  0  0  0  0  0
    6.2296   13.0927    1.2678 C   0  0  0  0  0  0  0  0  0  0  0  0
    7.3037   13.3615    2.0241 F   0  0  0  0  0  0  0  0  0  0  0  0
    5.3292   14.1298    0.9544 C   0  0  0  0  0  0  0  0  0  0  0  0
    5.5653   15.3646    1.4193 F   0  0  0  0  0  0  0  0  0  0  0  0
    4.2249   13.8841    0.1874 C   0  0  0  0  0  0  0  0  0  0  0  0
    3.9713   12.5856   -0.2977 C   0  0  0  0  0  0  0  0  0  0  0  0
    2.8230   12.3209   -1.0801 C   0  0  0  0  0  0  0  0  0  0  0  0
    2.5883   11.0455   -1.5199 C   0  0  0  0  0  0  0  0  0  0  0  0
    1.4880   10.4694   -2.2920 C   0  0  0  0  0  0  0  0  0  0  0  0
    0.4627   11.1849   -2.8580 C   0  0  0  0  0  0  0  0  0  0  0  0
    0.3319   12.5854   -2.7603 C   0  0  0  0  0  0  0  0  0  0  0  0
    0.1664   13.7209   -2.7155 N   0  0  0  0  0  0  0  0  0  0  0  0
   -0.5887   10.6449   -3.6263 C   0  0  0  0  0  0  0  0  0  0  0  0
   -1.4755   10.2856   -4.2627 N   0  0  0  0  0  0  0  0  0  0  0  0
    0.8138    6.7137   -2.7411 C   0  0  0  0  0  0  0  0  0  0  0  0
    2.1927    5.7098   -2.2782 S   0  0  0  0  0  0  0  0  0  0  0  0
    1.2110    4.3044   -2.4025 C   0  0  0  0  0  0  0  0  0  0  0  0
    1.2378    2.9330   -2.1525 C   0  0  0  0  0  0  0  0  0  0  0  0
    2.3478    1.7131   -1.6187 S   0  0  0  0  0  0  0  0  0  0  0  0
    1.0310    0.5897   -1.5634 C   0  0  0  0  0  0  0  0  0  0  0  0
    0.8841   -0.7331   -1.0474 C   0  0  0  0  0  0  0  0  0  0  0  0
    1.8250   -1.6252   -0.5375 C   0  0  0  0  0  0  0  0  0  0  0  0
    1.3447   -2.7690    0.0542 C   0  0  0  0  0  0  0  0  0  0  0  0
    2.1283   -3.8853    0.7229 C   0  0  0  0  0  0  0  0  0  0  0  0
    2.6677   -4.8957   -0.2816 C   0  0  0  0  0  0  0  0  0  0  0  0
    2.2730   -4.8987   -1.6110 C   0  0  0  0  0  0  0  0  0  0  0  0
    2.7337   -5.8769   -2.4745 C   0  0  0  0  0  0  0  0  0  0  0  0
    3.5871   -6.8779   -2.0328 C   0  0  0  0  0  0  0  0  0  0  0  0
    4.1094   -7.9185   -2.9806 C   0  0  0  0  0  0  0  0  0  0  0  0
    5.4159   -7.4500   -3.6245 C   0  0  0  0  0  0  0  0  0  0  0  0
    3.9790   -6.8693   -0.6996 C   0  0  0  0  0  0  0  0  0  0  0  0
    3.5229   -5.8955    0.1666 C   0  0  0  0  0  0  0  0  0  0  0  0
    3.2286   -3.3098    1.5856 C   0  0  0  0  0  0  0  0  0  0  0  0
    4.4709   -3.0332    1.0269 C   0  0  0  0  0  0  0  0  0  0  0  0
    5.4716   -2.4633    1.7895 C   0  0  0  0  0  0  0  0  0  0  0  0
    5.2596   -2.1512    3.1265 C   0  0  0  0  0  0  0  0  0  0  0  0
    6.3393   -1.4943    3.9367 C   0  0  0  0  0  0  0  0  0  0  0  0
    6.3074    0.0226    3.7382 C   0  0  0  0  0  0  0  0  0  0  0  0
    4.0126   -2.4165    3.6757 C   0  0  0  0  0  0  0  0  0  0  0  0
    3.0063   -2.9853    2.9159 C   0  0  0  0  0  0  0  0  0  0  0  0
    1.0221   -4.5970    1.4616 C   0  0  0  0  0  0  0  0  0  0  0  0
   -0.2233   -4.0953    1.0648 C   0  0  0  0  0  0  0  0  0  0  0  0
   -0.0488   -2.9868    0.1840 C   0  0  0  0  0  0  0  0  0  0  0  0
   -0.9829   -2.1458   -0.4199 C   0  0  0  0  0  0  0  0  0  0  0  0
   -0.5008   -1.0299   -1.0586 C   0  0  0  0  0  0  0  0  0  0  0  0
   -1.2874    0.0826   -1.7420 C   0  0  0  0  0  0  0  0  0  0  0  0
   -1.7749   -0.3435   -3.1204 C   0  0  0  0  0  0  0  0  0  0  0  0
   -2.9525    0.1529   -3.6603 C   0  0  0  0  0  0  0  0  0  0  0  0
   -3.3377   -0.1915   -4.9425 C   0  0  0  0  0  0  0  0  0  0  0  0
   -2.5544   -1.0257   -5.7269 C   0  0  0  0  0  0  0  0  0  0  0  0
   -2.9453   -1.3342   -7.1427 C   0  0  0  0  0  0  0  0  0  0  0  0
   -2.3965   -0.2620   -8.0866 C   0  0  0  0  0  0  0  0  0  0  0  0
   -1.3727   -1.5150   -5.1859 C   0  0  0  0  0  0  0  0  0  0  0  0
   -0.9871   -1.1804   -3.9019 C   0  0  0  0  0  0  0  0  0  0  0  0
   -2.3908    0.5368   -0.8108 C   0  0  0  0  0  0  0  0  0  0  0  0
   -3.5847   -0.1731   -0.7422 C   0  0  0  0  0  0  0  0  0  0  0  0
   -4.5816    0.2078    0.1349 C   0  0  0  0  0  0  0  0  0  0  0  0
   -4.4148    1.3006    0.9760 C   0  0  0  0  0  0  0  0  0  0  0  0
   -5.4851    1.6875    1.9546 C   0  0  0  0  0  0  0  0  0  0  0  0
   -5.3036    0.9262    3.2693 C   0  0  0  0  0  0  0  0  0  0  0  0
   -3.2111    1.9893    0.9256 C   0  0  0  0  0  0  0  0  0  0  0  0
   -2.2099    1.6116    0.0485 C   0  0  0  0  0  0  0  0  0  0  0  0
   -0.1986    1.1081   -1.9477 C   0  0  0  0  0  0  0  0  0  0  0  0
   -0.0806    2.4417   -2.3342 C   0  0  0  0  0  0  0  0  0  0  0  0
   -0.9029    3.4732   -2.7310 N   0  0  0  0  0  0  0  0  0  0  0  0
   -0.1239    4.6116   -2.7754 C   0  0  0  0  0  0  0  0  0  0  0  0
   -0.3362    5.9547   -2.9976 C   0  0  0  0  0  0  0  0  0  0  0  0
   -2.2000    3.3899   -3.2307 C   0  0  0  0  0  0  0  0  0  0  0  0
   -3.3773    3.4503   -2.5554 C   0  0  0  0  0  0  0  0  0  0  0  0
   -4.4961    3.3772   -3.4150 C   0  0  0  0  0  0  0  0  0  0  0  0
   -4.1689    3.2701   -4.7307 C   0  0  0  0  0  0  0  0  0  0  0  0
   -5.0776    3.2263   -5.9108 C   0  0  0  0  0  0  0  0  0  0  0  0
   -5.0947    4.5698   -6.6431 C   0  0  0  0  0  0  0  0  0  0  0  0
   -2.4514    3.2509   -4.9536 S   0  0  0  0  0  0  0  0  0  0  0  0
   -1.5391   -4.8291    1.8665 S   0  0  0  0  0  0  0  0  0  0  0  0
   -0.4200   -5.8461    2.7682 C   0  0  0  0  0  0  0  0  0  0  0  0
    0.9129   -5.6000    2.3948 C   0  0  0  0  0  0  0  0  0  0  0  0
   -0.7436   -6.7486    3.7844 C   0  0  0  0  0  0  0  0  0  0  0  0
   -1.9482   -7.0264    4.3892 C   0  0  0  0  0  0  0  0  0  0  0  0
   -3.2324   -6.4004    4.0697 C   0  0  0  0  0  0  0  0  0  0  0  0
   -3.4846   -5.6207    3.1692 O   0  0  0  0  0  0  0  0  0  0  0  0
   -4.1917   -6.9052    5.0761 C   0  0  0  0  0  0  0  0  0  0  0  0
   -5.5235   -6.5799    5.2283 C   0  0  0  0  0  0  0  0  0  0  0  0
   -6.2310   -7.1734    6.2671 C   0  0  0  0  0  0  0  0  0  0  0  0
   -7.8931   -6.8081    6.5188 Cl  0  0  0  0  0  0  0  0  0  0  0  0
   -5.5783   -8.0721    7.1128 C   0  0  0  0  0  0  0  0  0  0  0  0
   -6.2641   -8.6373    8.1140 F   0  0  0  0  0  0  0  0  0  0  0  0
   -4.2405   -8.4051    6.9624 C   0  0  0  0  0  0  0  0  0  0  0  0
   -3.5365   -7.8108    5.9272 C   0  0  0  0  0  0  0  0  0  0  0  0
   -2.1399   -7.9278    5.5066 C   0  0  0  0  0  0  0  0  0  0  0  0
   -1.2125   -8.7562    6.0854 C   0  0  0  0  0  0  0  0  0  0  0  0
    0.1327   -8.8988    5.6861 C   0  0  0  0  0  0  0  0  0  0  0  0
    1.2378   -9.0790    5.4283 N   0  0  0  0  0  0  0  0  0  0  0  0
   -1.4865   -9.6051    7.1785 C   0  0  0  0  0  0  0  0  0  0  0  0
   -1.6406  -10.3155    8.0669 N   0  0  0  0  0  0  0  0  0  0  0  0
   -0.1672    8.5007   -3.1342 H   0  0  0  0  0  0  0  0  0  0  0  0
    5.3005    9.4221   -0.2182 H   0  0  0  0  0  0  0  0  0  0  0  0
    6.7113   11.0396    1.0593 H   0  0  0  0  0  0  0  0  0  0  0  0
    3.5453   14.6897   -0.0430 H   0  0  0  0  0  0  0  0  0  0  0  0
    2.1518   13.1353   -1.2991 H   0  0  0  0  0  0  0  0  0  0  0  0
    2.8800   -1.4026   -0.5804 H   0  0  0  0  0  0  0  0  0  0  0  0
    1.6011   -4.1374   -1.9793 H   0  0  0  0  0  0  0  0  0  0  0  0
    2.4162   -5.8644   -3.5075 H   0  0  0  0  0  0  0  0  0  0  0  0
    3.3717   -8.1105   -3.7623 H   0  0  0  0  0  0  0  0  0  0  0  0
    4.2882   -8.8515   -2.4426 H   0  0  0  0  0  0  0  0  0  0  0  0
    5.7937   -8.2045   -4.3104 H   0  0  0  0  0  0  0  0  0  0  0  0
    5.2556   -6.5268   -4.1770 H   0  0  0  0  0  0  0  0  0  0  0  0
    6.1687   -7.2657   -2.8614 H   0  0  0  0  0  0  0  0  0  0  0  0
    4.6423   -7.6398   -0.3337 H   0  0  0  0  0  0  0  0  0  0  0  0
    3.8366   -5.9050    1.2002 H   0  0  0  0  0  0  0  0  0  0  0  0
    4.6580   -3.2772   -0.0091 H   0  0  0  0  0  0  0  0  0  0  0  0
    6.4338   -2.2608    1.3411 H   0  0  0  0  0  0  0  0  0  0  0  0
    6.2006   -1.7227    4.9951 H   0  0  0  0  0  0  0  0  0  0  0  0
    7.3153   -1.8758    3.6295 H   0  0  0  0  0  0  0  0  0  0  0  0
    7.0908    0.4992    4.3226 H   0  0  0  0  0  0  0  0  0  0  0  0
    6.4560    0.2709    2.6897 H   0  0  0  0  0  0  0  0  0  0  0  0
    5.3463    0.4247    4.0509 H   0  0  0  0  0  0  0  0  0  0  0  0
    3.8250   -2.1770    4.7127 H   0  0  0  0  0  0  0  0  0  0  0  0
    2.0422   -3.1796    3.3635 H   0  0  0  0  0  0  0  0  0  0  0  0
   -2.0377   -2.3569   -0.3449 H   0  0  0  0  0  0  0  0  0  0  0  0
   -3.5792    0.8125   -3.0802 H   0  0  0  0  0  0  0  0  0  0  0  0
   -4.2645    0.2000   -5.3371 H   0  0  0  0  0  0  0  0  0  0  0  0
   -2.5497   -2.3086   -7.4353 H   0  0  0  0  0  0  0  0  0  0  0  0
   -4.0334   -1.3670   -7.2280 H   0  0  0  0  0  0  0  0  0  0  0  0
   -1.3105   -0.2332   -8.0350 H   0  0  0  0  0  0  0  0  0  0  0  0
   -2.6908   -0.4700   -9.1125 H   0  0  0  0  0  0  0  0  0  0  0  0
   -2.7745    0.7192   -7.8072 H   0  0  0  0  0  0  0  0  0  0  0  0
   -0.7446   -2.1659   -5.7771 H   0  0  0  0  0  0  0  0  0  0  0  0
   -0.0610   -1.5715   -3.5058 H   0  0  0  0  0  0  0  0  0  0  0  0
   -3.7422   -1.0234   -1.3896 H   0  0  0  0  0  0  0  0  0  0  0  0
   -5.5050   -0.3525    0.1662 H   0  0  0  0  0  0  0  0  0  0  0  0
   -5.4392    2.7607    2.1508 H   0  0  0  0  0  0  0  0  0  0  0  0
   -6.4681    1.4572    1.5386 H   0  0  0  0  0  0  0  0  0  0  0  0
   -4.3345    1.1544    3.7075 H   0  0  0  0  0  0  0  0  0  0  0  0
   -5.3553   -0.1462    3.0958 H   0  0  0  0  0  0  0  0  0  0  0  0
   -6.0800    1.2024    3.9787 H   0  0  0  0  0  0  0  0  0  0  0  0
   -3.0520    2.8349    1.5802 H   0  0  0  0  0  0  0  0  0  0  0  0
   -1.2818    2.1642    0.0384 H   0  0  0  0  0  0  0  0  0  0  0  0
   -1.2698    6.3992   -3.2920 H   0  0  0  0  0  0  0  0  0  0  0  0
   -3.4431    3.5343   -1.4858 H   0  0  0  0  0  0  0  0  0  0  0  0
   -5.5111    3.4036   -3.0608 H   0  0  0  0  0  0  0  0  0  0  0  0
   -4.7464    2.4486   -6.6032 H   0  0  0  0  0  0  0  0  0  0  0  0
   -6.0854    2.9792   -5.5707 H   0  0  0  0  0  0  0  0  0  0  0  0
   -4.0967    4.8187   -6.9965 H   0  0  0  0  0  0  0  0  0  0  0  0
   -5.7650    4.5242   -7.4973 H   0  0  0  0  0  0  0  0  0  0  0  0
   -5.4326    5.3600   -5.9770 H   0  0  0  0  0  0  0  0  0  0  0  0
    1.7341   -6.1312    2.8421 H   0  0  0  0  0  0  0  0  0  0  0  0
    0.1222   -7.2697    4.1751 H   0  0  0  0  0  0  0  0  0  0  0  0
   -5.9990   -5.8808    4.5592 H   0  0  0  0  0  0  0  0  0  0  0  0
   -3.7991   -9.1049    7.6528 H   0  0  0  0  0  0  0  0  0  0  0  0
  1  2  2  0  0  0  0
  2  3  1  0  0  0  0
  3  4  2  0  0  0  0
  3  5  1  0  0  0  0
  5  6  2  0  0  0  0
  6  7  1  0  0  0  0
  7  8  2  0  0  0  0
  8  9  1  0  0  0  0
  9 10  1  0  0  0  0
  9 11  2  0  0  0  0
 11 12  1  0  0  0  0
 11 13  1  0  0  0  0
 13 14  2  0  0  0  0
 14 15  1  0  0  0  0
 15 16  2  0  0  0  0
 16 17  1  0  0  0  0
 17 18  2  0  0  0  0
 18 19  1  0  0  0  0
 19 20  3  0  0  0  0
 18 21  1  0  0  0  0
 21 22  3  0  0  0  0
  1 23  1  0  0  0  0
 23 24  1  0  0  0  0
 24 25  1  0  0  0  0
 25 26  1  0  0  0  0
 26 27  1  0  0  0  0
 27 28  1  0  0  0  0
 28 29  1  0  0  0  0
 29 30  2  0  0  0  0
 30 31  1  0  0  0  0
 31 32  1  0  0  0  0
 32 33  1  0  0  0  0
 33 34  2  0  0  0  0
 34 35  1  0  0  0  0
 35 36  2  0  0  0  0
 36 37  1  0  0  0  0
 37 38  1  0  0  0  0
 36 39  1  0  0  0  0
 39 40  2  0  0  0  0
 32 41  1  0  0  0  0
 41 42  2  0  0  0  0
 42 43  1  0  0  0  0
 43 44  2  0  0  0  0
 44 45  1  0  0  0  0
 45 46  1  0  0  0  0
 44 47  1  0  0  0  0
 47 48  2  0  0  0  0
 32 49  1  0  0  0  0
 49 50  2  0  0  0  0
 50 51  1  0  0  0  0
 51 52  1  0  0  0  0
 52 53  2  0  0  0  0
 53 54  1  0  0  0  0
 54 55  1  0  0  0  0
 55 56  2  0  0  0  0
 56 57  1  0  0  0  0
 57 58  2  0  0  0  0
 58 59  1  0  0  0  0
 59 60  1  0  0  0  0
 58 61  1  0  0  0  0
 61 62  2  0  0  0  0
 54 63  1  0  0  0  0
 63 64  2  0  0  0  0
 64 65  1  0  0  0  0
 65 66  2  0  0  0  0
 66 67  1  0  0  0  0
 67 68  1  0  0  0  0
 66 69  1  0  0  0  0
 69 70  2  0  0  0  0
 54 71  1  0  0  0  0
 71 72  1  0  0  0  0
 72 73  1  0  0  0  0
 73 74  1  0  0  0  0
 74 75  1  0  0  0  0
 73 76  1  0  0  0  0
 76 77  2  0  0  0  0
 77 78  1  0  0  0  0
 78 79  2  0  0  0  0
 79 80  1  0  0  0  0
 80 81  1  0  0  0  0
 79 82  1  0  0  0  0
 50 83  1  0  0  0  0
 83 84  1  0  0  0  0
 84 85  2  0  0  0  0
 84 86  1  0  0  0  0
 86 87  2  0  0  0  0
 87 88  1  0  0  0  0
 88 89  2  0  0  0  0
 88 90  1  0  0  0  0
 90 91  2  0  0  0  0
 91 92  1  0  0  0  0
 92 93  1  0  0  0  0
 92 94  2  0  0  0  0
 94 95  1  0  0  0  0
 94 96  1  0  0  0  0
 96 97  2  0  0  0  0
 97 98  1  0  0  0  0
 98 99  2  0  0  0  0
 99100  1  0  0  0  0
100101  3  0  0  0  0
 99102  1  0  0  0  0
102103  3  0  0  0  0
 17  2  1  0  0  0  0
 75 23  2  0  0  0  0
 82 76  1  0  0  0  0
 98 87  1  0  0  0  0
 16  5  1  0  0  0  0
 74 25  2  0  0  0  0
 97 90  1  0  0  0  0
 14  7  1  0  0  0  0
 72 26  2  0  0  0  0
 71 28  2  0  0  0  0
 53 29  1  0  0  0  0
 62 55  1  0  0  0  0
 70 63  1  0  0  0  0
 51 31  2  0  0  0  0
 40 33  1  0  0  0  0
 48 41  1  0  0  0  0
 85 49  1  0  0  0  0
  1104  1  0  0  0  0
  6105  1  0  0  0  0
  8106  1  0  0  0  0
 13107  1  0  0  0  0
 15108  1  0  0  0  0
 30109  1  0  0  0  0
 34110  1  0  0  0  0
 35111  1  0  0  0  0
 37112  1  0  0  0  0
 37113  1  0  0  0  0
 38114  1  0  0  0  0
 38115  1  0  0  0  0
 38116  1  0  0  0  0
 39117  1  0  0  0  0
 40118  1  0  0  0  0
 42119  1  0  0  0  0
 43120  1  0  0  0  0
 45121  1  0  0  0  0
 45122  1  0  0  0  0
 46123  1  0  0  0  0
 46124  1  0  0  0  0
 46125  1  0  0  0  0
 47126  1  0  0  0  0
 48127  1  0  0  0  0
 52128  1  0  0  0  0
 56129  1  0  0  0  0
 57130  1  0  0  0  0
 59131  1  0  0  0  0
 59132  1  0  0  0  0
 60133  1  0  0  0  0
 60134  1  0  0  0  0
 60135  1  0  0  0  0
 61136  1  0  0  0  0
 62137  1  0  0  0  0
 64138  1  0  0  0  0
 65139  1  0  0  0  0
 67140  1  0  0  0  0
 67141  1  0  0  0  0
 68142  1  0  0  0  0
 68143  1  0  0  0  0
 68144  1  0  0  0  0
 69145  1  0  0  0  0
 70146  1  0  0  0  0
 75147  1  0  0  0  0
 77148  1  0  0  0  0
 78149  1  0  0  0  0
 80150  1  0  0  0  0
 80151  1  0  0  0  0
 81152  1  0  0  0  0
 81153  1  0  0  0  0
 81154  1  0  0  0  0
 85155  1  0  0  0  0
 86156  1  0  0  0  0
 91157  1  0  0  0  0
 96158  1  0  0  0  0
M  END
