
  xtb     02012221283D
 energy: -278.419011050399 gnorm: 0.000447199470 xtb: 6.4.1 (unknown)
161178  0     0  0            999 V2000
   -2.6754   -1.0462   -7.8634 C   0  0  0  0  0  0  0  0  0  0  0  0
   -3.5088   -2.0089   -8.3805 C   0  0  0  0  0  0  0  0  0  0  0  0
   -4.2396   -3.0765   -7.6678 C   0  0  0  0  0  0  0  0  0  0  0  0
   -4.1118   -3.4670   -6.5237 O   0  0  0  0  0  0  0  0  0  0  0  0
   -5.2125   -3.6139   -8.6410 C   0  0  0  0  0  0  0  0  0  0  0  0
   -6.1743   -4.5606   -8.4395 C   0  0  0  0  0  0  0  0  0  0  0  0
   -7.0249   -4.9118   -9.5111 C   0  0  0  0  0  0  0  0  0  0  0  0
   -8.0400   -5.8758   -9.3578 C   0  0  0  0  0  0  0  0  0  0  0  0
   -8.8540   -6.1906  -10.4093 C   0  0  0  0  0  0  0  0  0  0  0  0
   -9.8213   -7.1075  -10.2607 F   0  0  0  0  0  0  0  0  0  0  0  0
   -8.6887   -5.5576  -11.6571 C   0  0  0  0  0  0  0  0  0  0  0  0
   -9.5027   -5.8857  -12.6702 F   0  0  0  0  0  0  0  0  0  0  0  0
   -7.7119   -4.6188  -11.8368 C   0  0  0  0  0  0  0  0  0  0  0  0
   -6.8558   -4.2714  -10.7726 C   0  0  0  0  0  0  0  0  0  0  0  0
   -5.8437   -3.3000  -10.9505 C   0  0  0  0  0  0  0  0  0  0  0  0
   -5.0302   -2.9761   -9.8972 C   0  0  0  0  0  0  0  0  0  0  0  0
   -3.9259   -2.0283   -9.7717 C   0  0  0  0  0  0  0  0  0  0  0  0
   -3.3636   -1.3425  -10.8180 C   0  0  0  0  0  0  0  0  0  0  0  0
   -3.8228   -1.4261  -12.1492 C   0  0  0  0  0  0  0  0  0  0  0  0
   -4.1478   -1.4439  -13.2504 N   0  0  0  0  0  0  0  0  0  0  0  0
   -2.2341   -0.4995  -10.7496 C   0  0  0  0  0  0  0  0  0  0  0  0
   -1.3115    0.1837  -10.7945 N   0  0  0  0  0  0  0  0  0  0  0  0
   -2.1870   -0.8396   -6.5656 C   0  0  0  0  0  0  0  0  0  0  0  0
   -1.3054    0.6833   -6.3082 S   0  0  0  0  0  0  0  0  0  0  0  0
   -1.0858    0.2956   -4.6531 C   0  0  0  0  0  0  0  0  0  0  0  0
   -0.5489    0.7959   -3.4700 C   0  0  0  0  0  0  0  0  0  0  0  0
    0.3101    2.1859   -2.8932 S   0  0  0  0  0  0  0  0  0  0  0  0
    0.3154    1.4794   -1.3121 C   0  0  0  0  0  0  0  0  0  0  0  0
    0.8252    1.8928   -0.0443 C   0  0  0  0  0  0  0  0  0  0  0  0
    1.5011    3.0508    0.3318 C   0  0  0  0  0  0  0  0  0  0  0  0
    1.8396    3.1766    1.6586 C   0  0  0  0  0  0  0  0  0  0  0  0
    2.5403    4.3380    2.3435 C   0  0  0  0  0  0  0  0  0  0  0  0
    4.0121    4.4577    1.9853 C   0  0  0  0  0  0  0  0  0  0  0  0
    4.6975    3.4391    1.3407 C   0  0  0  0  0  0  0  0  0  0  0  0
    6.0503    3.5640    1.0780 C   0  0  0  0  0  0  0  0  0  0  0  0
    6.7521    4.6981    1.4615 C   0  0  0  0  0  0  0  0  0  0  0  0
    8.2091    4.8509    1.1343 C   0  0  0  0  0  0  0  0  0  0  0  0
    8.3813    5.5330   -0.2245 C   0  0  0  0  0  0  0  0  0  0  0  0
    6.0618    5.7109    2.1163 C   0  0  0  0  0  0  0  0  0  0  0  0
    4.7116    5.5924    2.3795 C   0  0  0  0  0  0  0  0  0  0  0  0
    1.7811    5.6141    2.0370 C   0  0  0  0  0  0  0  0  0  0  0  0
    2.0793    6.3409    0.8909 C   0  0  0  0  0  0  0  0  0  0  0  0
    1.3673    7.4833    0.5797 C   0  0  0  0  0  0  0  0  0  0  0  0
    0.3391    7.9292    1.4003 C   0  0  0  0  0  0  0  0  0  0  0  0
   -0.4552    9.1512    1.0401 C   0  0  0  0  0  0  0  0  0  0  0  0
   -1.6410    8.7751    0.1492 C   0  0  0  0  0  0  0  0  0  0  0  0
    0.0348    7.1903    2.5354 C   0  0  0  0  0  0  0  0  0  0  0  0
    0.7424    6.0445    2.8500 C   0  0  0  0  0  0  0  0  0  0  0  0
    2.4693    3.9011    3.7853 C   0  0  0  0  0  0  0  0  0  0  0  0
    1.8920    2.6306    3.8827 C   0  0  0  0  0  0  0  0  0  0  0  0
    1.4921    2.1715    2.5925 C   0  0  0  0  0  0  0  0  0  0  0  0
    0.8411    1.0001    2.2088 C   0  0  0  0  0  0  0  0  0  0  0  0
    0.5150    0.8680    0.8813 C   0  0  0  0  0  0  0  0  0  0  0  0
   -0.2365   -0.2711    0.2022 C   0  0  0  0  0  0  0  0  0  0  0  0
    0.5683   -1.5613    0.1822 C   0  0  0  0  0  0  0  0  0  0  0  0
    1.9362   -1.5001   -0.0581 C   0  0  0  0  0  0  0  0  0  0  0  0
    2.6875   -2.6555   -0.1566 C   0  0  0  0  0  0  0  0  0  0  0  0
    2.0952   -3.9050   -0.0260 C   0  0  0  0  0  0  0  0  0  0  0  0
    2.9108   -5.1631   -0.0933 C   0  0  0  0  0  0  0  0  0  0  0  0
    3.3558   -5.5855    1.3084 C   0  0  0  0  0  0  0  0  0  0  0  0
    0.7299   -3.9615    0.2144 C   0  0  0  0  0  0  0  0  0  0  0  0
   -0.0262   -2.8082    0.3103 C   0  0  0  0  0  0  0  0  0  0  0  0
   -1.5869   -0.3840    0.8820 C   0  0  0  0  0  0  0  0  0  0  0  0
   -1.7094   -1.0624    2.0895 C   0  0  0  0  0  0  0  0  0  0  0  0
   -2.9296   -1.1400    2.7318 C   0  0  0  0  0  0  0  0  0  0  0  0
   -4.0590   -0.5323    2.1982 C   0  0  0  0  0  0  0  0  0  0  0  0
   -5.3730   -0.5901    2.9217 C   0  0  0  0  0  0  0  0  0  0  0  0
   -5.4596    0.5289    3.9615 C   0  0  0  0  0  0  0  0  0  0  0  0
   -3.9265    0.1704    1.0096 C   0  0  0  0  0  0  0  0  0  0  0  0
   -2.7077    0.2464    0.3600 C   0  0  0  0  0  0  0  0  0  0  0  0
   -0.3115    0.2455   -1.2148 C   0  0  0  0  0  0  0  0  0  0  0  0
   -0.8017   -0.1646   -2.4551 C   0  0  0  0  0  0  0  0  0  0  0  0
   -1.4669   -1.2376   -3.0002 N   0  0  0  0  0  0  0  0  0  0  0  0
   -1.6504   -0.9675   -4.3399 C   0  0  0  0  0  0  0  0  0  0  0  0
   -2.2621   -1.6025   -5.4058 C   0  0  0  0  0  0  0  0  0  0  0  0
   -1.8282   -2.4325   -2.3882 C   0  0  0  0  0  0  0  0  0  0  0  0
   -1.2618   -3.6500   -2.6190 C   0  0  0  0  0  0  0  0  0  0  0  0
   -1.8983   -4.6519   -1.8669 C   0  0  0  0  0  0  0  0  0  0  0  0
   -1.6499   -6.3439   -1.6386 S   0  0  0  0  0  0  0  0  0  0  0  0
   -2.9612   -6.4070   -0.4823 C   0  0  0  0  0  0  0  0  0  0  0  0
   -3.2813   -7.6975    0.1887 C   0  0  0  0  0  0  0  0  0  0  0  0
   -2.1642   -8.1173    1.1465 C   0  0  0  0  0  0  0  0  0  0  0  0
   -3.5474   -5.1940   -0.2922 C   0  0  0  0  0  0  0  0  0  0  0  0
   -2.9475   -4.1921   -1.0818 C   0  0  0  0  0  0  0  0  0  0  0  0
   -3.1890   -2.4934   -1.2798 S   0  0  0  0  0  0  0  0  0  0  0  0
    1.7905    2.0479    5.4833 S   0  0  0  0  0  0  0  0  0  0  0  0
    2.5374    3.5309    6.0674 C   0  0  0  0  0  0  0  0  0  0  0  0
    2.8436    4.4038    5.0092 C   0  0  0  0  0  0  0  0  0  0  0  0
    2.7940    3.8698    7.3986 C   0  0  0  0  0  0  0  0  0  0  0  0
    2.5385    3.1883    8.5661 C   0  0  0  0  0  0  0  0  0  0  0  0
    1.9177    1.8663    8.6703 C   0  0  0  0  0  0  0  0  0  0  0  0
    1.5424    1.1398    7.7684 O   0  0  0  0  0  0  0  0  0  0  0  0
    1.8303    1.5710   10.1168 C   0  0  0  0  0  0  0  0  0  0  0  0
    1.3125    0.4502   10.7319 C   0  0  0  0  0  0  0  0  0  0  0  0
    1.3323    0.3934   12.1205 C   0  0  0  0  0  0  0  0  0  0  0  0
    0.7010   -0.9731   12.9529 Cl  0  0  0  0  0  0  0  0  0  0  0  0
    1.8710    1.4614   12.8404 C   0  0  0  0  0  0  0  0  0  0  0  0
    1.8865    1.4014   14.1777 F   0  0  0  0  0  0  0  0  0  0  0  0
    2.3935    2.5902   12.2272 C   0  0  0  0  0  0  0  0  0  0  0  0
    2.3720    2.6451   10.8427 C   0  0  0  0  0  0  0  0  0  0  0  0
    2.8261    3.6697    9.9019 C   0  0  0  0  0  0  0  0  0  0  0  0
    3.4082    4.8593   10.2587 C   0  0  0  0  0  0  0  0  0  0  0  0
    3.6506    5.2502   11.5926 C   0  0  0  0  0  0  0  0  0  0  0  0
    3.8748    5.6307   12.6521 N   0  0  0  0  0  0  0  0  0  0  0  0
    3.8488    5.8656    9.3739 C   0  0  0  0  0  0  0  0  0  0  0  0
    4.2329    6.7360    8.7296 N   0  0  0  0  0  0  0  0  0  0  0  0
   -2.3644   -0.2735   -8.5571 H   0  0  0  0  0  0  0  0  0  0  0  0
   -6.2873   -5.0306   -7.4744 H   0  0  0  0  0  0  0  0  0  0  0  0
   -8.1797   -6.3688   -8.4084 H   0  0  0  0  0  0  0  0  0  0  0  0
   -7.5981   -4.1444  -12.7990 H   0  0  0  0  0  0  0  0  0  0  0  0
   -5.7455   -2.8316  -11.9162 H   0  0  0  0  0  0  0  0  0  0  0  0
    1.7345    3.8141   -0.3942 H   0  0  0  0  0  0  0  0  0  0  0  0
    4.1761    2.5421    1.0397 H   0  0  0  0  0  0  0  0  0  0  0  0
    6.5686    2.7627    0.5707 H   0  0  0  0  0  0  0  0  0  0  0  0
    8.6997    5.4515    1.9028 H   0  0  0  0  0  0  0  0  0  0  0  0
    8.6886    3.8704    1.1084 H   0  0  0  0  0  0  0  0  0  0  0  0
    7.9184    6.5173   -0.2147 H   0  0  0  0  0  0  0  0  0  0  0  0
    9.4363    5.6476   -0.4621 H   0  0  0  0  0  0  0  0  0  0  0  0
    7.9109    4.9417   -1.0070 H   0  0  0  0  0  0  0  0  0  0  0  0
    6.5897    6.6006    2.4282 H   0  0  0  0  0  0  0  0  0  0  0  0
    4.1903    6.3908    2.8872 H   0  0  0  0  0  0  0  0  0  0  0  0
    2.8844    6.0191    0.2460 H   0  0  0  0  0  0  0  0  0  0  0  0
    1.6175    8.0404   -0.3119 H   0  0  0  0  0  0  0  0  0  0  0  0
    0.1809    9.8628    0.5099 H   0  0  0  0  0  0  0  0  0  0  0  0
   -0.8253    9.6330    1.9472 H   0  0  0  0  0  0  0  0  0  0  0  0
   -1.2918    8.3050   -0.7675 H   0  0  0  0  0  0  0  0  0  0  0  0
   -2.2943    8.0746    0.6647 H   0  0  0  0  0  0  0  0  0  0  0  0
   -2.2164    9.6602   -0.1114 H   0  0  0  0  0  0  0  0  0  0  0  0
   -0.7646    7.5164    3.1854 H   0  0  0  0  0  0  0  0  0  0  0  0
    0.4853    5.4854    3.7380 H   0  0  0  0  0  0  0  0  0  0  0  0
    0.6004    0.2466    2.9412 H   0  0  0  0  0  0  0  0  0  0  0  0
    2.4170   -0.5386   -0.1707 H   0  0  0  0  0  0  0  0  0  0  0  0
    3.7495   -2.5852   -0.3437 H   0  0  0  0  0  0  0  0  0  0  0  0
    2.3161   -5.9636   -0.5384 H   0  0  0  0  0  0  0  0  0  0  0  0
    3.7916   -5.0024   -0.7179 H   0  0  0  0  0  0  0  0  0  0  0  0
    2.4901   -5.7520    1.9456 H   0  0  0  0  0  0  0  0  0  0  0  0
    3.9687   -4.8090    1.7606 H   0  0  0  0  0  0  0  0  0  0  0  0
    3.9359   -6.5041    1.2629 H   0  0  0  0  0  0  0  0  0  0  0  0
    0.2468   -4.9223    0.3206 H   0  0  0  0  0  0  0  0  0  0  0  0
   -1.0861   -2.8876    0.4937 H   0  0  0  0  0  0  0  0  0  0  0  0
   -0.8484   -1.5474    2.5252 H   0  0  0  0  0  0  0  0  0  0  0  0
   -3.0061   -1.6833    3.6630 H   0  0  0  0  0  0  0  0  0  0  0  0
   -5.4769   -1.5546    3.4233 H   0  0  0  0  0  0  0  0  0  0  0  0
   -6.1932   -0.4848    2.2090 H   0  0  0  0  0  0  0  0  0  0  0  0
   -6.4108    0.4873    4.4868 H   0  0  0  0  0  0  0  0  0  0  0  0
   -4.6562    0.4335    4.6886 H   0  0  0  0  0  0  0  0  0  0  0  0
   -5.3702    1.5001    3.4799 H   0  0  0  0  0  0  0  0  0  0  0  0
   -4.7876    0.6613    0.5797 H   0  0  0  0  0  0  0  0  0  0  0  0
   -2.6367    0.8007   -0.5645 H   0  0  0  0  0  0  0  0  0  0  0  0
   -2.7537   -2.5566   -5.3679 H   0  0  0  0  0  0  0  0  0  0  0  0
   -0.4258   -3.8062   -3.2750 H   0  0  0  0  0  0  0  0  0  0  0  0
   -4.2176   -7.5847    0.7384 H   0  0  0  0  0  0  0  0  0  0  0  0
   -3.4173   -8.4778   -0.5643 H   0  0  0  0  0  0  0  0  0  0  0  0
   -1.2320   -8.2511    0.6022 H   0  0  0  0  0  0  0  0  0  0  0  0
   -2.0146   -7.3574    1.9104 H   0  0  0  0  0  0  0  0  0  0  0  0
   -2.4193   -9.0547    1.6335 H   0  0  0  0  0  0  0  0  0  0  0  0
   -4.3694   -5.0225    0.3782 H   0  0  0  0  0  0  0  0  0  0  0  0
    3.3060    5.3598    5.1782 H   0  0  0  0  0  0  0  0  0  0  0  0
    3.2601    4.8423    7.5012 H   0  0  0  0  0  0  0  0  0  0  0  0
    0.9031   -0.3583   10.1476 H   0  0  0  0  0  0  0  0  0  0  0  0
    2.7932    3.3778   12.8444 H   0  0  0  0  0  0  0  0  0  0  0  0
  1  2  2  0  0  0  0
  2  3  1  0  0  0  0
  3  4  2  0  0  0  0
  3  5  1  0  0  0  0
  5  6  2  0  0  0  0
  6  7  1  0  0  0  0
  7  8  2  0  0  0  0
  8  9  1  0  0  0  0
  9 10  1  0  0  0  0
  9 11  2  0  0  0  0
 11 12  1  0  0  0  0
 11 13  1  0  0  0  0
 13 14  2  0  0  0  0
 14 15  1  0  0  0  0
 15 16  2  0  0  0  0
 16 17  1  0  0  0  0
 17 18  2  0  0  0  0
 18 19  1  0  0  0  0
 19 20  3  0  0  0  0
 18 21  1  0  0  0  0
 21 22  3  0  0  0  0
  1 23  1  0  0  0  0
 23 24  1  0  0  0  0
 24 25  1  0  0  0  0
 25 26  1  0  0  0  0
 26 27  1  0  0  0  0
 27 28  1  0  0  0  0
 28 29  1  0  0  0  0
 29 30  2  0  0  0  0
 30 31  1  0  0  0  0
 31 32  1  0  0  0  0
 32 33  1  0  0  0  0
 33 34  2  0  0  0  0
 34 35  1  0  0  0  0
 35 36  2  0  0  0  0
 36 37  1  0  0  0  0
 37 38  1  0  0  0  0
 36 39  1  0  0  0  0
 39 40  2  0  0  0  0
 32 41  1  0  0  0  0
 41 42  2  0  0  0  0
 42 43  1  0  0  0  0
 43 44  2  0  0  0  0
 44 45  1  0  0  0  0
 45 46  1  0  0  0  0
 44 47  1  0  0  0  0
 47 48  2  0  0  0  0
 32 49  1  0  0  0  0
 49 50  2  0  0  0  0
 50 51  1  0  0  0  0
 51 52  1  0  0  0  0
 52 53  2  0  0  0  0
 53 54  1  0  0  0  0
 54 55  1  0  0  0  0
 55 56  2  0  0  0  0
 56 57  1  0  0  0  0
 57 58  2  0  0  0  0
 58 59  1  0  0  0  0
 59 60  1  0  0  0  0
 58 61  1  0  0  0  0
 61 62  2  0  0  0  0
 54 63  1  0  0  0  0
 63 64  2  0  0  0  0
 64 65  1  0  0  0  0
 65 66  2  0  0  0  0
 66 67  1  0  0  0  0
 67 68  1  0  0  0  0
 66 69  1  0  0  0  0
 69 70  2  0  0  0  0
 54 71  1  0  0  0  0
 71 72  1  0  0  0  0
 72 73  1  0  0  0  0
 73 74  1  0  0  0  0
 74 75  1  0  0  0  0
 73 76  1  0  0  0  0
 76 77  2  0  0  0  0
 77 78  1  0  0  0  0
 78 79  1  0  0  0  0
 79 80  1  0  0  0  0
 80 81  1  0  0  0  0
 81 82  1  0  0  0  0
 80 83  2  0  0  0  0
 83 84  1  0  0  0  0
 84 85  1  0  0  0  0
 50 86  1  0  0  0  0
 86 87  1  0  0  0  0
 87 88  2  0  0  0  0
 87 89  1  0  0  0  0
 89 90  2  0  0  0  0
 90 91  1  0  0  0  0
 91 92  2  0  0  0  0
 91 93  1  0  0  0  0
 93 94  2  0  0  0  0
 94 95  1  0  0  0  0
 95 96  1  0  0  0  0
 95 97  2  0  0  0  0
 97 98  1  0  0  0  0
 97 99  1  0  0  0  0
 99100  2  0  0  0  0
100101  1  0  0  0  0
101102  2  0  0  0  0
102103  1  0  0  0  0
103104  3  0  0  0  0
102105  1  0  0  0  0
105106  3  0  0  0  0
 17  2  1  0  0  0  0
 75 23  2  0  0  0  0
 85 76  1  0  0  0  0
101 90  1  0  0  0  0
 16  5  1  0  0  0  0
 74 25  2  0  0  0  0
 84 78  2  0  0  0  0
100 93  1  0  0  0  0
 14  7  1  0  0  0  0
 72 26  2  0  0  0  0
 71 28  2  0  0  0  0
 53 29  1  0  0  0  0
 62 55  1  0  0  0  0
 70 63  1  0  0  0  0
 51 31  2  0  0  0  0
 40 33  1  0  0  0  0
 48 41  1  0  0  0  0
 88 49  1  0  0  0  0
  1107  1  0  0  0  0
  6108  1  0  0  0  0
  8109  1  0  0  0  0
 13110  1  0  0  0  0
 15111  1  0  0  0  0
 30112  1  0  0  0  0
 34113  1  0  0  0  0
 35114  1  0  0  0  0
 37115  1  0  0  0  0
 37116  1  0  0  0  0
 38117  1  0  0  0  0
 38118  1  0  0  0  0
 38119  1  0  0  0  0
 39120  1  0  0  0  0
 40121  1  0  0  0  0
 42122  1  0  0  0  0
 43123  1  0  0  0  0
 45124  1  0  0  0  0
 45125  1  0  0  0  0
 46126  1  0  0  0  0
 46127  1  0  0  0  0
 46128  1  0  0  0  0
 47129  1  0  0  0  0
 48130  1  0  0  0  0
 52131  1  0  0  0  0
 56132  1  0  0  0  0
 57133  1  0  0  0  0
 59134  1  0  0  0  0
 59135  1  0  0  0  0
 60136  1  0  0  0  0
 60137  1  0  0  0  0
 60138  1  0  0  0  0
 61139  1  0  0  0  0
 62140  1  0  0  0  0
 64141  1  0  0  0  0
 65142  1  0  0  0  0
 67143  1  0  0  0  0
 67144  1  0  0  0  0
 68145  1  0  0  0  0
 68146  1  0  0  0  0
 68147  1  0  0  0  0
 69148  1  0  0  0  0
 70149  1  0  0  0  0
 75150  1  0  0  0  0
 77151  1  0  0  0  0
 81152  1  0  0  0  0
 81153  1  0  0  0  0
 82154  1  0  0  0  0
 82155  1  0  0  0  0
 82156  1  0  0  0  0
 83157  1  0  0  0  0
 88158  1  0  0  0  0
 89159  1  0  0  0  0
 94160  1  0  0  0  0
 99161  1  0  0  0  0
M  END
