
  xtb     02012223273D
 energy: -260.894380833088 gnorm: 0.000398227388 xtb: 6.4.1 (unknown)
154170  0     0  0            999 V2000
   -3.2563   -0.5165    8.2751 C   0  0  0  0  0  0  0  0  0  0  0  0
   -3.9993    0.3453    9.0477 C   0  0  0  0  0  0  0  0  0  0  0  0
   -4.5291    1.6717    8.6769 C   0  0  0  0  0  0  0  0  0  0  0  0
   -4.6295    2.1807    7.5769 O   0  0  0  0  0  0  0  0  0  0  0  0
   -4.9027    2.3213    9.9509 C   0  0  0  0  0  0  0  0  0  0  0  0
   -5.3636    3.5899   10.1513 C   0  0  0  0  0  0  0  0  0  0  0  0
   -5.6340    4.0207   11.4694 C   0  0  0  0  0  0  0  0  0  0  0  0
   -6.1036    5.3215   11.7346 C   0  0  0  0  0  0  0  0  0  0  0  0
   -6.3468    5.7163   13.0202 C   0  0  0  0  0  0  0  0  0  0  0  0
   -6.7917    6.9565   13.2706 F   0  0  0  0  0  0  0  0  0  0  0  0
   -6.1328    4.8297   14.0938 C   0  0  0  0  0  0  0  0  0  0  0  0
   -6.3782    5.2450   15.3445 F   0  0  0  0  0  0  0  0  0  0  0  0
   -5.6796    3.5603   13.8678 C   0  0  0  0  0  0  0  0  0  0  0  0
   -5.4193    3.1221   12.5539 C   0  0  0  0  0  0  0  0  0  0  0  0
   -4.9489    1.8106   12.3118 C   0  0  0  0  0  0  0  0  0  0  0  0
   -4.6961    1.4148   11.0255 C   0  0  0  0  0  0  0  0  0  0  0  0
   -4.2064    0.1562   10.4707 C   0  0  0  0  0  0  0  0  0  0  0  0
   -4.0564   -1.0105   11.1762 C   0  0  0  0  0  0  0  0  0  0  0  0
   -3.7006   -2.2600   10.6262 C   0  0  0  0  0  0  0  0  0  0  0  0
   -3.4465   -3.3168   10.2546 N   0  0  0  0  0  0  0  0  0  0  0  0
   -4.2948   -1.1260   12.5611 C   0  0  0  0  0  0  0  0  0  0  0  0
   -4.4694   -1.2812   13.6854 N   0  0  0  0  0  0  0  0  0  0  0  0
   -2.9704   -0.4969    6.9039 C   0  0  0  0  0  0  0  0  0  0  0  0
   -1.6571   -1.5654    6.3635 S   0  0  0  0  0  0  0  0  0  0  0  0
   -1.8367   -0.9930    4.7571 C   0  0  0  0  0  0  0  0  0  0  0  0
   -1.2862   -1.1077    3.4872 C   0  0  0  0  0  0  0  0  0  0  0  0
    0.0072   -1.9347    2.6836 S   0  0  0  0  0  0  0  0  0  0  0  0
   -0.4230   -1.1016    1.2289 C   0  0  0  0  0  0  0  0  0  0  0  0
    0.1374   -1.0694   -0.0837 C   0  0  0  0  0  0  0  0  0  0  0  0
    1.2431   -1.7269   -0.6155 C   0  0  0  0  0  0  0  0  0  0  0  0
    1.5766   -1.4394   -1.9179 C   0  0  0  0  0  0  0  0  0  0  0  0
    2.7445   -1.9725   -2.7284 C   0  0  0  0  0  0  0  0  0  0  0  0
    2.5813   -3.4254   -3.1474 C   0  0  0  0  0  0  0  0  0  0  0  0
    3.6611   -4.0833   -3.7242 C   0  0  0  0  0  0  0  0  0  0  0  0
    3.5306   -5.3825   -4.1738 C   0  0  0  0  0  0  0  0  0  0  0  0
    2.3200   -6.0560   -4.0656 C   0  0  0  0  0  0  0  0  0  0  0  0
    2.1933   -7.4826   -4.5154 C   0  0  0  0  0  0  0  0  0  0  0  0
    2.5751   -8.4364   -3.3815 C   0  0  0  0  0  0  0  0  0  0  0  0
    1.2446   -5.3915   -3.4928 C   0  0  0  0  0  0  0  0  0  0  0  0
    1.3677   -4.0885   -3.0440 C   0  0  0  0  0  0  0  0  0  0  0  0
    4.0335   -1.7528   -1.9628 C   0  0  0  0  0  0  0  0  0  0  0  0
    4.7821   -0.5968   -2.1287 C   0  0  0  0  0  0  0  0  0  0  0  0
    5.9391   -0.4005   -1.3969 C   0  0  0  0  0  0  0  0  0  0  0  0
    6.3683   -1.3429   -0.4728 C   0  0  0  0  0  0  0  0  0  0  0  0
    7.6501   -1.1522    0.2846 C   0  0  0  0  0  0  0  0  0  0  0  0
    8.8176   -1.7812   -0.4789 C   0  0  0  0  0  0  0  0  0  0  0  0
    5.6070   -2.4921   -0.3006 C   0  0  0  0  0  0  0  0  0  0  0  0
    4.4542   -2.6963   -1.0337 C   0  0  0  0  0  0  0  0  0  0  0  0
    2.6157   -1.1480   -3.9807 C   0  0  0  0  0  0  0  0  0  0  0  0
    1.4796   -0.3550   -3.9279 C   0  0  0  0  0  0  0  0  0  0  0  0
    0.8248   -0.5033   -2.6668 C   0  0  0  0  0  0  0  0  0  0  0  0
   -0.3018    0.1276   -2.1439 C   0  0  0  0  0  0  0  0  0  0  0  0
   -0.6390   -0.1658   -0.8446 C   0  0  0  0  0  0  0  0  0  0  0  0
   -1.7819    0.4049   -0.0094 C   0  0  0  0  0  0  0  0  0  0  0  0
   -3.1247   -0.1160   -0.5053 C   0  0  0  0  0  0  0  0  0  0  0  0
   -3.2251   -1.4552   -0.8684 C   0  0  0  0  0  0  0  0  0  0  0  0
   -4.4322   -1.9920   -1.2695 C   0  0  0  0  0  0  0  0  0  0  0  0
   -5.5806   -1.2112   -1.3158 C   0  0  0  0  0  0  0  0  0  0  0  0
   -6.9012   -1.8087   -1.7049 C   0  0  0  0  0  0  0  0  0  0  0  0
   -7.6001   -2.4026   -0.4800 C   0  0  0  0  0  0  0  0  0  0  0  0
   -5.4802    0.1217   -0.9453 C   0  0  0  0  0  0  0  0  0  0  0  0
   -4.2716    0.6648   -0.5446 C   0  0  0  0  0  0  0  0  0  0  0  0
   -1.6386    1.9122   -0.0096 C   0  0  0  0  0  0  0  0  0  0  0  0
   -0.9850    2.5657    1.0263 C   0  0  0  0  0  0  0  0  0  0  0  0
   -0.8021    3.9367    0.9928 C   0  0  0  0  0  0  0  0  0  0  0  0
   -1.2592    4.6926   -0.0772 C   0  0  0  0  0  0  0  0  0  0  0  0
   -1.0244    6.1738   -0.1339 C   0  0  0  0  0  0  0  0  0  0  0  0
    0.2854    6.4777   -0.8642 C   0  0  0  0  0  0  0  0  0  0  0  0
   -1.8897    4.0330   -1.1246 C   0  0  0  0  0  0  0  0  0  0  0  0
   -2.0722    2.6639   -1.0967 C   0  0  0  0  0  0  0  0  0  0  0  0
   -1.5062   -0.2418    1.3316 C   0  0  0  0  0  0  0  0  0  0  0  0
   -2.0211   -0.2370    2.6332 C   0  0  0  0  0  0  0  0  0  0  0  0
   -3.0036    0.3824    3.3545 N   0  0  0  0  0  0  0  0  0  0  0  0
   -2.8965   -0.0514    4.6507 C   0  0  0  0  0  0  0  0  0  0  0  0
   -3.5309    0.2187    5.8520 C   0  0  0  0  0  0  0  0  0  0  0  0
   -3.9623    1.3598    2.9030 C   0  0  0  0  0  0  0  0  0  0  0  0
   -3.6250    2.7643    3.3963 C   0  0  0  0  0  0  0  0  0  0  0  0
    1.2207    0.6117   -5.3384 S   0  0  0  0  0  0  0  0  0  0  0  0
    2.6802   -0.0428   -6.0304 C   0  0  0  0  0  0  0  0  0  0  0  0
    3.3575    0.1925   -7.2144 C   0  0  0  0  0  0  0  0  0  0  0  0
    4.5233   -0.5575   -7.3048 C   0  0  0  0  0  0  0  0  0  0  0  0
    4.7469   -1.5880   -5.8782 S   0  0  0  0  0  0  0  0  0  0  0  0
    3.3024   -0.9836   -5.1786 C   0  0  0  0  0  0  0  0  0  0  0  0
    5.5336   -0.6441   -8.2751 C   0  0  0  0  0  0  0  0  0  0  0  0
    5.7456    0.0396   -9.4466 C   0  0  0  0  0  0  0  0  0  0  0  0
    4.9515    1.1412  -10.0261 C   0  0  0  0  0  0  0  0  0  0  0  0
    3.9015    1.6170   -9.6458 O   0  0  0  0  0  0  0  0  0  0  0  0
    5.7052    1.5917  -11.2172 C   0  0  0  0  0  0  0  0  0  0  0  0
    5.3893    2.6209  -12.0793 C   0  0  0  0  0  0  0  0  0  0  0  0
    6.2654    2.8618  -13.1284 C   0  0  0  0  0  0  0  0  0  0  0  0
    5.8892    4.2674  -14.3501 Br  0  0  0  0  0  0  0  0  0  0  0  0
    7.4136    2.1013  -13.3054 C   0  0  0  0  0  0  0  0  0  0  0  0
    7.7187    1.0670  -12.4336 C   0  0  0  0  0  0  0  0  0  0  0  0
    6.8568    0.8051  -11.3776 C   0  0  0  0  0  0  0  0  0  0  0  0
    6.8927   -0.1923  -10.3097 C   0  0  0  0  0  0  0  0  0  0  0  0
    7.8436   -1.1740  -10.1968 C   0  0  0  0  0  0  0  0  0  0  0  0
    8.9291   -1.3270  -11.0860 C   0  0  0  0  0  0  0  0  0  0  0  0
    9.8366   -1.5113  -11.7646 N   0  0  0  0  0  0  0  0  0  0  0  0
    7.8988   -2.1885   -9.2171 C   0  0  0  0  0  0  0  0  0  0  0  0
    8.0292   -3.0570   -8.4762 N   0  0  0  0  0  0  0  0  0  0  0  0
   -2.7551   -1.3174    8.8069 H   0  0  0  0  0  0  0  0  0  0  0  0
   -5.5147    4.2574    9.3165 H   0  0  0  0  0  0  0  0  0  0  0  0
   -6.2716    6.0127   10.9235 H   0  0  0  0  0  0  0  0  0  0  0  0
   -5.5223    2.8934   14.7011 H   0  0  0  0  0  0  0  0  0  0  0  0
   -4.7920    1.1561   13.1537 H   0  0  0  0  0  0  0  0  0  0  0  0
    1.8150   -2.4184   -0.0167 H   0  0  0  0  0  0  0  0  0  0  0  0
    4.6098   -3.5746   -3.8169 H   0  0  0  0  0  0  0  0  0  0  0  0
    4.3800   -5.8780   -4.6210 H   0  0  0  0  0  0  0  0  0  0  0  0
    2.8491   -7.6599   -5.3700 H   0  0  0  0  0  0  0  0  0  0  0  0
    1.1657   -7.6840   -4.8245 H   0  0  0  0  0  0  0  0  0  0  0  0
    3.6017   -8.2602   -3.0687 H   0  0  0  0  0  0  0  0  0  0  0  0
    2.4836   -9.4698   -3.7072 H   0  0  0  0  0  0  0  0  0  0  0  0
    1.9247   -8.2836   -2.5231 H   0  0  0  0  0  0  0  0  0  0  0  0
    0.2931   -5.8959   -3.4016 H   0  0  0  0  0  0  0  0  0  0  0  0
    0.5127   -3.5891   -2.6120 H   0  0  0  0  0  0  0  0  0  0  0  0
    4.4639    0.1577   -2.8337 H   0  0  0  0  0  0  0  0  0  0  0  0
    6.5148    0.5020   -1.5452 H   0  0  0  0  0  0  0  0  0  0  0  0
    7.5714   -1.6183    1.2689 H   0  0  0  0  0  0  0  0  0  0  0  0
    7.8435   -0.0868    0.4249 H   0  0  0  0  0  0  0  0  0  0  0  0
    8.9190   -1.3225   -1.4599 H   0  0  0  0  0  0  0  0  0  0  0  0
    9.7477   -1.6434    0.0674 H   0  0  0  0  0  0  0  0  0  0  0  0
    8.6494   -2.8469   -0.6162 H   0  0  0  0  0  0  0  0  0  0  0  0
    5.9208   -3.2368    0.4169 H   0  0  0  0  0  0  0  0  0  0  0  0
    3.8825   -3.6024   -0.8937 H   0  0  0  0  0  0  0  0  0  0  0  0
   -0.8613    0.8283   -2.7427 H   0  0  0  0  0  0  0  0  0  0  0  0
   -2.3475   -2.0845   -0.8371 H   0  0  0  0  0  0  0  0  0  0  0  0
   -4.4839   -3.0337   -1.5517 H   0  0  0  0  0  0  0  0  0  0  0  0
   -7.5398   -1.0416   -2.1470 H   0  0  0  0  0  0  0  0  0  0  0  0
   -6.7468   -2.5949   -2.4465 H   0  0  0  0  0  0  0  0  0  0  0  0
   -7.7786   -1.6309    0.2657 H   0  0  0  0  0  0  0  0  0  0  0  0
   -6.9829   -3.1768   -0.0297 H   0  0  0  0  0  0  0  0  0  0  0  0
   -8.5547   -2.8399   -0.7624 H   0  0  0  0  0  0  0  0  0  0  0  0
   -6.3585    0.7508   -0.9712 H   0  0  0  0  0  0  0  0  0  0  0  0
   -4.2334    1.7115   -0.2790 H   0  0  0  0  0  0  0  0  0  0  0  0
   -0.6053    2.0009    1.8656 H   0  0  0  0  0  0  0  0  0  0  0  0
   -0.2943    4.4252    1.8126 H   0  0  0  0  0  0  0  0  0  0  0  0
   -0.9755    6.5807    0.8780 H   0  0  0  0  0  0  0  0  0  0  0  0
   -1.8494    6.6597   -0.6588 H   0  0  0  0  0  0  0  0  0  0  0  0
    0.2511    6.0912   -1.8803 H   0  0  0  0  0  0  0  0  0  0  0  0
    1.1224    6.0110   -0.3496 H   0  0  0  0  0  0  0  0  0  0  0  0
    0.4571    7.5505   -0.9059 H   0  0  0  0  0  0  0  0  0  0  0  0
   -2.2418    4.5987   -1.9753 H   0  0  0  0  0  0  0  0  0  0  0  0
   -2.5640    2.1784   -1.9268 H   0  0  0  0  0  0  0  0  0  0  0  0
   -4.3486    0.8993    5.9911 H   0  0  0  0  0  0  0  0  0  0  0  0
   -4.9496    1.0653    3.2737 H   0  0  0  0  0  0  0  0  0  0  0  0
   -3.9761    1.3312    1.8140 H   0  0  0  0  0  0  0  0  0  0  0  0
   -4.3865    3.4607    3.0564 H   0  0  0  0  0  0  0  0  0  0  0  0
   -3.5905    2.7910    4.4824 H   0  0  0  0  0  0  0  0  0  0  0  0
   -2.6636    3.0843    3.0027 H   0  0  0  0  0  0  0  0  0  0  0  0
    3.0431    0.8762   -7.9810 H   0  0  0  0  0  0  0  0  0  0  0  0
    6.2900   -1.3766   -8.0190 H   0  0  0  0  0  0  0  0  0  0  0  0
    4.4961    3.2084  -11.9335 H   0  0  0  0  0  0  0  0  0  0  0  0
    8.0748    2.3183  -14.1303 H   0  0  0  0  0  0  0  0  0  0  0  0
    8.6163    0.4930  -12.5917 H   0  0  0  0  0  0  0  0  0  0  0  0
  1  2  2  0  0  0  0
  2  3  1  0  0  0  0
  3  4  2  0  0  0  0
  3  5  1  0  0  0  0
  5  6  2  0  0  0  0
  6  7  1  0  0  0  0
  7  8  2  0  0  0  0
  8  9  1  0  0  0  0
  9 10  1  0  0  0  0
  9 11  2  0  0  0  0
 11 12  1  0  0  0  0
 11 13  1  0  0  0  0
 13 14  2  0  0  0  0
 14 15  1  0  0  0  0
 15 16  2  0  0  0  0
 16 17  1  0  0  0  0
 17 18  2  0  0  0  0
 18 19  1  0  0  0  0
 19 20  3  0  0  0  0
 18 21  1  0  0  0  0
 21 22  3  0  0  0  0
  1 23  1  0  0  0  0
 23 24  1  0  0  0  0
 24 25  1  0  0  0  0
 25 26  1  0  0  0  0
 26 27  1  0  0  0  0
 27 28  1  0  0  0  0
 28 29  1  0  0  0  0
 29 30  2  0  0  0  0
 30 31  1  0  0  0  0
 31 32  1  0  0  0  0
 32 33  1  0  0  0  0
 33 34  2  0  0  0  0
 34 35  1  0  0  0  0
 35 36  2  0  0  0  0
 36 37  1  0  0  0  0
 37 38  1  0  0  0  0
 36 39  1  0  0  0  0
 39 40  2  0  0  0  0
 32 41  1  0  0  0  0
 41 42  2  0  0  0  0
 42 43  1  0  0  0  0
 43 44  2  0  0  0  0
 44 45  1  0  0  0  0
 45 46  1  0  0  0  0
 44 47  1  0  0  0  0
 47 48  2  0  0  0  0
 32 49  1  0  0  0  0
 49 50  2  0  0  0  0
 50 51  1  0  0  0  0
 51 52  1  0  0  0  0
 52 53  2  0  0  0  0
 53 54  1  0  0  0  0
 54 55  1  0  0  0  0
 55 56  2  0  0  0  0
 56 57  1  0  0  0  0
 57 58  2  0  0  0  0
 58 59  1  0  0  0  0
 59 60  1  0  0  0  0
 58 61  1  0  0  0  0
 61 62  2  0  0  0  0
 54 63  1  0  0  0  0
 63 64  2  0  0  0  0
 64 65  1  0  0  0  0
 65 66  2  0  0  0  0
 66 67  1  0  0  0  0
 67 68  1  0  0  0  0
 66 69  1  0  0  0  0
 69 70  2  0  0  0  0
 54 71  1  0  0  0  0
 71 72  1  0  0  0  0
 72 73  1  0  0  0  0
 73 74  1  0  0  0  0
 74 75  1  0  0  0  0
 73 76  1  0  0  0  0
 76 77  1  0  0  0  0
 50 78  1  0  0  0  0
 78 79  1  0  0  0  0
 79 80  1  0  0  0  0
 80 81  2  0  0  0  0
 81 82  1  0  0  0  0
 82 83  1  0  0  0  0
 81 84  1  0  0  0  0
 84 85  2  0  0  0  0
 85 86  1  0  0  0  0
 86 87  2  0  0  0  0
 86 88  1  0  0  0  0
 88 89  2  0  0  0  0
 89 90  1  0  0  0  0
 90 91  1  0  0  0  0
 90 92  2  0  0  0  0
 92 93  1  0  0  0  0
 93 94  2  0  0  0  0
 94 95  1  0  0  0  0
 95 96  2  0  0  0  0
 96 97  1  0  0  0  0
 97 98  3  0  0  0  0
 96 99  1  0  0  0  0
 99100  3  0  0  0  0
 17  2  1  0  0  0  0
 75 23  2  0  0  0  0
 83 79  2  0  0  0  0
 95 85  1  0  0  0  0
 16  5  1  0  0  0  0
 74 25  2  0  0  0  0
 94 88  1  0  0  0  0
 14  7  1  0  0  0  0
 72 26  2  0  0  0  0
 71 28  2  0  0  0  0
 53 29  1  0  0  0  0
 62 55  1  0  0  0  0
 70 63  1  0  0  0  0
 51 31  2  0  0  0  0
 40 33  1  0  0  0  0
 48 41  1  0  0  0  0
 83 49  1  0  0  0  0
  1101  1  0  0  0  0
  6102  1  0  0  0  0
  8103  1  0  0  0  0
 13104  1  0  0  0  0
 15105  1  0  0  0  0
 30106  1  0  0  0  0
 34107  1  0  0  0  0
 35108  1  0  0  0  0
 37109  1  0  0  0  0
 37110  1  0  0  0  0
 38111  1  0  0  0  0
 38112  1  0  0  0  0
 38113  1  0  0  0  0
 39114  1  0  0  0  0
 40115  1  0  0  0  0
 42116  1  0  0  0  0
 43117  1  0  0  0  0
 45118  1  0  0  0  0
 45119  1  0  0  0  0
 46120  1  0  0  0  0
 46121  1  0  0  0  0
 46122  1  0  0  0  0
 47123  1  0  0  0  0
 48124  1  0  0  0  0
 52125  1  0  0  0  0
 56126  1  0  0  0  0
 57127  1  0  0  0  0
 59128  1  0  0  0  0
 59129  1  0  0  0  0
 60130  1  0  0  0  0
 60131  1  0  0  0  0
 60132  1  0  0  0  0
 61133  1  0  0  0  0
 62134  1  0  0  0  0
 64135  1  0  0  0  0
 65136  1  0  0  0  0
 67137  1  0  0  0  0
 67138  1  0  0  0  0
 68139  1  0  0  0  0
 68140  1  0  0  0  0
 68141  1  0  0  0  0
 69142  1  0  0  0  0
 70143  1  0  0  0  0
 75144  1  0  0  0  0
 76145  1  0  0  0  0
 76146  1  0  0  0  0
 77147  1  0  0  0  0
 77148  1  0  0  0  0
 77149  1  0  0  0  0
 80150  1  0  0  0  0
 84151  1  0  0  0  0
 89152  1  0  0  0  0
 92153  1  0  0  0  0
 93154  1  0  0  0  0
M  END
