
  xtb     02012220023D
 energy: -247.667673156744 gnorm: 0.000516896091 xtb: 6.4.1 (unknown)
132147  0     0  0            999 V2000
    6.0577   -4.1163   -3.7042 C   0  0  0  0  0  0  0  0  0  0  0  0
    6.3474   -4.1626   -5.0458 C   0  0  0  0  0  0  0  0  0  0  0  0
    5.5490   -3.5580   -6.1176 C   0  0  0  0  0  0  0  0  0  0  0  0
    4.4604   -3.0183   -6.0268 O   0  0  0  0  0  0  0  0  0  0  0  0
    6.3319   -3.7210   -7.3553 C   0  0  0  0  0  0  0  0  0  0  0  0
    6.0346   -3.2884   -8.6148 C   0  0  0  0  0  0  0  0  0  0  0  0
    6.9440   -3.5553   -9.6624 C   0  0  0  0  0  0  0  0  0  0  0  0
    6.6907   -3.1304  -10.9808 C   0  0  0  0  0  0  0  0  0  0  0  0
    7.5878   -3.4024  -11.9755 C   0  0  0  0  0  0  0  0  0  0  0  0
    7.3456   -2.9963  -13.2295 F   0  0  0  0  0  0  0  0  0  0  0  0
    8.7741   -4.1095  -11.6959 C   0  0  0  0  0  0  0  0  0  0  0  0
    9.6348   -4.3622  -12.6908 F   0  0  0  0  0  0  0  0  0  0  0  0
    9.0479   -4.5342  -10.4259 C   0  0  0  0  0  0  0  0  0  0  0  0
    8.1438   -4.2693   -9.3778 C   0  0  0  0  0  0  0  0  0  0  0  0
    8.4220   -4.7038   -8.0610 C   0  0  0  0  0  0  0  0  0  0  0  0
    7.5276   -4.4327   -7.0597 C   0  0  0  0  0  0  0  0  0  0  0  0
    7.5430   -4.7394   -5.6302 C   0  0  0  0  0  0  0  0  0  0  0  0
    8.5165   -5.4648   -4.9926 C   0  0  0  0  0  0  0  0  0  0  0  0
    8.5328   -5.8019   -3.6230 C   0  0  0  0  0  0  0  0  0  0  0  0
    8.6216   -6.1247   -2.5241 N   0  0  0  0  0  0  0  0  0  0  0  0
    9.6531   -5.9969   -5.6371 C   0  0  0  0  0  0  0  0  0  0  0  0
   10.6006   -6.4526   -6.0979 N   0  0  0  0  0  0  0  0  0  0  0  0
    4.9603   -3.5641   -3.0297 C   0  0  0  0  0  0  0  0  0  0  0  0
    4.9107   -3.5037   -1.6326 C   0  0  0  0  0  0  0  0  0  0  0  0
    3.7651   -2.8851   -1.1762 C   0  0  0  0  0  0  0  0  0  0  0  0
    3.1769   -2.4291    0.4021 S   0  0  0  0  0  0  0  0  0  0  0  0
    1.7970   -1.7015   -0.3468 C   0  0  0  0  0  0  0  0  0  0  0  0
    0.6879   -0.9175    0.1010 C   0  0  0  0  0  0  0  0  0  0  0  0
    0.3260   -0.4849    1.3744 C   0  0  0  0  0  0  0  0  0  0  0  0
   -0.7838    0.3197    1.4697 C   0  0  0  0  0  0  0  0  0  0  0  0
   -1.3497    0.9862    2.7137 C   0  0  0  0  0  0  0  0  0  0  0  0
   -1.8317    0.0389    3.7711 C   0  0  0  0  0  0  0  0  0  0  0  0
   -2.2372   -1.2519    3.6466 C   0  0  0  0  0  0  0  0  0  0  0  0
   -2.7981   -1.7620    4.8405 C   0  0  0  0  0  0  0  0  0  0  0  0
   -2.8292   -0.8570    5.8545 C   0  0  0  0  0  0  0  0  0  0  0  0
   -3.3981   -0.9932    7.2241 C   0  0  0  0  0  0  0  0  0  0  0  0
   -4.6393   -0.1132    7.3905 C   0  0  0  0  0  0  0  0  0  0  0  0
   -2.1387    0.6542    5.3629 S   0  0  0  0  0  0  0  0  0  0  0  0
   -0.3303    1.9435    3.2636 C   0  0  0  0  0  0  0  0  0  0  0  0
    0.7005    1.6712    4.1058 C   0  0  0  0  0  0  0  0  0  0  0  0
    1.4902    2.8080    4.3884 C   0  0  0  0  0  0  0  0  0  0  0  0
    1.0694    3.9328    3.7535 C   0  0  0  0  0  0  0  0  0  0  0  0
    1.6165    5.3149    3.8498 C   0  0  0  0  0  0  0  0  0  0  0  0
    0.7230    6.2004    4.7211 C   0  0  0  0  0  0  0  0  0  0  0  0
   -0.3328    3.6082    2.7838 S   0  0  0  0  0  0  0  0  0  0  0  0
   -2.5350    1.7105    2.1320 C   0  0  0  0  0  0  0  0  0  0  0  0
   -2.5925    1.5328    0.7600 C   0  0  0  0  0  0  0  0  0  0  0  0
   -1.5240    0.6904    0.3209 C   0  0  0  0  0  0  0  0  0  0  0  0
   -1.1700    0.2466   -0.9512 C   0  0  0  0  0  0  0  0  0  0  0  0
   -0.0552   -0.5503   -1.0469 C   0  0  0  0  0  0  0  0  0  0  0  0
    0.5416   -1.1775   -2.2971 C   0  0  0  0  0  0  0  0  0  0  0  0
    0.9462   -0.1944   -3.3525 C   0  0  0  0  0  0  0  0  0  0  0  0
    1.2587    1.1214   -3.2192 C   0  0  0  0  0  0  0  0  0  0  0  0
    1.7612    1.6849   -4.4146 C   0  0  0  0  0  0  0  0  0  0  0  0
    1.8397    0.7962   -5.4400 C   0  0  0  0  0  0  0  0  0  0  0  0
    2.3838    0.9892   -6.8129 C   0  0  0  0  0  0  0  0  0  0  0  0
    3.7451    0.3038   -6.9571 C   0  0  0  0  0  0  0  0  0  0  0  0
    1.2700   -0.7672   -4.9561 S   0  0  0  0  0  0  0  0  0  0  0  0
   -0.4226   -2.1987   -2.8335 C   0  0  0  0  0  0  0  0  0  0  0  0
   -1.4840   -1.9962   -3.6571 C   0  0  0  0  0  0  0  0  0  0  0  0
   -2.2083   -3.1814   -3.9161 C   0  0  0  0  0  0  0  0  0  0  0  0
   -1.7035   -4.2748   -3.2875 C   0  0  0  0  0  0  0  0  0  0  0  0
   -2.2135   -5.6745   -3.2979 C   0  0  0  0  0  0  0  0  0  0  0  0
   -2.8814   -6.0341   -1.9691 C   0  0  0  0  0  0  0  0  0  0  0  0
   -0.3067   -3.8570   -2.3461 S   0  0  0  0  0  0  0  0  0  0  0  0
    1.7699   -1.8354   -1.7244 C   0  0  0  0  0  0  0  0  0  0  0  0
    2.8942   -2.4908   -2.2169 C   0  0  0  0  0  0  0  0  0  0  0  0
    3.5296   -2.8545   -3.7706 S   0  0  0  0  0  0  0  0  0  0  0  0
   -3.9279    2.3320    0.0036 S   0  0  0  0  0  0  0  0  0  0  0  0
   -4.4503    2.8962    1.5711 C   0  0  0  0  0  0  0  0  0  0  0  0
   -5.5188    3.6425    2.0177 C   0  0  0  0  0  0  0  0  0  0  0  0
   -5.5228    3.7833    3.4126 C   0  0  0  0  0  0  0  0  0  0  0  0
   -4.1521    2.9657    4.1593 S   0  0  0  0  0  0  0  0  0  0  0  0
   -3.5949    2.4698    2.6145 C   0  0  0  0  0  0  0  0  0  0  0  0
   -6.5182    4.5066    4.0766 C   0  0  0  0  0  0  0  0  0  0  0  0
   -6.7354    4.7046    5.4217 C   0  0  0  0  0  0  0  0  0  0  0  0
   -5.9680    4.0924    6.5094 C   0  0  0  0  0  0  0  0  0  0  0  0
   -4.9922    3.3743    6.4276 O   0  0  0  0  0  0  0  0  0  0  0  0
   -6.6365    4.5196    7.7606 C   0  0  0  0  0  0  0  0  0  0  0  0
   -7.7194    5.3607    7.4510 C   0  0  0  0  0  0  0  0  0  0  0  0
   -8.5002    5.8975    8.4604 C   0  0  0  0  0  0  0  0  0  0  0  0
   -8.1801    5.5802    9.7732 C   0  0  0  0  0  0  0  0  0  0  0  0
   -8.9203    6.0875   10.7614 F   0  0  0  0  0  0  0  0  0  0  0  0
   -7.1114    4.7466   10.0951 C   0  0  0  0  0  0  0  0  0  0  0  0
   -6.8377    4.4647   11.3715 F   0  0  0  0  0  0  0  0  0  0  0  0
   -6.3284    4.2072    9.0723 C   0  0  0  0  0  0  0  0  0  0  0  0
   -5.3111    3.4077    9.3785 F   0  0  0  0  0  0  0  0  0  0  0  0
   -7.7977    5.5020    5.9942 C   0  0  0  0  0  0  0  0  0  0  0  0
   -8.7128    6.2802    5.3324 C   0  0  0  0  0  0  0  0  0  0  0  0
   -8.7908    6.4551    3.9342 C   0  0  0  0  0  0  0  0  0  0  0  0
   -8.9253    6.6588    2.8119 N   0  0  0  0  0  0  0  0  0  0  0  0
   -9.7184    7.0385    5.9690 C   0  0  0  0  0  0  0  0  0  0  0  0
  -10.5586    7.6758    6.4216 N   0  0  0  0  0  0  0  0  0  0  0  0
    6.7954   -4.5410   -3.0338 H   0  0  0  0  0  0  0  0  0  0  0  0
    5.1197   -2.7495   -8.8085 H   0  0  0  0  0  0  0  0  0  0  0  0
    5.7867   -2.5887  -11.2112 H   0  0  0  0  0  0  0  0  0  0  0  0
    9.9607   -5.0745  -10.2292 H   0  0  0  0  0  0  0  0  0  0  0  0
    9.3405   -5.2380   -7.8806 H   0  0  0  0  0  0  0  0  0  0  0  0
    5.6972   -3.8859   -1.0071 H   0  0  0  0  0  0  0  0  0  0  0  0
    0.9013   -0.7667    2.2423 H   0  0  0  0  0  0  0  0  0  0  0  0
   -2.1421   -1.8200    2.7378 H   0  0  0  0  0  0  0  0  0  0  0  0
   -3.1701   -2.7670    4.9343 H   0  0  0  0  0  0  0  0  0  0  0  0
   -3.6567   -2.0401    7.3976 H   0  0  0  0  0  0  0  0  0  0  0  0
   -2.6512   -0.6971    7.9648 H   0  0  0  0  0  0  0  0  0  0  0  0
   -4.3913    0.9320    7.2186 H   0  0  0  0  0  0  0  0  0  0  0  0
   -5.4081   -0.4070    6.6784 H   0  0  0  0  0  0  0  0  0  0  0  0
   -5.0391   -0.2144    8.3962 H   0  0  0  0  0  0  0  0  0  0  0  0
    0.8841    0.6986    4.5260 H   0  0  0  0  0  0  0  0  0  0  0  0
    2.3431    2.7858    5.0432 H   0  0  0  0  0  0  0  0  0  0  0  0
    1.6937    5.7536    2.8520 H   0  0  0  0  0  0  0  0  0  0  0  0
    2.6185    5.2657    4.2813 H   0  0  0  0  0  0  0  0  0  0  0  0
   -0.2731    6.2700    4.2897 H   0  0  0  0  0  0  0  0  0  0  0  0
    1.1414    7.2009    4.7962 H   0  0  0  0  0  0  0  0  0  0  0  0
    0.6369    5.7816    5.7210 H   0  0  0  0  0  0  0  0  0  0  0  0
   -1.7420    0.5329   -1.8199 H   0  0  0  0  0  0  0  0  0  0  0  0
    1.1378    1.6708   -2.3020 H   0  0  0  0  0  0  0  0  0  0  0  0
    2.0574    2.7154   -4.5016 H   0  0  0  0  0  0  0  0  0  0  0  0
    1.6916    0.5682   -7.5460 H   0  0  0  0  0  0  0  0  0  0  0  0
    2.4839    2.0590   -7.0093 H   0  0  0  0  0  0  0  0  0  0  0  0
    3.6594   -0.7600   -6.7452 H   0  0  0  0  0  0  0  0  0  0  0  0
    4.4592    0.7352   -6.2588 H   0  0  0  0  0  0  0  0  0  0  0  0
    4.1270    0.4339   -7.9671 H   0  0  0  0  0  0  0  0  0  0  0  0
   -1.7361   -1.0396   -4.0786 H   0  0  0  0  0  0  0  0  0  0  0  0
   -3.0729   -3.2163   -4.5550 H   0  0  0  0  0  0  0  0  0  0  0  0
   -2.9338   -5.7784   -4.1120 H   0  0  0  0  0  0  0  0  0  0  0  0
   -1.3872   -6.3656   -3.4814 H   0  0  0  0  0  0  0  0  0  0  0  0
   -3.7170   -5.3660   -1.7725 H   0  0  0  0  0  0  0  0  0  0  0  0
   -2.1679   -5.9447   -1.1529 H   0  0  0  0  0  0  0  0  0  0  0  0
   -3.2515   -7.0557   -1.9975 H   0  0  0  0  0  0  0  0  0  0  0  0
   -6.2796    4.0705    1.3900 H   0  0  0  0  0  0  0  0  0  0  0  0
   -7.2284    4.9685    3.4014 H   0  0  0  0  0  0  0  0  0  0  0  0
   -9.3405    6.5456    8.2754 H   0  0  0  0  0  0  0  0  0  0  0  0
  1  2  2  0  0  0  0
  2  3  1  0  0  0  0
  3  4  2  0  0  0  0
  3  5  1  0  0  0  0
  5  6  2  0  0  0  0
  6  7  1  0  0  0  0
  7  8  2  0  0  0  0
  8  9  1  0  0  0  0
  9 10  1  0  0  0  0
  9 11  2  0  0  0  0
 11 12  1  0  0  0  0
 11 13  1  0  0  0  0
 13 14  2  0  0  0  0
 14 15  1  0  0  0  0
 15 16  2  0  0  0  0
 16 17  1  0  0  0  0
 17 18  2  0  0  0  0
 18 19  1  0  0  0  0
 19 20  3  0  0  0  0
 18 21  1  0  0  0  0
 21 22  3  0  0  0  0
  1 23  1  0  0  0  0
 23 24  2  0  0  0  0
 24 25  1  0  0  0  0
 25 26  1  0  0  0  0
 26 27  1  0  0  0  0
 27 28  1  0  0  0  0
 28 29  2  0  0  0  0
 29 30  1  0  0  0  0
 30 31  1  0  0  0  0
 31 32  1  0  0  0  0
 32 33  2  0  0  0  0
 33 34  1  0  0  0  0
 34 35  2  0  0  0  0
 35 36  1  0  0  0  0
 36 37  1  0  0  0  0
 35 38  1  0  0  0  0
 31 39  1  0  0  0  0
 39 40  2  0  0  0  0
 40 41  1  0  0  0  0
 41 42  2  0  0  0  0
 42 43  1  0  0  0  0
 43 44  1  0  0  0  0
 42 45  1  0  0  0  0
 31 46  1  0  0  0  0
 46 47  2  0  0  0  0
 47 48  1  0  0  0  0
 48 49  1  0  0  0  0
 49 50  2  0  0  0  0
 50 51  1  0  0  0  0
 51 52  1  0  0  0  0
 52 53  2  0  0  0  0
 53 54  1  0  0  0  0
 54 55  2  0  0  0  0
 55 56  1  0  0  0  0
 56 57  1  0  0  0  0
 55 58  1  0  0  0  0
 51 59  1  0  0  0  0
 59 60  2  0  0  0  0
 60 61  1  0  0  0  0
 61 62  2  0  0  0  0
 62 63  1  0  0  0  0
 63 64  1  0  0  0  0
 62 65  1  0  0  0  0
 51 66  1  0  0  0  0
 66 67  1  0  0  0  0
 67 68  1  0  0  0  0
 47 69  1  0  0  0  0
 69 70  1  0  0  0  0
 70 71  1  0  0  0  0
 71 72  2  0  0  0  0
 72 73  1  0  0  0  0
 73 74  1  0  0  0  0
 72 75  1  0  0  0  0
 75 76  2  0  0  0  0
 76 77  1  0  0  0  0
 77 78  2  0  0  0  0
 77 79  1  0  0  0  0
 79 80  2  0  0  0  0
 80 81  1  0  0  0  0
 81 82  2  0  0  0  0
 82 83  1  0  0  0  0
 82 84  1  0  0  0  0
 84 85  1  0  0  0  0
 84 86  2  0  0  0  0
 86 87  1  0  0  0  0
 80 88  1  0  0  0  0
 88 89  2  0  0  0  0
 89 90  1  0  0  0  0
 90 91  3  0  0  0  0
 89 92  1  0  0  0  0
 92 93  3  0  0  0  0
 17  2  1  0  0  0  0
 68 23  1  0  0  0  0
 74 70  2  0  0  0  0
 88 76  1  0  0  0  0
 16  5  1  0  0  0  0
 67 25  2  0  0  0  0
 86 79  1  0  0  0  0
 14  7  1  0  0  0  0
 66 27  2  0  0  0  0
 50 28  1  0  0  0  0
 58 52  1  0  0  0  0
 65 59  1  0  0  0  0
 48 30  2  0  0  0  0
 38 32  1  0  0  0  0
 45 39  1  0  0  0  0
 74 46  1  0  0  0  0
  1 94  1  0  0  0  0
  6 95  1  0  0  0  0
  8 96  1  0  0  0  0
 13 97  1  0  0  0  0
 15 98  1  0  0  0  0
 24 99  1  0  0  0  0
 29100  1  0  0  0  0
 33101  1  0  0  0  0
 34102  1  0  0  0  0
 36103  1  0  0  0  0
 36104  1  0  0  0  0
 37105  1  0  0  0  0
 37106  1  0  0  0  0
 37107  1  0  0  0  0
 40108  1  0  0  0  0
 41109  1  0  0  0  0
 43110  1  0  0  0  0
 43111  1  0  0  0  0
 44112  1  0  0  0  0
 44113  1  0  0  0  0
 44114  1  0  0  0  0
 49115  1  0  0  0  0
 53116  1  0  0  0  0
 54117  1  0  0  0  0
 56118  1  0  0  0  0
 56119  1  0  0  0  0
 57120  1  0  0  0  0
 57121  1  0  0  0  0
 57122  1  0  0  0  0
 60123  1  0  0  0  0
 61124  1  0  0  0  0
 63125  1  0  0  0  0
 63126  1  0  0  0  0
 64127  1  0  0  0  0
 64128  1  0  0  0  0
 64129  1  0  0  0  0
 71130  1  0  0  0  0
 75131  1  0  0  0  0
 81132  1  0  0  0  0
M  END
