135

C          1.92390       -5.50440        5.28190
C          2.92630       -5.72370        6.19030
C          3.93060       -4.76380        6.70060
O          3.95280       -3.55470        6.59770
C          4.95710       -5.58330        7.37580
C          6.13110       -5.17330        7.93840
C          6.98870       -6.13700        8.51370
C          8.21530       -5.77110        9.10120
C          9.03030       -6.72540        9.64250
F         10.19820       -6.37600       10.19930
C          8.65510       -8.08370        9.62100
F          9.47500       -8.99710       10.15800
C          7.47050       -8.46930        9.05940
C          6.60740       -7.50990        8.49270
C          5.38070       -7.90120        7.90910
C          4.56360       -6.94880        7.35920
C          3.26750       -7.04410        6.69440
C          2.49870       -8.17720        6.63230
C          1.20050       -8.26790        6.08570
N          0.13670       -8.42670        5.68300
C          2.89410       -9.42480        7.15970
N          3.15930      -10.46670        7.56200
C          1.46350       -4.32630        4.66760
C          1.72960       -2.98250        4.88800
C          1.04870       -2.16590        3.99790
S          1.00700       -0.44300        3.74040
C         -0.05070       -0.68580        2.39500
C         -0.64470        0.15390        1.40090
C         -0.56690        1.52870        1.19690
C         -1.17720        2.02530        0.06990
C         -1.19600        3.46460       -0.42060
C          0.18170        4.01780       -0.64860
C          0.52400        5.32150       -0.82290
C          1.90190        5.49450       -1.08190
C          2.59780        4.32810       -1.11160
C          4.04620        4.11400       -1.38700
C          4.26750        3.57940       -2.80360
S          1.55160        2.97210       -0.82380
C         -1.96730        4.33810        0.52660
C         -3.21020        4.86510        0.37820
C         -3.62050        5.62800        1.49550
C         -2.69360        5.67920        2.48670
C         -2.78610        6.34580        3.81560
C         -3.03730        5.32680        4.92910
S         -1.27890        4.77030        2.05820
C         -1.90580        3.30490       -1.73950
C         -2.27990        1.98490       -1.93500
C         -1.85810        1.17680       -0.83340
C         -1.97590       -0.19130       -0.60510
C         -1.36220       -0.68800        0.51920
C         -1.29560       -2.13570        0.97950
C         -2.63100       -2.63270        1.46120
C         -2.94840       -3.90490        1.81980
C         -4.27530       -4.02420        2.28850
C         -4.95370       -2.84710        2.29970
C         -6.37060       -2.59340        2.68370
C         -7.24810       -2.38010        1.44850
S         -3.95770       -1.54950        1.71630
C         -0.74640       -3.02500       -0.09510
C          0.53490       -3.43300       -0.28690
C          0.68870       -4.23260       -1.44250
C         -0.46880       -4.42610       -2.12630
C         -0.69060       -5.17820       -3.39290
C         -1.04560       -4.23800       -4.54600
S         -1.79010       -3.61500       -1.34700
C         -0.37000       -2.01360        2.16060
C          0.24140       -2.86460        3.07340
S          0.31300       -4.55700        3.33890
S         -3.04320        1.68450       -3.45570
C         -2.83910        3.36470       -3.86980
C         -3.12930        4.10870       -5.00150
C         -2.73850        5.43450       -4.86650
S         -2.01930        5.74570       -3.27500
C         -2.21780        4.10040       -2.83520
C         -2.80950        6.53930       -5.73040
C         -3.13310        6.63300       -7.06070
C         -3.36610        5.54010       -8.02820
O         -3.52390        4.35520       -7.82580
C         -3.35410        6.18490       -9.36190
C         -3.44870        5.58150      -10.59920
C         -3.38920        6.40220      -11.72040
C         -3.44130        5.79350      -13.09510
F         -4.06430        6.57970      -13.98570
F         -2.20560        5.57560      -13.58800
F         -4.06950        4.61150      -13.11900
C         -3.23460        7.77930      -11.59620
C         -3.14730        8.37790      -10.34770
C         -3.20780        7.57340       -9.21970
C         -3.14190        7.88820       -7.79190
C         -3.16310        9.15320       -7.26690
C         -3.21750        9.47570       -5.89300
N         -3.28590        9.82840       -4.80250
C         -3.17990       10.33120       -8.04470
N         -3.18590       11.32640       -8.61610
H          1.41080       -6.38970        4.92330
H          6.40310       -4.12870        7.93970
H          8.51710       -4.73570        9.12500
H          7.19780       -9.51310        9.05250
H          5.12400       -8.94800        7.90550
H          2.39970       -2.63810        5.65360
H         -0.02850        2.16480        1.88260
H         -0.18020        6.13250       -0.76230
H          2.35700        6.45700       -1.23320
H          4.45610        3.40150       -0.66730
H          4.57070        5.06410       -1.26640
H          3.75300        2.62950       -2.93190
H          5.32790        3.42880       -2.98880
H          3.88200        4.28330       -3.53780
H         -3.82000        4.72330       -0.49610
H         -4.57180        6.12640        1.55110
H         -3.60290        7.07000        3.78840
H         -1.85770        6.88280        4.02400
H         -2.22460        4.60500        4.96920
H         -3.10520        5.82880        5.89080
H         -3.96650        4.79110        4.74890
H         -2.50880       -0.82850       -1.29410
H         -2.26200       -4.73020        1.74740
H         -4.70520       -4.95600        2.60990
H         -6.73810       -3.44980        3.25270
H         -6.42750       -1.70770        3.32120
H         -7.21530       -3.25720        0.80620
H         -6.89530       -1.52230        0.88030
H         -8.27890       -2.20250        1.74390
H          1.34740       -3.17710        0.36960
H          1.63100       -4.65140       -1.74820
H          0.21930       -5.73180       -3.63340
H         -1.50210       -5.89780       -3.25610
H         -1.96060       -3.69470       -4.32070
H         -0.24660       -3.51770       -4.70710
H         -1.19380       -4.80420       -5.46190
H         -3.58840        3.72220       -5.89210
H         -2.51150        7.46550       -5.25210
H         -3.56580        4.51200      -10.68310
H         -3.18620        8.38920      -12.48540
H         -3.02580        9.44600      -10.27830
