132

C         -1.43380        2.00580        7.95800
C         -2.45410        1.47250        8.70610
C         -3.43230        0.48420        8.23910
O         -3.53540        0.00680        7.12290
C         -4.28270        0.16740        9.40050
C         -5.32420       -0.71050        9.48110
C         -5.99750       -0.86340       10.71350
C         -7.07440       -1.75950       10.85600
C         -7.70530       -1.89030       12.06140
F         -8.72870       -2.74510       12.19580
C         -7.28920       -1.13150       13.17340
F         -7.92660       -1.28040       14.34220
C         -6.24760       -0.25310       13.06560
C         -5.57500       -0.09620       11.83730
C         -4.49360        0.80750       11.71970
C         -3.85260        0.93820       10.51620
C         -2.72340        1.76860       10.09990
C         -2.06690        2.66260       10.90650
C         -2.39040        2.88860       12.26110
N         -2.59950        3.11880       13.36630
C         -0.99020        3.48940       10.52350
N         -0.11460        4.19720       10.29560
C         -1.06980        1.78500        6.62310
C          0.04160        2.41680        6.05560
C          0.23310        2.05850        4.73730
S          1.41030        2.48580        3.52320
C          0.59920        1.44570        2.40550
C          0.79230        1.07360        1.03850
C          1.76760        1.44300        0.11580
C          1.67650        0.89390       -1.14090
C          2.60840        1.10570       -2.32490
C          3.98240        0.55950       -2.04910
C          4.36590       -0.33870       -1.10450
C          5.73310       -0.68330       -1.20400
C          6.37800       -0.05730       -2.22300
C          7.79700       -0.19380       -2.65550
C          7.89980       -0.90300       -4.00700
S          5.29990        0.98580       -3.09270
C          2.66770        2.54820       -2.73220
C          2.13520        3.14530       -3.82970
C          2.41030        4.53040       -3.89070
C          3.14120        4.98490       -2.84030
C          3.66060        6.35810       -2.58910
C          5.16700        6.43180       -2.84790
S          3.51000        3.69600       -1.74080
C          1.94540        0.24340       -3.36830
C          0.82650       -0.38120       -2.84110
C          0.63020        0.00470       -1.47920
C         -0.34640       -0.36350       -0.55760
C         -0.24440        0.17140        0.70360
C         -1.15020       -0.08270        1.89790
C         -2.56340        0.31820        1.58970
C         -3.54520       -0.43300        1.02650
C         -4.74680        0.28730        0.84070
C         -4.67310        1.58010        1.25080
C         -5.74180        2.61790        1.25490
C         -6.25750        2.87360        2.67250
S         -3.09850        1.93920        1.88670
C         -1.09680       -1.51130        2.36110
C         -1.84700       -2.08520        3.33830
C         -1.51010       -3.43920        3.56100
C         -0.50230       -3.88600        2.76700
C          0.08370       -5.25350        2.68570
C         -0.38940       -5.98400        1.42710
S          0.05730       -2.62740        1.70860
C         -0.51290        0.80900        2.93090
C         -0.73370        1.14390        4.26300
S         -1.88320        0.72920        5.47210
S          0.01960       -1.43960       -3.94290
C          1.20860       -1.05210       -5.15590
C          1.39220       -1.45280       -6.46810
C          2.50650       -0.85440       -7.04280
S          3.32930        0.22760       -5.90260
C          2.17740       -0.13570       -4.68600
C          3.08150       -0.93250       -8.32130
C          2.74840       -1.65800       -9.43810
C          1.66200       -2.64460       -9.60500
O          0.81560       -3.00010       -8.81150
C          1.79770       -3.15850      -10.98560
C          1.02250       -4.11350      -11.61320
C          1.34250       -4.44240      -12.91990
F          0.62040       -5.36320      -13.56950
C          2.41310       -3.82210      -13.56490
F          2.70260       -4.15990      -14.82650
C          3.18960       -2.86230      -12.93330
C          2.87510       -2.52710      -11.62480
C          3.48040       -1.57560      -10.69240
C          4.53680       -0.75790      -10.99780
C          5.14830        0.19080      -10.14930
N          5.71400        0.98820       -9.54600
C          5.18290       -0.73860      -12.25360
N          5.75520       -0.66680      -13.24570
H         -0.78020        2.70880        8.46030
H         -5.62860       -1.28170        8.61720
H         -7.40510       -2.34750       10.01420
H         -5.94170        0.32030       13.92680
H         -4.19990        1.37110       12.59010
H          0.66320        3.09990        6.60600
H          2.56070        2.12290        0.38620
H          3.70130       -0.73980       -0.35990
H          6.21700       -1.37230       -0.53470
H          8.34110       -0.76040       -1.89700
H          8.25380        0.79590       -2.73650
H          7.37270       -0.33580       -4.77100
H          8.94100       -1.00100       -4.30330
H          7.45980       -1.89610       -3.94760
H          1.56820        2.62360       -4.57980
H          2.07510        5.16260       -4.69340
H          3.13890        7.05600       -3.24720
H          3.45960        6.64620       -1.55440
H          5.69620        5.75090       -2.18490
H          5.53080        7.44120       -2.67380
H          5.38760        6.15340       -3.87580
H         -1.13910       -1.04370       -0.82790
H         -3.42480       -1.46930        0.76550
H         -5.63450       -0.14580        0.41470
H         -6.56270        2.27790        0.62000
H         -5.35230        3.55130        0.84100
H         -7.04160        3.62640        2.65900
H         -5.44840        3.22360        3.30970
H         -6.66000        1.95770        3.09910
H         -2.61640       -1.56350        3.87890
H         -2.00230       -4.05590        4.29180
H          1.17430       -5.18800        2.67290
H         -0.21580       -5.81600        3.57230
H         -0.08330       -5.43760        0.53770
H         -1.47370       -6.06900        1.42490
H          0.03810       -6.98250        1.38680
H          0.76230       -2.14340       -6.99740
H          3.95050       -0.29320       -8.42160
H          0.19730       -4.58870      -11.10710
H          4.00460       -2.41650      -13.47880
