
  xtb     02012220323D
 energy: -356.863819045673 gnorm: 0.000551501020 xtb: 6.4.1 (unknown)
224246  0     0  0            999 V2000
   -5.6902   -4.4507   -8.5241 C   0  0  0  0  0  0  0  0  0  0  0  0
   -5.6230   -5.0636   -9.7531 C   0  0  0  0  0  0  0  0  0  0  0  0
   -4.4248   -5.4612  -10.5189 C   0  0  0  0  0  0  0  0  0  0  0  0
   -3.2574   -5.1910  -10.3172 O   0  0  0  0  0  0  0  0  0  0  0  0
   -4.9196   -6.3067  -11.6257 C   0  0  0  0  0  0  0  0  0  0  0  0
   -4.1941   -6.9687  -12.5728 C   0  0  0  0  0  0  0  0  0  0  0  0
   -4.8732   -7.7494  -13.5345 C   0  0  0  0  0  0  0  0  0  0  0  0
   -4.1752   -8.4586  -14.5311 C   0  0  0  0  0  0  0  0  0  0  0  0
   -4.8574   -9.2130  -15.4438 C   0  0  0  0  0  0  0  0  0  0  0  0
   -4.1908   -9.8896  -16.3909 F   0  0  0  0  0  0  0  0  0  0  0  0
   -6.2634   -9.2903  -15.4009 C   0  0  0  0  0  0  0  0  0  0  0  0
   -6.9058  -10.0391  -16.3087 F   0  0  0  0  0  0  0  0  0  0  0  0
   -6.9685   -8.6122  -14.4467 C   0  0  0  0  0  0  0  0  0  0  0  0
   -6.2951   -7.8255  -13.4906 C   0  0  0  0  0  0  0  0  0  0  0  0
   -7.0178   -7.1213  -12.4999 C   0  0  0  0  0  0  0  0  0  0  0  0
   -6.3379   -6.3683  -11.5795 C   0  0  0  0  0  0  0  0  0  0  0  0
   -6.7945   -5.5482  -10.4600 C   0  0  0  0  0  0  0  0  0  0  0  0
   -8.1083   -5.2535  -10.1950 C   0  0  0  0  0  0  0  0  0  0  0  0
   -9.1931   -5.7572  -10.9424 C   0  0  0  0  0  0  0  0  0  0  0  0
  -10.1202   -6.1338  -11.5057 N   0  0  0  0  0  0  0  0  0  0  0  0
   -8.5819   -4.3888   -9.1859 C   0  0  0  0  0  0  0  0  0  0  0  0
   -9.0594   -3.6864   -8.4118 N   0  0  0  0  0  0  0  0  0  0  0  0
   -4.6978   -3.9080   -7.6971 C   0  0  0  0  0  0  0  0  0  0  0  0
   -5.2357   -3.3629   -6.0996 S   0  0  0  0  0  0  0  0  0  0  0  0
   -3.6454   -2.8849   -5.7138 C   0  0  0  0  0  0  0  0  0  0  0  0
   -2.9766   -2.3184   -4.5891 C   0  0  0  0  0  0  0  0  0  0  0  0
   -1.6161   -2.1677   -4.9496 C   0  0  0  0  0  0  0  0  0  0  0  0
   -1.3717   -2.6404   -6.3724 C   0  0  0  0  0  0  0  0  0  0  0  0
   -0.9878   -1.5281   -7.3344 C   0  0  0  0  0  0  0  0  0  0  0  0
   -0.5466   -1.8682   -8.6082 C   0  0  0  0  0  0  0  0  0  0  0  0
   -0.2261   -0.8770   -9.5161 C   0  0  0  0  0  0  0  0  0  0  0  0
   -0.3475    0.4566   -9.1655 C   0  0  0  0  0  0  0  0  0  0  0  0
   -0.7953    0.8117   -7.9012 C   0  0  0  0  0  0  0  0  0  0  0  0
   -0.9815    2.2539   -7.5253 C   0  0  0  0  0  0  0  0  0  0  0  0
   -2.4154    2.6995   -7.8182 C   0  0  0  0  0  0  0  0  0  0  0  0
   -1.1191   -0.1911   -6.9956 C   0  0  0  0  0  0  0  0  0  0  0  0
   -0.3166   -3.7306   -6.3443 C   0  0  0  0  0  0  0  0  0  0  0  0
   -0.6637   -5.0699   -6.2421 C   0  0  0  0  0  0  0  0  0  0  0  0
    0.3241   -6.0370   -6.1801 C   0  0  0  0  0  0  0  0  0  0  0  0
    1.6590   -5.6771   -6.2096 C   0  0  0  0  0  0  0  0  0  0  0  0
    2.0232   -4.3401   -6.2976 C   0  0  0  0  0  0  0  0  0  0  0  0
    3.4663   -3.9321   -6.3784 C   0  0  0  0  0  0  0  0  0  0  0  0
    3.8841   -3.7481   -7.8386 C   0  0  0  0  0  0  0  0  0  0  0  0
    1.0258   -3.3783   -6.3640 C   0  0  0  0  0  0  0  0  0  0  0  0
   -2.7479   -3.1180   -6.7577 C   0  0  0  0  0  0  0  0  0  0  0  0
   -3.3328   -3.6841   -7.8732 C   0  0  0  0  0  0  0  0  0  0  0  0
   -0.7007   -1.6751   -4.0492 C   0  0  0  0  0  0  0  0  0  0  0  0
   -1.1714   -1.3303   -2.7856 C   0  0  0  0  0  0  0  0  0  0  0  0
   -0.4913   -0.8056   -1.6450 C   0  0  0  0  0  0  0  0  0  0  0  0
   -1.3728   -0.6119   -0.5975 C   0  0  0  0  0  0  0  0  0  0  0  0
   -2.7657   -1.0211   -0.9950 C   0  0  0  0  0  0  0  0  0  0  0  0
   -2.5336   -1.4766   -2.4257 C   0  0  0  0  0  0  0  0  0  0  0  0
   -3.4494   -1.9646   -3.3257 C   0  0  0  0  0  0  0  0  0  0  0  0
   -3.2106   -2.1209   -0.0478 C   0  0  0  0  0  0  0  0  0  0  0  0
   -3.1104   -3.4648   -0.3752 C   0  0  0  0  0  0  0  0  0  0  0  0
   -3.4850   -4.4267    0.5474 C   0  0  0  0  0  0  0  0  0  0  0  0
   -3.9453   -4.0584    1.7984 C   0  0  0  0  0  0  0  0  0  0  0  0
   -4.0328   -2.7169    2.1470 C   0  0  0  0  0  0  0  0  0  0  0  0
   -4.5593   -2.2901    3.4866 C   0  0  0  0  0  0  0  0  0  0  0  0
   -6.0457   -1.9419    3.3880 C   0  0  0  0  0  0  0  0  0  0  0  0
   -3.6650   -1.7603    1.2133 C   0  0  0  0  0  0  0  0  0  0  0  0
   -3.7540    0.1316   -0.9976 C   0  0  0  0  0  0  0  0  0  0  0  0
   -5.1186   -0.1304   -1.0115 C   0  0  0  0  0  0  0  0  0  0  0  0
   -6.0237    0.9142   -1.0317 C   0  0  0  0  0  0  0  0  0  0  0  0
   -5.5789    2.2248   -1.0302 C   0  0  0  0  0  0  0  0  0  0  0  0
   -4.2198    2.5034   -1.0234 C   0  0  0  0  0  0  0  0  0  0  0  0
   -3.7171    3.9170   -0.9587 C   0  0  0  0  0  0  0  0  0  0  0  0
   -3.4431    4.3125    0.4940 C   0  0  0  0  0  0  0  0  0  0  0  0
   -3.3186    1.4471   -1.0167 C   0  0  0  0  0  0  0  0  0  0  0  0
   -0.7274   -0.1200    0.5364 C   0  0  0  0  0  0  0  0  0  0  0  0
    0.6519    0.0720    0.3255 C   0  0  0  0  0  0  0  0  0  0  0  0
    1.1464   -0.3755   -1.2776 S   0  0  0  0  0  0  0  0  0  0  0  0
    1.2935    0.5860    1.4522 C   0  0  0  0  0  0  0  0  0  0  0  0
    0.4154    0.7591    2.5064 C   0  0  0  0  0  0  0  0  0  0  0  0
   -1.2219    0.3235    2.1405 S   0  0  0  0  0  0  0  0  0  0  0  0
    1.0998    1.2579    3.6565 C   0  0  0  0  0  0  0  0  0  0  0  0
    0.6369    1.5703    4.9314 C   0  0  0  0  0  0  0  0  0  0  0  0
    1.5601    2.0316    5.8404 C   0  0  0  0  0  0  0  0  0  0  0  0
    2.9138    2.2138    5.4715 C   0  0  0  0  0  0  0  0  0  0  0  0
    3.3775    1.8952    4.1957 C   0  0  0  0  0  0  0  0  0  0  0  0
    2.4631    1.3980    3.2992 C   0  0  0  0  0  0  0  0  0  0  0  0
    2.6922    0.9617    1.8620 C   0  0  0  0  0  0  0  0  0  0  0  0
    3.2747    2.1248    1.0817 C   0  0  0  0  0  0  0  0  0  0  0  0
    2.4643    3.0014    0.3749 C   0  0  0  0  0  0  0  0  0  0  0  0
    3.0269    4.0684   -0.3026 C   0  0  0  0  0  0  0  0  0  0  0  0
    4.3939    4.2753   -0.2702 C   0  0  0  0  0  0  0  0  0  0  0  0
    5.2172    3.4176    0.4472 C   0  0  0  0  0  0  0  0  0  0  0  0
    6.7067    3.6087    0.4748 C   0  0  0  0  0  0  0  0  0  0  0  0
    7.3936    2.6398   -0.4891 C   0  0  0  0  0  0  0  0  0  0  0  0
    4.6443    2.3452    1.1154 C   0  0  0  0  0  0  0  0  0  0  0  0
    3.5545   -0.2803    1.7158 C   0  0  0  0  0  0  0  0  0  0  0  0
    3.8728   -1.0944    2.7926 C   0  0  0  0  0  0  0  0  0  0  0  0
    4.6185   -2.2428    2.5894 C   0  0  0  0  0  0  0  0  0  0  0  0
    5.0333   -2.5949    1.3178 C   0  0  0  0  0  0  0  0  0  0  0  0
    4.7063   -1.7997    0.2273 C   0  0  0  0  0  0  0  0  0  0  0  0
    5.1544   -2.1522   -1.1622 C   0  0  0  0  0  0  0  0  0  0  0  0
    6.3548   -1.3008   -1.5783 C   0  0  0  0  0  0  0  0  0  0  0  0
    3.9737   -0.6423    0.4431 C   0  0  0  0  0  0  0  0  0  0  0  0
    3.5989    2.7387    6.6079 C   0  0  0  0  0  0  0  0  0  0  0  0
    5.1963    3.2168    6.9724 S   0  0  0  0  0  0  0  0  0  0  0  0
    4.6939    3.6433    8.6050 C   0  0  0  0  0  0  0  0  0  0  0  0
    3.3243    3.3982    8.8011 C   0  0  0  0  0  0  0  0  0  0  0  0
    2.7105    2.8988    7.6763 C   0  0  0  0  0  0  0  0  0  0  0  0
    1.3327    2.4232    7.2912 C   0  0  0  0  0  0  0  0  0  0  0  0
    0.2588    3.4922    7.3375 C   0  0  0  0  0  0  0  0  0  0  0  0
    0.5819    4.8408    7.2937 C   0  0  0  0  0  0  0  0  0  0  0  0
   -0.4229    5.7923    7.2833 C   0  0  0  0  0  0  0  0  0  0  0  0
   -1.7511    5.4078    7.3005 C   0  0  0  0  0  0  0  0  0  0  0  0
   -2.0916    4.0620    7.3345 C   0  0  0  0  0  0  0  0  0  0  0  0
   -3.5282    3.6255    7.2962 C   0  0  0  0  0  0  0  0  0  0  0  0
   -3.9629    3.3523    5.8547 C   0  0  0  0  0  0  0  0  0  0  0  0
   -1.0774    3.1159    7.3531 C   0  0  0  0  0  0  0  0  0  0  0  0
    0.9906    1.2438    8.1866 C   0  0  0  0  0  0  0  0  0  0  0  0
    0.5363    1.4853    9.4779 C   0  0  0  0  0  0  0  0  0  0  0  0
    0.2591    0.4281   10.3236 C   0  0  0  0  0  0  0  0  0  0  0  0
    0.4342   -0.8755    9.8922 C   0  0  0  0  0  0  0  0  0  0  0  0
    0.9000   -1.1333    8.6111 C   0  0  0  0  0  0  0  0  0  0  0  0
    1.0549   -2.5410    8.1106 C   0  0  0  0  0  0  0  0  0  0  0  0
   -0.1939   -2.9730    7.3392 C   0  0  0  0  0  0  0  0  0  0  0  0
    1.1795   -0.0640    7.7694 C   0  0  0  0  0  0  0  0  0  0  0  0
    5.5020    4.1621    9.6204 C   0  0  0  0  0  0  0  0  0  0  0  0
    6.8399    4.4814    9.6305 C   0  0  0  0  0  0  0  0  0  0  0  0
    7.7618    4.3472    8.5011 C   0  0  0  0  0  0  0  0  0  0  0  0
    7.5241    3.9229    7.3844 O   0  0  0  0  0  0  0  0  0  0  0  0
    9.0703    4.8379    8.9827 C   0  0  0  0  0  0  0  0  0  0  0  0
   10.2607    4.9236    8.2910 C   0  0  0  0  0  0  0  0  0  0  0  0
   11.3501    5.4291    8.9848 C   0  0  0  0  0  0  0  0  0  0  0  0
   12.5325    5.5330    8.3537 F   0  0  0  0  0  0  0  0  0  0  0  0
   11.2650    5.8330   10.3082 C   0  0  0  0  0  0  0  0  0  0  0  0
   10.0607    5.7400   10.9905 C   0  0  0  0  0  0  0  0  0  0  0  0
    8.9519    5.2384   10.3246 C   0  0  0  0  0  0  0  0  0  0  0  0
    7.5706    5.0212   10.7590 C   0  0  0  0  0  0  0  0  0  0  0  0
    7.0925    5.2866   12.0170 C   0  0  0  0  0  0  0  0  0  0  0  0
    5.7702    5.0806   12.4625 C   0  0  0  0  0  0  0  0  0  0  0  0
    4.7213    4.9437   12.9112 N   0  0  0  0  0  0  0  0  0  0  0  0
    7.8748    5.8110   13.0673 C   0  0  0  0  0  0  0  0  0  0  0  0
    8.4483    6.2393   13.9650 N   0  0  0  0  0  0  0  0  0  0  0  0
   -6.6802   -4.3921   -8.0864 H   0  0  0  0  0  0  0  0  0  0  0  0
   -3.1169   -6.9005  -12.5850 H   0  0  0  0  0  0  0  0  0  0  0  0
   -3.0985   -8.4099  -14.5768 H   0  0  0  0  0  0  0  0  0  0  0  0
   -8.0450   -8.6811  -14.4287 H   0  0  0  0  0  0  0  0  0  0  0  0
   -8.0923   -7.2037  -12.4928 H   0  0  0  0  0  0  0  0  0  0  0  0
   -0.4476   -2.9078   -8.8821 H   0  0  0  0  0  0  0  0  0  0  0  0
    0.1191   -1.1462  -10.5033 H   0  0  0  0  0  0  0  0  0  0  0  0
   -0.0934    1.2274   -9.8788 H   0  0  0  0  0  0  0  0  0  0  0  0
   -0.2875    2.8774   -8.0923 H   0  0  0  0  0  0  0  0  0  0  0  0
   -0.7734    2.3892   -6.4617 H   0  0  0  0  0  0  0  0  0  0  0  0
   -2.6393    2.5810   -8.8759 H   0  0  0  0  0  0  0  0  0  0  0  0
   -3.1221    2.0985   -7.2499 H   0  0  0  0  0  0  0  0  0  0  0  0
   -2.5524    3.7442   -7.5488 H   0  0  0  0  0  0  0  0  0  0  0  0
   -1.4740    0.0840   -6.0123 H   0  0  0  0  0  0  0  0  0  0  0  0
   -1.7031   -5.3615   -6.2177 H   0  0  0  0  0  0  0  0  0  0  0  0
    0.0478   -7.0788   -6.1094 H   0  0  0  0  0  0  0  0  0  0  0  0
    2.4244   -6.4383   -6.1629 H   0  0  0  0  0  0  0  0  0  0  0  0
    4.0951   -4.6949   -5.9152 H   0  0  0  0  0  0  0  0  0  0  0  0
    3.6162   -2.9930   -5.8413 H   0  0  0  0  0  0  0  0  0  0  0  0
    3.7555   -4.6781   -8.3878 H   0  0  0  0  0  0  0  0  0  0  0  0
    3.2725   -2.9836   -8.3130 H   0  0  0  0  0  0  0  0  0  0  0  0
    4.9276   -3.4485   -7.9020 H   0  0  0  0  0  0  0  0  0  0  0  0
    1.3023   -2.3364   -6.4476 H   0  0  0  0  0  0  0  0  0  0  0  0
   -2.8232   -3.9465   -8.7811 H   0  0  0  0  0  0  0  0  0  0  0  0
    0.3423   -1.5591   -4.2994 H   0  0  0  0  0  0  0  0  0  0  0  0
   -4.4918   -2.0854   -3.0753 H   0  0  0  0  0  0  0  0  0  0  0  0
   -2.7429   -3.7630   -1.3460 H   0  0  0  0  0  0  0  0  0  0  0  0
   -3.4134   -5.4723    0.2856 H   0  0  0  0  0  0  0  0  0  0  0  0
   -4.2334   -4.8169    2.5119 H   0  0  0  0  0  0  0  0  0  0  0  0
   -4.4223   -3.0928    4.2136 H   0  0  0  0  0  0  0  0  0  0  0  0
   -4.0075   -1.4139    3.8341 H   0  0  0  0  0  0  0  0  0  0  0  0
   -6.6148   -2.8059    3.0521 H   0  0  0  0  0  0  0  0  0  0  0  0
   -6.4288   -1.6291    4.3565 H   0  0  0  0  0  0  0  0  0  0  0  0
   -6.1979   -1.1337    2.6758 H   0  0  0  0  0  0  0  0  0  0  0  0
   -3.7382   -0.7132    1.4723 H   0  0  0  0  0  0  0  0  0  0  0  0
   -5.4712   -1.1510   -0.9900 H   0  0  0  0  0  0  0  0  0  0  0  0
   -7.0831    0.7045   -1.0428 H   0  0  0  0  0  0  0  0  0  0  0  0
   -6.2919    3.0366   -1.0358 H   0  0  0  0  0  0  0  0  0  0  0  0
   -4.4577    4.5960   -1.3850 H   0  0  0  0  0  0  0  0  0  0  0  0
   -2.7951    4.0098   -1.5369 H   0  0  0  0  0  0  0  0  0  0  0  0
   -4.3539    4.2370    1.0838 H   0  0  0  0  0  0  0  0  0  0  0  0
   -2.6977    3.6530    0.9334 H   0  0  0  0  0  0  0  0  0  0  0  0
   -3.0774    5.3352    0.5489 H   0  0  0  0  0  0  0  0  0  0  0  0
   -2.2596    1.6637   -1.0212 H   0  0  0  0  0  0  0  0  0  0  0  0
   -0.4040    1.4453    5.1864 H   0  0  0  0  0  0  0  0  0  0  0  0
    4.4163    2.0330    3.9403 H   0  0  0  0  0  0  0  0  0  0  0  0
    1.3946    2.8533    0.3514 H   0  0  0  0  0  0  0  0  0  0  0  0
    2.3925    4.7437   -0.8580 H   0  0  0  0  0  0  0  0  0  0  0  0
    4.8252    5.1114   -0.8016 H   0  0  0  0  0  0  0  0  0  0  0  0
    7.0809    3.4326    1.4857 H   0  0  0  0  0  0  0  0  0  0  0  0
    6.9533    4.6343    0.1944 H   0  0  0  0  0  0  0  0  0  0  0  0
    8.4706    2.7892   -0.4751 H   0  0  0  0  0  0  0  0  0  0  0  0
    7.0350    2.7977   -1.5041 H   0  0  0  0  0  0  0  0  0  0  0  0
    7.1832    1.6108   -0.2061 H   0  0  0  0  0  0  0  0  0  0  0  0
    5.2798    1.6639    1.6635 H   0  0  0  0  0  0  0  0  0  0  0  0
    3.5438   -0.8339    3.7876 H   0  0  0  0  0  0  0  0  0  0  0  0
    4.8727   -2.8695    3.4317 H   0  0  0  0  0  0  0  0  0  0  0  0
    5.6095   -3.4968    1.1695 H   0  0  0  0  0  0  0  0  0  0  0  0
    5.4262   -3.2085   -1.2062 H   0  0  0  0  0  0  0  0  0  0  0  0
    4.3336   -1.9808   -1.8626 H   0  0  0  0  0  0  0  0  0  0  0  0
    6.6820   -1.5683   -2.5803 H   0  0  0  0  0  0  0  0  0  0  0  0
    6.0913   -0.2456   -1.5704 H   0  0  0  0  0  0  0  0  0  0  0  0
    7.1841   -1.4541   -0.8910 H   0  0  0  0  0  0  0  0  0  0  0  0
    3.7253   -0.0088   -0.3969 H   0  0  0  0  0  0  0  0  0  0  0  0
    2.8411    3.5972    9.7411 H   0  0  0  0  0  0  0  0  0  0  0  0
    1.6163    5.1501    7.2716 H   0  0  0  0  0  0  0  0  0  0  0  0
   -0.1653    6.8410    7.2591 H   0  0  0  0  0  0  0  0  0  0  0  0
   -2.5299    6.1567    7.2899 H   0  0  0  0  0  0  0  0  0  0  0  0
   -3.6546    2.7168    7.8887 H   0  0  0  0  0  0  0  0  0  0  0  0
   -4.1642    4.4033    7.7229 H   0  0  0  0  0  0  0  0  0  0  0  0
   -3.3539    2.5648    5.4162 H   0  0  0  0  0  0  0  0  0  0  0  0
   -3.8478    4.2484    5.2488 H   0  0  0  0  0  0  0  0  0  0  0  0
   -5.0049    3.0427    5.8232 H   0  0  0  0  0  0  0  0  0  0  0  0
   -1.3349    2.0667    7.3960 H   0  0  0  0  0  0  0  0  0  0  0  0
    0.3915    2.5014    9.8139 H   0  0  0  0  0  0  0  0  0  0  0  0
   -0.0952    0.6218   11.3252 H   0  0  0  0  0  0  0  0  0  0  0  0
    0.2129   -1.6980   10.5570 H   0  0  0  0  0  0  0  0  0  0  0  0
    1.2123   -3.2187    8.9516 H   0  0  0  0  0  0  0  0  0  0  0  0
    1.9236   -2.6057    7.4518 H   0  0  0  0  0  0  0  0  0  0  0  0
   -1.0703   -2.9230    7.9817 H   0  0  0  0  0  0  0  0  0  0  0  0
   -0.3571   -2.3192    6.4850 H   0  0  0  0  0  0  0  0  0  0  0  0
   -0.0851   -3.9932    6.9787 H   0  0  0  0  0  0  0  0  0  0  0  0
    1.5487   -0.2636    6.7735 H   0  0  0  0  0  0  0  0  0  0  0  0
    4.9583    4.3357   10.5413 H   0  0  0  0  0  0  0  0  0  0  0  0
   10.3399    4.6131    7.2615 H   0  0  0  0  0  0  0  0  0  0  0  0
   12.1451    6.2192   10.7975 H   0  0  0  0  0  0  0  0  0  0  0  0
   10.0090    6.0580   12.0184 H   0  0  0  0  0  0  0  0  0  0  0  0
  1  2  2  0  0  0  0
  2  3  1  0  0  0  0
  3  4  2  0  0  0  0
  3  5  1  0  0  0  0
  5  6  2  0  0  0  0
  6  7  1  0  0  0  0
  7  8  2  0  0  0  0
  8  9  1  0  0  0  0
  9 10  1  0  0  0  0
  9 11  2  0  0  0  0
 11 12  1  0  0  0  0
 11 13  1  0  0  0  0
 13 14  2  0  0  0  0
 14 15  1  0  0  0  0
 15 16  2  0  0  0  0
 16 17  1  0  0  0  0
 17 18  2  0  0  0  0
 18 19  1  0  0  0  0
 19 20  3  0  0  0  0
 18 21  1  0  0  0  0
 21 22  3  0  0  0  0
  1 23  1  0  0  0  0
 23 24  1  0  0  0  0
 24 25  1  0  0  0  0
 25 26  1  0  0  0  0
 26 27  2  0  0  0  0
 27 28  1  0  0  0  0
 28 29  1  0  0  0  0
 29 30  2  0  0  0  0
 30 31  1  0  0  0  0
 31 32  2  0  0  0  0
 32 33  1  0  0  0  0
 33 34  1  0  0  0  0
 34 35  1  0  0  0  0
 33 36  2  0  0  0  0
 28 37  1  0  0  0  0
 37 38  2  0  0  0  0
 38 39  1  0  0  0  0
 39 40  2  0  0  0  0
 40 41  1  0  0  0  0
 41 42  1  0  0  0  0
 42 43  1  0  0  0  0
 41 44  2  0  0  0  0
 28 45  1  0  0  0  0
 45 46  1  0  0  0  0
 27 47  1  0  0  0  0
 47 48  2  0  0  0  0
 48 49  1  0  0  0  0
 49 50  2  0  0  0  0
 50 51  1  0  0  0  0
 51 52  1  0  0  0  0
 52 53  2  0  0  0  0
 51 54  1  0  0  0  0
 54 55  2  0  0  0  0
 55 56  1  0  0  0  0
 56 57  2  0  0  0  0
 57 58  1  0  0  0  0
 58 59  1  0  0  0  0
 59 60  1  0  0  0  0
 58 61  2  0  0  0  0
 51 62  1  0  0  0  0
 62 63  2  0  0  0  0
 63 64  1  0  0  0  0
 64 65  2  0  0  0  0
 65 66  1  0  0  0  0
 66 67  1  0  0  0  0
 67 68  1  0  0  0  0
 66 69  2  0  0  0  0
 50 70  1  0  0  0  0
 70 71  2  0  0  0  0
 71 72  1  0  0  0  0
 71 73  1  0  0  0  0
 73 74  2  0  0  0  0
 74 75  1  0  0  0  0
 74 76  1  0  0  0  0
 76 77  2  0  0  0  0
 77 78  1  0  0  0  0
 78 79  2  0  0  0  0
 79 80  1  0  0  0  0
 80 81  2  0  0  0  0
 81 82  1  0  0  0  0
 82 83  1  0  0  0  0
 83 84  2  0  0  0  0
 84 85  1  0  0  0  0
 85 86  2  0  0  0  0
 86 87  1  0  0  0  0
 87 88  1  0  0  0  0
 88 89  1  0  0  0  0
 87 90  2  0  0  0  0
 82 91  1  0  0  0  0
 91 92  2  0  0  0  0
 92 93  1  0  0  0  0
 93 94  2  0  0  0  0
 94 95  1  0  0  0  0
 95 96  1  0  0  0  0
 96 97  1  0  0  0  0
 95 98  2  0  0  0  0
 79 99  1  0  0  0  0
 99100  1  0  0  0  0
100101  1  0  0  0  0
101102  2  0  0  0  0
102103  1  0  0  0  0
103104  1  0  0  0  0
104105  1  0  0  0  0
105106  2  0  0  0  0
106107  1  0  0  0  0
107108  2  0  0  0  0
108109  1  0  0  0  0
109110  1  0  0  0  0
110111  1  0  0  0  0
109112  2  0  0  0  0
104113  1  0  0  0  0
113114  2  0  0  0  0
114115  1  0  0  0  0
115116  2  0  0  0  0
116117  1  0  0  0  0
117118  1  0  0  0  0
118119  1  0  0  0  0
117120  2  0  0  0  0
101121  1  0  0  0  0
121122  2  0  0  0  0
122123  1  0  0  0  0
123124  2  0  0  0  0
123125  1  0  0  0  0
125126  2  0  0  0  0
126127  1  0  0  0  0
127128  1  0  0  0  0
127129  2  0  0  0  0
129130  1  0  0  0  0
130131  2  0  0  0  0
131132  1  0  0  0  0
132133  2  0  0  0  0
133134  1  0  0  0  0
134135  3  0  0  0  0
133136  1  0  0  0  0
136137  3  0  0  0  0
 17  2  1  0  0  0  0
 46 23  2  0  0  0  0
 52 48  1  0  0  0  0
 61 54  1  0  0  0  0
 69 62  1  0  0  0  0
 75 70  1  0  0  0  0
 81 76  1  0  0  0  0
 90 83  1  0  0  0  0
 98 91  1  0  0  0  0
103 99  2  0  0  0  0
112105  1  0  0  0  0
120113  1  0  0  0  0
132122  1  0  0  0  0
 16  5  1  0  0  0  0
 45 25  2  0  0  0  0
 72 49  1  0  0  0  0
 82 73  1  0  0  0  0
131125  1  0  0  0  0
 14  7  1  0  0  0  0
 53 26  1  0  0  0  0
104 78  1  0  0  0  0
 36 29  1  0  0  0  0
 44 37  1  0  0  0  0
  1138  1  0  0  0  0
  6139  1  0  0  0  0
  8140  1  0  0  0  0
 13141  1  0  0  0  0
 15142  1  0  0  0  0
 30143  1  0  0  0  0
 31144  1  0  0  0  0
 32145  1  0  0  0  0
 34146  1  0  0  0  0
 34147  1  0  0  0  0
 35148  1  0  0  0  0
 35149  1  0  0  0  0
 35150  1  0  0  0  0
 36151  1  0  0  0  0
 38152  1  0  0  0  0
 39153  1  0  0  0  0
 40154  1  0  0  0  0
 42155  1  0  0  0  0
 42156  1  0  0  0  0
 43157  1  0  0  0  0
 43158  1  0  0  0  0
 43159  1  0  0  0  0
 44160  1  0  0  0  0
 46161  1  0  0  0  0
 47162  1  0  0  0  0
 53163  1  0  0  0  0
 55164  1  0  0  0  0
 56165  1  0  0  0  0
 57166  1  0  0  0  0
 59167  1  0  0  0  0
 59168  1  0  0  0  0
 60169  1  0  0  0  0
 60170  1  0  0  0  0
 60171  1  0  0  0  0
 61172  1  0  0  0  0
 63173  1  0  0  0  0
 64174  1  0  0  0  0
 65175  1  0  0  0  0
 67176  1  0  0  0  0
 67177  1  0  0  0  0
 68178  1  0  0  0  0
 68179  1  0  0  0  0
 68180  1  0  0  0  0
 69181  1  0  0  0  0
 77182  1  0  0  0  0
 80183  1  0  0  0  0
 84184  1  0  0  0  0
 85185  1  0  0  0  0
 86186  1  0  0  0  0
 88187  1  0  0  0  0
 88188  1  0  0  0  0
 89189  1  0  0  0  0
 89190  1  0  0  0  0
 89191  1  0  0  0  0
 90192  1  0  0  0  0
 92193  1  0  0  0  0
 93194  1  0  0  0  0
 94195  1  0  0  0  0
 96196  1  0  0  0  0
 96197  1  0  0  0  0
 97198  1  0  0  0  0
 97199  1  0  0  0  0
 97200  1  0  0  0  0
 98201  1  0  0  0  0
102202  1  0  0  0  0
106203  1  0  0  0  0
107204  1  0  0  0  0
108205  1  0  0  0  0
110206  1  0  0  0  0
110207  1  0  0  0  0
111208  1  0  0  0  0
111209  1  0  0  0  0
111210  1  0  0  0  0
112211  1  0  0  0  0
114212  1  0  0  0  0
115213  1  0  0  0  0
116214  1  0  0  0  0
118215  1  0  0  0  0
118216  1  0  0  0  0
119217  1  0  0  0  0
119218  1  0  0  0  0
119219  1  0  0  0  0
120220  1  0  0  0  0
121221  1  0  0  0  0
126222  1  0  0  0  0
129223  1  0  0  0  0
130224  1  0  0  0  0
M  END
