
  xtb     02012220173D
 energy: -246.043327127698 gnorm: 0.000236824457 xtb: 6.4.1 (unknown)
144158  0     0  0            999 V2000
   -5.7170    2.7298    1.0016 C   0  0  0  0  0  0  0  0  0  0  0  0
   -6.1060    3.4493   -0.1043 C   0  0  0  0  0  0  0  0  0  0  0  0
   -5.3981    3.4942   -1.3857 C   0  0  0  0  0  0  0  0  0  0  0  0
   -4.4799    2.7837   -1.7574 O   0  0  0  0  0  0  0  0  0  0  0  0
   -6.0137    4.5922   -2.1545 C   0  0  0  0  0  0  0  0  0  0  0  0
   -5.6524    5.0895   -3.3724 C   0  0  0  0  0  0  0  0  0  0  0  0
   -6.3653    6.1885   -3.9021 C   0  0  0  0  0  0  0  0  0  0  0  0
   -6.0235    6.7543   -5.1455 C   0  0  0  0  0  0  0  0  0  0  0  0
   -6.7206    7.8263   -5.6282 C   0  0  0  0  0  0  0  0  0  0  0  0
   -6.3906    8.3664   -6.8102 F   0  0  0  0  0  0  0  0  0  0  0  0
   -7.7884    8.3760   -4.8920 C   0  0  0  0  0  0  0  0  0  0  0  0
   -8.4528    9.4284   -5.3891 F   0  0  0  0  0  0  0  0  0  0  0  0
   -8.1452    7.8467   -3.6833 C   0  0  0  0  0  0  0  0  0  0  0  0
   -7.4453    6.7429   -3.1566 C   0  0  0  0  0  0  0  0  0  0  0  0
   -7.8017    6.1967   -1.9014 C   0  0  0  0  0  0  0  0  0  0  0  0
   -7.0934    5.1355   -1.4043 C   0  0  0  0  0  0  0  0  0  0  0  0
   -7.2018    4.3953   -0.1478 C   0  0  0  0  0  0  0  0  0  0  0  0
   -8.1884    4.5725    0.7888 C   0  0  0  0  0  0  0  0  0  0  0  0
   -9.2302    5.5150    0.6662 C   0  0  0  0  0  0  0  0  0  0  0  0
  -10.1001    6.2634    0.6275 N   0  0  0  0  0  0  0  0  0  0  0  0
   -8.3258    3.8382    1.9847 C   0  0  0  0  0  0  0  0  0  0  0  0
   -8.5103    3.2828    2.9735 N   0  0  0  0  0  0  0  0  0  0  0  0
   -4.6175    1.8883    1.1941 C   0  0  0  0  0  0  0  0  0  0  0  0
   -4.2589    1.4159    2.4676 C   0  0  0  0  0  0  0  0  0  0  0  0
   -3.0745    0.7180    2.4571 C   0  0  0  0  0  0  0  0  0  0  0  0
   -2.1758    0.0492    3.4660 C   0  0  0  0  0  0  0  0  0  0  0  0
   -2.9212   -1.1847    3.9561 C   0  0  0  0  0  0  0  0  0  0  0  0
   -2.6549   -2.4534    3.4636 C   0  0  0  0  0  0  0  0  0  0  0  0
   -3.3911   -3.5408    3.9000 C   0  0  0  0  0  0  0  0  0  0  0  0
   -4.4105   -3.3897    4.8292 C   0  0  0  0  0  0  0  0  0  0  0  0
   -5.2388   -4.5650    5.2610 C   0  0  0  0  0  0  0  0  0  0  0  0
   -6.4439   -4.7368    4.3339 C   0  0  0  0  0  0  0  0  0  0  0  0
   -4.6787   -2.1144    5.3115 C   0  0  0  0  0  0  0  0  0  0  0  0
   -3.9469   -1.0256    4.8806 C   0  0  0  0  0  0  0  0  0  0  0  0
   -1.7382    0.9312    4.6157 C   0  0  0  0  0  0  0  0  0  0  0  0
   -1.2987    0.3577    5.8027 C   0  0  0  0  0  0  0  0  0  0  0  0
   -0.8596    1.1515    6.8446 C   0  0  0  0  0  0  0  0  0  0  0  0
   -0.8418    2.5355    6.7290 C   0  0  0  0  0  0  0  0  0  0  0  0
   -0.4186    3.3950    7.8847 C   0  0  0  0  0  0  0  0  0  0  0  0
   -1.6138    3.6908    8.7933 C   0  0  0  0  0  0  0  0  0  0  0  0
   -1.2702    3.1028    5.5367 C   0  0  0  0  0  0  0  0  0  0  0  0
   -1.7066    2.3127    4.4890 C   0  0  0  0  0  0  0  0  0  0  0  0
   -0.9842   -0.2973    2.5914 C   0  0  0  0  0  0  0  0  0  0  0  0
   -1.2592   -0.0472    1.2430 C   0  0  0  0  0  0  0  0  0  0  0  0
   -2.5369    0.5866    1.1709 C   0  0  0  0  0  0  0  0  0  0  0  0
   -3.4668    1.3670   -0.0304 S   0  0  0  0  0  0  0  0  0  0  0  0
   -0.3274   -0.3776    0.2320 C   0  0  0  0  0  0  0  0  0  0  0  0
   -0.6366   -0.3129   -1.1399 C   0  0  0  0  0  0  0  0  0  0  0  0
    0.2681   -0.7145   -2.0952 C   0  0  0  0  0  0  0  0  0  0  0  0
    1.5398   -1.1115   -1.6965 C   0  0  0  0  0  0  0  0  0  0  0  0
    2.7019   -1.5447   -2.5718 C   0  0  0  0  0  0  0  0  0  0  0  0
    2.8769   -0.5796   -3.7234 C   0  0  0  0  0  0  0  0  0  0  0  0
    2.1892   -0.7873   -4.9131 C   0  0  0  0  0  0  0  0  0  0  0  0
    2.3082    0.1094   -5.9570 C   0  0  0  0  0  0  0  0  0  0  0  0
    3.1106    1.2375   -5.8409 C   0  0  0  0  0  0  0  0  0  0  0  0
    3.2021    2.2265   -6.9666 C   0  0  0  0  0  0  0  0  0  0  0  0
    2.0365    3.2157   -6.9044 C   0  0  0  0  0  0  0  0  0  0  0  0
    3.7827    1.4481   -4.6448 C   0  0  0  0  0  0  0  0  0  0  0  0
    3.6666    0.5539   -3.5959 C   0  0  0  0  0  0  0  0  0  0  0  0
    2.5639   -2.9826   -3.0560 C   0  0  0  0  0  0  0  0  0  0  0  0
    1.5943   -3.8407   -2.5597 C   0  0  0  0  0  0  0  0  0  0  0  0
    1.5442   -5.1574   -2.9828 C   0  0  0  0  0  0  0  0  0  0  0  0
    2.4592   -5.6499   -3.9023 C   0  0  0  0  0  0  0  0  0  0  0  0
    2.4352   -7.0931   -4.3151 C   0  0  0  0  0  0  0  0  0  0  0  0
    3.3072   -7.9293   -3.3760 C   0  0  0  0  0  0  0  0  0  0  0  0
    3.4318   -4.7863   -4.3916 C   0  0  0  0  0  0  0  0  0  0  0  0
    3.4865   -3.4714   -3.9737 C   0  0  0  0  0  0  0  0  0  0  0  0
    3.8195   -1.5596   -1.5601 C   0  0  0  0  0  0  0  0  0  0  0  0
    5.1840   -1.7249   -1.5650 C   0  0  0  0  0  0  0  0  0  0  0  0
    5.7454   -1.6199   -0.2809 C   0  0  0  0  0  0  0  0  0  0  0  0
    4.5053   -1.3685    0.9416 S   0  0  0  0  0  0  0  0  0  0  0  0
    3.3035   -1.3710   -0.2717 C   0  0  0  0  0  0  0  0  0  0  0  0
    1.9034   -1.1015   -0.3456 C   0  0  0  0  0  0  0  0  0  0  0  0
    0.9568   -0.8158    0.6654 C   0  0  0  0  0  0  0  0  0  0  0  0
    1.2341   -0.9735    2.0364 C   0  0  0  0  0  0  0  0  0  0  0  0
    0.2659   -0.7586    2.9897 C   0  0  0  0  0  0  0  0  0  0  0  0
    7.1267   -1.6562   -0.0743 C   0  0  0  0  0  0  0  0  0  0  0  0
    7.8682   -1.4515    1.0665 C   0  0  0  0  0  0  0  0  0  0  0  0
    7.3319   -1.1439    2.3934 C   0  0  0  0  0  0  0  0  0  0  0  0
    6.1658   -1.1138    2.7429 O   0  0  0  0  0  0  0  0  0  0  0  0
    8.5040   -0.8696    3.2521 C   0  0  0  0  0  0  0  0  0  0  0  0
    8.5242   -0.4923    4.5787 C   0  0  0  0  0  0  0  0  0  0  0  0
    9.7572   -0.2709    5.1808 C   0  0  0  0  0  0  0  0  0  0  0  0
    9.8558    0.2080    6.8300 Cl  0  0  0  0  0  0  0  0  0  0  0  0
   10.9235   -0.4378    4.4317 C   0  0  0  0  0  0  0  0  0  0  0  0
   12.1078   -0.2190    5.0161 F   0  0  0  0  0  0  0  0  0  0  0  0
   10.9092   -0.8201    3.0988 C   0  0  0  0  0  0  0  0  0  0  0  0
    9.6788   -1.0389    2.5000 C   0  0  0  0  0  0  0  0  0  0  0  0
    9.3150   -1.4299    1.1378 C   0  0  0  0  0  0  0  0  0  0  0  0
   10.2086   -1.7235    0.1398 C   0  0  0  0  0  0  0  0  0  0  0  0
   11.6101   -1.6761    0.2967 C   0  0  0  0  0  0  0  0  0  0  0  0
   12.7562   -1.6553    0.3553 N   0  0  0  0  0  0  0  0  0  0  0  0
    9.8805   -2.1223   -1.1728 C   0  0  0  0  0  0  0  0  0  0  0  0
    9.7036   -2.4547   -2.2583 N   0  0  0  0  0  0  0  0  0  0  0  0
   -6.3011    2.8750    1.9029 H   0  0  0  0  0  0  0  0  0  0  0  0
   -4.8283    4.6576   -3.9196 H   0  0  0  0  0  0  0  0  0  0  0  0
   -5.2075    6.3455   -5.7206 H   0  0  0  0  0  0  0  0  0  0  0  0
   -8.9655    8.2798   -3.1325 H   0  0  0  0  0  0  0  0  0  0  0  0
   -8.6208    6.6427   -1.3612 H   0  0  0  0  0  0  0  0  0  0  0  0
   -4.8483    1.6351    3.3400 H   0  0  0  0  0  0  0  0  0  0  0  0
   -1.8682   -2.6007    2.7381 H   0  0  0  0  0  0  0  0  0  0  0  0
   -3.1662   -4.5235    3.5102 H   0  0  0  0  0  0  0  0  0  0  0  0
   -4.6340   -5.4737    5.2369 H   0  0  0  0  0  0  0  0  0  0  0  0
   -5.5906   -4.4148    6.2835 H   0  0  0  0  0  0  0  0  0  0  0  0
   -7.0664   -3.8452    4.3533 H   0  0  0  0  0  0  0  0  0  0  0  0
   -7.0453   -5.5876    4.6455 H   0  0  0  0  0  0  0  0  0  0  0  0
   -6.1137   -4.9005    3.3104 H   0  0  0  0  0  0  0  0  0  0  0  0
   -5.4702   -1.9727    6.0333 H   0  0  0  0  0  0  0  0  0  0  0  0
   -4.1645   -0.0426    5.2720 H   0  0  0  0  0  0  0  0  0  0  0  0
   -1.3121   -0.7169    5.9161 H   0  0  0  0  0  0  0  0  0  0  0  0
   -0.5245    0.6888    7.7620 H   0  0  0  0  0  0  0  0  0  0  0  0
   -0.0046    4.3355    7.5161 H   0  0  0  0  0  0  0  0  0  0  0  0
    0.3541    2.8839    8.4625 H   0  0  0  0  0  0  0  0  0  0  0  0
   -2.0333    2.7648    9.1803 H   0  0  0  0  0  0  0  0  0  0  0  0
   -1.3095    4.3119    9.6325 H   0  0  0  0  0  0  0  0  0  0  0  0
   -2.3907    4.2123    8.2387 H   0  0  0  0  0  0  0  0  0  0  0  0
   -1.2597    4.1775    5.4235 H   0  0  0  0  0  0  0  0  0  0  0  0
   -2.0270    2.7768    3.5673 H   0  0  0  0  0  0  0  0  0  0  0  0
   -1.6156    0.0348   -1.4334 H   0  0  0  0  0  0  0  0  0  0  0  0
    0.0070   -0.7012   -3.1423 H   0  0  0  0  0  0  0  0  0  0  0  0
    1.5674   -1.6638   -5.0271 H   0  0  0  0  0  0  0  0  0  0  0  0
    1.7731   -0.0716   -6.8783 H   0  0  0  0  0  0  0  0  0  0  0  0
    4.1441    2.7744   -6.9042 H   0  0  0  0  0  0  0  0  0  0  0  0
    3.1753    1.7004   -7.9232 H   0  0  0  0  0  0  0  0  0  0  0  0
    1.0879    2.6885   -6.9783 H   0  0  0  0  0  0  0  0  0  0  0  0
    2.1010    3.9312   -7.7207 H   0  0  0  0  0  0  0  0  0  0  0  0
    2.0522    3.7596   -5.9625 H   0  0  0  0  0  0  0  0  0  0  0  0
    4.4082    2.3221   -4.5313 H   0  0  0  0  0  0  0  0  0  0  0  0
    4.1973    0.7392   -2.6731 H   0  0  0  0  0  0  0  0  0  0  0  0
    0.8706   -3.4857   -1.8407 H   0  0  0  0  0  0  0  0  0  0  0  0
    0.7792   -5.8114   -2.5891 H   0  0  0  0  0  0  0  0  0  0  0  0
    2.8085   -7.1931   -5.3361 H   0  0  0  0  0  0  0  0  0  0  0  0
    1.4111   -7.4704   -4.2863 H   0  0  0  0  0  0  0  0  0  0  0  0
    2.9437   -7.8527   -2.3536 H   0  0  0  0  0  0  0  0  0  0  0  0
    4.3357   -7.5762   -3.3999 H   0  0  0  0  0  0  0  0  0  0  0  0
    3.2918   -8.9753   -3.6730 H   0  0  0  0  0  0  0  0  0  0  0  0
    4.1556   -5.1485   -5.1073 H   0  0  0  0  0  0  0  0  0  0  0  0
    4.2461   -2.8128   -4.3689 H   0  0  0  0  0  0  0  0  0  0  0  0
    5.7923   -1.8814   -2.4380 H   0  0  0  0  0  0  0  0  0  0  0  0
    2.2215   -1.2962    2.3308 H   0  0  0  0  0  0  0  0  0  0  0  0
    0.4763   -0.9225    4.0353 H   0  0  0  0  0  0  0  0  0  0  0  0
    7.6839   -1.8353   -0.9859 H   0  0  0  0  0  0  0  0  0  0  0  0
    7.6056   -0.3700    5.1300 H   0  0  0  0  0  0  0  0  0  0  0  0
   11.8473   -0.9284    2.5797 H   0  0  0  0  0  0  0  0  0  0  0  0
  1  2  2  0  0  0  0
  2  3  1  0  0  0  0
  3  4  2  0  0  0  0
  3  5  1  0  0  0  0
  5  6  2  0  0  0  0
  6  7  1  0  0  0  0
  7  8  2  0  0  0  0
  8  9  1  0  0  0  0
  9 10  1  0  0  0  0
  9 11  2  0  0  0  0
 11 12  1  0  0  0  0
 11 13  1  0  0  0  0
 13 14  2  0  0  0  0
 14 15  1  0  0  0  0
 15 16  2  0  0  0  0
 16 17  1  0  0  0  0
 17 18  2  0  0  0  0
 18 19  1  0  0  0  0
 19 20  3  0  0  0  0
 18 21  1  0  0  0  0
 21 22  3  0  0  0  0
  1 23  1  0  0  0  0
 23 24  2  0  0  0  0
 24 25  1  0  0  0  0
 25 26  1  0  0  0  0
 26 27  1  0  0  0  0
 27 28  2  0  0  0  0
 28 29  1  0  0  0  0
 29 30  2  0  0  0  0
 30 31  1  0  0  0  0
 31 32  1  0  0  0  0
 30 33  1  0  0  0  0
 33 34  2  0  0  0  0
 26 35  1  0  0  0  0
 35 36  2  0  0  0  0
 36 37  1  0  0  0  0
 37 38  2  0  0  0  0
 38 39  1  0  0  0  0
 39 40  1  0  0  0  0
 38 41  1  0  0  0  0
 41 42  2  0  0  0  0
 26 43  1  0  0  0  0
 43 44  2  0  0  0  0
 44 45  1  0  0  0  0
 45 46  1  0  0  0  0
 44 47  1  0  0  0  0
 47 48  2  0  0  0  0
 48 49  1  0  0  0  0
 49 50  2  0  0  0  0
 50 51  1  0  0  0  0
 51 52  1  0  0  0  0
 52 53  2  0  0  0  0
 53 54  1  0  0  0  0
 54 55  2  0  0  0  0
 55 56  1  0  0  0  0
 56 57  1  0  0  0  0
 55 58  1  0  0  0  0
 58 59  2  0  0  0  0
 51 60  1  0  0  0  0
 60 61  2  0  0  0  0
 61 62  1  0  0  0  0
 62 63  2  0  0  0  0
 63 64  1  0  0  0  0
 64 65  1  0  0  0  0
 63 66  1  0  0  0  0
 66 67  2  0  0  0  0
 51 68  1  0  0  0  0
 68 69  1  0  0  0  0
 69 70  2  0  0  0  0
 70 71  1  0  0  0  0
 71 72  1  0  0  0  0
 72 73  1  0  0  0  0
 73 74  2  0  0  0  0
 74 75  1  0  0  0  0
 75 76  2  0  0  0  0
 70 77  1  0  0  0  0
 77 78  2  0  0  0  0
 78 79  1  0  0  0  0
 79 80  2  0  0  0  0
 79 81  1  0  0  0  0
 81 82  2  0  0  0  0
 82 83  1  0  0  0  0
 83 84  1  0  0  0  0
 83 85  2  0  0  0  0
 85 86  1  0  0  0  0
 85 87  1  0  0  0  0
 87 88  2  0  0  0  0
 88 89  1  0  0  0  0
 89 90  2  0  0  0  0
 90 91  1  0  0  0  0
 91 92  3  0  0  0  0
 90 93  1  0  0  0  0
 93 94  3  0  0  0  0
 17  2  1  0  0  0  0
 46 23  1  0  0  0  0
 74 47  1  0  0  0  0
 89 78  1  0  0  0  0
 16  5  1  0  0  0  0
 45 25  2  0  0  0  0
 73 50  1  0  0  0  0
 88 81  1  0  0  0  0
 14  7  1  0  0  0  0
 34 27  1  0  0  0  0
 42 35  1  0  0  0  0
 76 43  1  0  0  0  0
 59 52  1  0  0  0  0
 67 60  1  0  0  0  0
 72 68  2  0  0  0  0
  1 95  1  0  0  0  0
  6 96  1  0  0  0  0
  8 97  1  0  0  0  0
 13 98  1  0  0  0  0
 15 99  1  0  0  0  0
 24100  1  0  0  0  0
 28101  1  0  0  0  0
 29102  1  0  0  0  0
 31103  1  0  0  0  0
 31104  1  0  0  0  0
 32105  1  0  0  0  0
 32106  1  0  0  0  0
 32107  1  0  0  0  0
 33108  1  0  0  0  0
 34109  1  0  0  0  0
 36110  1  0  0  0  0
 37111  1  0  0  0  0
 39112  1  0  0  0  0
 39113  1  0  0  0  0
 40114  1  0  0  0  0
 40115  1  0  0  0  0
 40116  1  0  0  0  0
 41117  1  0  0  0  0
 42118  1  0  0  0  0
 48119  1  0  0  0  0
 49120  1  0  0  0  0
 53121  1  0  0  0  0
 54122  1  0  0  0  0
 56123  1  0  0  0  0
 56124  1  0  0  0  0
 57125  1  0  0  0  0
 57126  1  0  0  0  0
 57127  1  0  0  0  0
 58128  1  0  0  0  0
 59129  1  0  0  0  0
 61130  1  0  0  0  0
 62131  1  0  0  0  0
 64132  1  0  0  0  0
 64133  1  0  0  0  0
 65134  1  0  0  0  0
 65135  1  0  0  0  0
 65136  1  0  0  0  0
 66137  1  0  0  0  0
 67138  1  0  0  0  0
 69139  1  0  0  0  0
 75140  1  0  0  0  0
 76141  1  0  0  0  0
 77142  1  0  0  0  0
 82143  1  0  0  0  0
 87144  1  0  0  0  0
M  END
