112

C         -2.53990        3.07030        4.22670
C         -2.04280        2.90950        5.49960
C         -1.08080        1.88930        5.92170
O         -0.62430        0.97170        5.26020
C         -0.75640        2.18590        7.32860
C          0.11990        1.54580        8.15560
C          0.28570        2.01980        9.47630
C          1.18100        1.40260       10.37080
C          1.32460        1.88440       11.64190
F          2.17850        1.29660       12.49170
C          0.58040        3.00030       12.07280
F          0.74130        3.45030       13.32450
C         -0.29630        3.62040       11.22710
C         -0.46670        3.14900        9.91010
C         -1.36960        3.78800        9.02840
C         -1.51360        3.31320        7.75200
C         -2.34290        3.76040        6.63340
C         -3.24700        4.79090        6.69010
C         -3.48630        5.56750        7.84310
N         -3.72960        6.23670        8.74370
C         -4.07740        5.22160        5.63510
N         -4.78980        5.62990        4.83120
C         -2.29940        2.34300        3.05770
C         -2.85290        2.71250        1.81980
C         -2.46640        1.88090        0.79380
C         -2.64760        1.80900       -0.69520
C         -4.08250        1.38880       -1.08570
C         -5.18190        2.30510       -0.56590
C         -2.24160        3.12740       -1.37440
C         -0.79780        3.51920       -1.08270
C         -1.69700        0.67380       -1.04570
C         -1.14630        0.09790        0.11700
C         -1.61660        0.85930        1.23150
S         -1.28390        0.91860        2.90520
C         -0.25150       -0.98430        0.05010
O          0.26480       -1.60200        1.15140
C         -0.65650       -2.20000        2.05900
C         -0.00510       -2.29270        3.42810
C          0.17940       -1.34240       -1.21470
C         -0.32980       -0.73070       -2.38930
C         -1.35380        0.23510       -2.31820
O         -1.98570        0.82610       -3.37080
C         -2.43520        0.03830       -4.46280
C         -3.16810       -1.22810       -4.04200
C          0.44310       -1.25420       -3.47850
C          1.38050       -2.18270       -3.01800
C          1.24700       -2.37100       -1.53900
C          2.57180       -2.07420       -0.81550
C          3.08950       -0.66660       -1.08590
C          0.71010       -3.77420       -1.17410
C          1.53760       -4.93450       -1.71040
C          2.24470       -2.64200       -3.99310
C          1.99510       -2.07050       -5.23730
S          0.63980       -0.94110       -5.15000
C          2.59220       -2.20700       -6.49930
C          3.68530       -2.92120       -6.92410
C          4.61580       -3.74450       -6.12540
O          4.55830       -4.05200       -4.95220
C          5.68960       -4.15130       -7.05770
C          6.81380       -4.90160       -6.77930
C          7.68090       -5.14080       -7.83420
F          8.79060       -5.86530       -7.61420
C          7.44530       -4.65630       -9.11230
C          6.30920       -3.90650       -9.37670
C          5.42040       -3.65150       -8.34160
C          4.15760       -2.91540       -8.29950
C          3.53950       -2.36750       -9.39390
C          4.06760       -2.40690      -10.70240
N          4.43600       -2.39630      -11.78950
C          2.29000       -1.71160       -9.41480
N          1.27960       -1.17860       -9.53920
H         -3.21200        3.90610        4.07320
H          0.68140        0.69260        7.80660
H          1.75840        0.54750       10.05590
H         -0.85830        4.47380       11.57310
H         -1.92020        4.64150        9.38860
H         -3.48610        3.57660        1.72420
H         -4.25500        0.37900       -0.70280
H         -4.12760        1.35130       -2.17440
H         -5.19530        2.32020        0.52060
H         -6.14760        1.94190       -0.91040
H         -5.05610        3.32060       -0.93030
H         -2.37430        3.01390       -2.45010
H         -2.90320        3.91990       -1.02320
H         -0.63560        3.64350       -0.01390
H         -0.11060        2.75970       -1.44850
H         -0.56270        4.45940       -1.57540
H         -1.58560       -1.62420        2.11190
H         -0.90340       -3.20580        1.68510
H         -0.65490       -2.84160        4.10350
H          0.94640       -2.81140        3.34820
H          0.16800       -1.30000        3.83410
H         -1.60670       -0.21160       -5.13380
H         -3.11280        0.70870       -4.99890
H         -3.98450       -0.98770       -3.36460
H         -2.49370       -1.91920       -3.54090
H         -3.57320       -1.71610       -4.92360
H          2.41130       -2.19820        0.25510
H          3.31820       -2.79710       -1.14570
H          2.37200        0.07930       -0.75100
H          4.02250       -0.50770       -0.55100
H          3.27580       -0.51600       -2.14730
H          0.66560       -3.83560       -0.08650
H         -0.31000       -3.86000       -1.55960
H          2.56170       -4.88960       -1.35210
H          1.54830       -4.93810       -2.79700
H          1.10310       -5.87300       -1.37300
H          3.04420       -3.34210       -3.83870
H          2.09820       -1.61440       -7.26020
H          7.00800       -5.28170       -5.78910
H          8.15630       -4.87090       -9.89450
H          6.14100       -3.53560      -10.37380
