133

C         -6.44270        5.48310       -2.79690
C         -7.57180        5.44170       -2.01820
C         -7.74830        4.64700       -0.80140
O         -6.98710        3.80950       -0.34310
C         -9.03360        5.06910       -0.22100
C         -9.61810        4.64810        0.94840
C        -10.84550        5.21540        1.30560
C        -11.65040        4.96630        2.45290
C        -12.77770        5.71040        2.46870
S        -12.93750        6.75580        1.09990
C        -11.42900        6.18610        0.45780
C        -10.84010        6.60830       -0.72900
C         -9.62800        6.03930       -1.06770
C         -8.75520        6.25210       -2.21790
C         -9.04190        7.04260       -3.30290
C        -10.22020        7.80630       -3.43000
N        -11.15560        8.45300       -3.59040
C         -8.23940        7.18440       -4.45420
N         -7.66260        7.34210       -5.43560
C         -5.24940        4.76020       -2.70710
C         -4.18200        4.99020       -3.59320
C         -4.19900        6.06360       -4.59810
C         -4.14400        7.38290       -4.15690
C         -4.16520        8.42750       -5.05990
C         -4.25020        8.15830       -6.41460
C         -4.31200        6.84930       -6.85430
C         -4.28550        5.78520       -5.96340
C         -4.44720        4.37940       -6.46680
C         -5.90740        3.93690       -6.34530
C         -3.12220        4.12580       -3.35350
S         -1.52920        3.97280       -4.07160
C         -1.18370        2.70620       -2.94390
C         -0.11180        1.88980       -2.56510
C          1.22860        1.87970       -3.00950
C          2.17380        1.04710       -2.32870
N          3.40150        1.17760       -2.80590
S          3.36760        2.25510       -4.01480
N          1.78580        2.59710       -3.97210
C          1.71020        0.18480       -1.31120
C          2.39010       -0.79270       -0.57350
S          3.99420       -1.41180       -0.38890
C          3.38050       -2.58740        0.75210
C          4.00120       -3.61770        1.47430
C          5.42210       -3.97480        1.35540
C          6.45200       -3.06580        1.62190
C          6.18160       -1.65710        2.07460
C          6.99850       -1.24540        3.29820
C          7.76370       -3.50450        1.47410
C          8.06360       -4.79990        1.10080
C          7.03920       -5.69350        0.83800
C          5.72970       -5.27550        0.95740
C          3.06670       -4.35650        2.19710
S          1.42700       -3.76190        1.97310
C          1.99250       -2.50660        0.93620
C          1.43310       -1.45690        0.19990
N          0.19800       -0.90920       -0.01620
C          0.33760        0.12430       -0.92560
C         -0.56770        1.06720       -1.48920
N         -1.87280        1.42220       -1.20970
C         -2.24590        2.40700       -2.08300
C         -3.35940        3.22420       -2.29950
S         -4.90890        3.45650       -1.57520
C         -2.76430        1.08020       -0.12580
C         -3.90360        0.17220       -0.58820
C         -0.96700       -1.57230        0.52280
C         -1.14910       -1.29220        2.01460
C          3.23650       -5.55860        2.92810
C          4.37060       -5.91520        3.59460
C          5.41700       -4.96340        4.03630
O          5.29150       -3.76820        4.19320
C          6.57790       -5.79060        4.40250
C          7.86140       -5.34660        4.70810
C          8.75710       -6.35920        4.95110
C          8.39840       -7.71370        4.91340
C          7.12990       -8.16410        4.63580
C          6.20470       -7.14940        4.36990
C          4.79720       -7.24340        3.98430
C          4.04680       -8.39040        3.96170
C          2.69050       -8.45400        3.58230
N          1.58850       -8.57670        3.28260
C          4.51990       -9.66130        4.34750
N          4.83990      -10.72220        4.64880
C          9.80210       -8.17560        5.21840
C         10.61930       -8.71050        4.02300
C         12.05240       -8.62610        4.49650
C         12.39090       -7.34360        4.53190
C         11.19170       -6.53990        4.08360
C         10.58700       -7.51340        3.06370
C         10.20080       -6.66540        5.26050
H         -6.44040        6.19440       -3.61450
H         -9.14170        3.90580        1.57000
H        -11.38320        4.26200        3.21990
H        -13.55050        5.71880        3.21260
H        -11.32390        7.35280       -1.33880
H         -4.07830        7.58020       -3.09580
H         -4.12250        9.44650       -4.70600
H         -4.27700        8.96860       -7.12720
H         -4.39150        6.64340       -7.91180
H         -3.81170        3.69360       -5.90460
H         -4.14650        4.33560       -7.51490
H         -6.04250        2.95040       -6.78280
H         -6.55740        4.64120       -6.85910
H         -6.21110        3.89600       -5.30140
H          5.12760       -1.55470        2.32980
H          6.39910       -0.97570        1.24570
H          8.06590       -1.24490        3.09400
H          6.79120       -1.92890        4.11650
H          6.71300       -0.24200        3.60560
H          8.57150       -2.81190        1.65530
H          9.09380       -5.11090        1.00680
H          7.25770       -6.70610        0.53240
H          4.92400       -5.96030        0.73110
H         -3.19960        2.01430        0.24530
H         -2.19430        0.63530        0.68430
H         -4.56140        0.71390       -1.26200
H         -4.48600       -0.15030        0.26990
H         -3.53110       -0.70510       -1.11330
H         -0.82090       -2.65010        0.38870
H         -1.84300       -1.28480       -0.05160
H         -2.08930       -1.71680        2.35460
H         -1.14690       -0.22500        2.22640
H         -0.34270       -1.74620        2.58350
H          2.40070       -6.24670        2.88770
H          8.09610       -4.29410        4.72250
H          6.86920       -9.20910        4.61290
H          9.92320       -8.77300        6.11970
H         10.28690       -9.67080        3.63850
H         12.63490       -9.47590        4.80020
H         13.31230       -6.90810        4.87130
H         11.37980       -5.52140        3.75450
H         11.23520       -7.66080        2.20120
H          9.58810       -7.23980        2.72850
H         10.58850       -6.25400        6.19050
