120

C          5.29570       -2.05480       -5.30180
C          5.12110       -3.39290       -5.54650
C          3.99560       -4.21040       -5.08860
O          3.09450       -3.87780       -4.33490
C          4.15630       -5.52380       -5.73280
C          3.33180       -6.61910       -5.64860
C          3.69090       -7.76300       -6.36850
C          3.02090       -9.01570       -6.45740
C          3.66470       -9.89390       -7.25700
S          5.11790       -9.26340       -7.95100
C          4.87420       -7.74640       -7.14400
C          5.71080       -6.63890       -7.22660
C          5.34290       -5.51690       -6.50980
C          5.98280       -4.21250       -6.37360
C          7.20300       -3.86240       -6.89520
C          7.86590       -2.63460       -6.68770
N          8.48500       -1.67540       -6.55510
C          7.99190       -4.71650       -7.69290
N          8.67690       -5.36200       -8.35040
C          4.55540       -1.17140       -4.50900
C          4.90480        0.18580       -4.40340
C          5.97850        0.79630       -5.20180
C          5.77110        0.96130       -6.56840
C          6.74910        1.52470       -7.36410
C          7.94830        1.91940       -6.79710
C          8.15890        1.74890       -5.44180
C          7.18590        1.19130       -4.62370
C          7.47960        0.93640       -3.17300
C          7.94990       -0.50650       -2.97310
C          4.08170        0.85860       -3.50980
S          4.00330        2.53460       -2.99920
C          2.64300        2.12900       -2.00870
C          1.71690        2.76020       -1.17150
C          1.55790        4.12930       -0.86360
C          0.43640        4.53050       -0.07150
N          0.38050        5.84130        0.10300
S          1.63850        6.51270       -0.66470
N          2.30000        5.15530       -1.24890
C         -0.41960        3.53430        0.44730
C         -1.51210        3.64910        1.31230
S         -2.42620        4.88290        2.10920
C         -3.38410        3.62690        2.87250
C         -4.45620        3.66580        3.75050
C         -5.12150        4.88240        4.23770
C         -4.50550        5.74820        5.14340
C         -3.16450        5.43210        5.74130
C         -3.31740        4.42680        6.88520
C         -5.20350        6.87340        5.56000
C         -6.47650        7.14500        5.09500
C         -7.08300        6.28080        4.20020
C         -6.40830        5.15250        3.77830
C         -4.89500        2.37040        4.09330
S         -3.96760        1.11580        3.27600
C         -2.99830        2.32010        2.51140
C         -1.93520        2.34690        1.60670
N         -1.15110        1.44280        0.94350
C         -0.22000        2.13990        0.19820
C          0.81850        1.75390       -0.69680
N          1.18680        0.55540       -1.27810
C          2.28560        0.77700       -2.06070
C          3.09980        0.03840       -2.92490
S          3.18280       -1.59020       -3.49140
C          0.58740       -0.75880       -1.29300
C          1.33890       -1.73480       -0.38750
C         -1.34030        0.03640        1.21450
C         -2.52970       -0.53740        0.44390
C         -5.89600        2.17030        5.04240
C         -6.44420        1.00910        5.53860
C         -6.14390       -0.34190        5.07260
O         -5.33420       -0.67420        4.22470
C         -7.03780       -1.24010        5.83560
C         -7.81660       -0.47460        6.72380
C         -8.73760       -1.09860        7.54890
C         -8.86820       -2.47830        7.47640
C         -8.09760       -3.22760        6.60170
Br        -8.32090       -5.10410        6.55190
C         -7.16170       -2.61710        5.75930
Cl        -6.20780       -3.53880        4.67730
C         -7.44720        0.93410        6.57480
C         -7.94920        1.96710        7.32670
C         -7.54950        3.31800        7.24580
N         -7.27350        4.43310        7.26530
C         -8.93500        1.81130        8.32310
N         -9.73860        1.75420        9.14120
H          6.13270       -1.57310       -5.79360
H          2.43660       -6.59380       -5.04670
H          2.10260       -9.23210       -5.94200
H          3.37770      -10.89970       -7.49500
H          6.60010       -6.67580       -7.83320
H          4.83030        0.64750       -6.99930
H          6.57710        1.64840       -8.42270
H          8.72190        2.35210       -7.41300
H          9.10120        2.04580       -5.00520
H          6.59330        1.11800       -2.56300
H          8.26450        1.61740       -2.83980
H          8.26170       -0.66490       -1.94320
H          7.15000       -1.20730       -3.20290
H          8.78800       -0.72290       -3.63150
H         -2.49170        5.02320        4.98630
H         -2.71840        6.34930        6.12910
H         -4.02670        4.79940        7.62060
H         -3.68500        3.47280        6.51270
H         -2.36030        4.26030        7.37400
H         -4.73930        7.54290        6.26940
H         -6.99950        8.02500        5.43700
H         -8.07960        6.47980        3.83650
H         -6.87080        4.46970        3.07900
H         -0.46350       -0.68560       -1.03010
H          0.64770       -1.12930       -2.32170
H          1.46040       -1.33640        0.61810
H          0.79920       -2.67570       -0.33300
H          2.32730       -1.93190       -0.79330
H         -0.42080       -0.50210        1.00490
H         -1.54530       -0.06100        2.28590
H         -2.47080       -0.30240       -0.61720
H         -2.56110       -1.61620        0.56660
H         -3.45810       -0.12450        0.82870
H         -6.28370        3.09850        5.44520
H         -9.35130       -0.54400        8.23850
H         -9.58080       -2.98280        8.11050
