
  xtb     02022211003D
 energy: -199.743200061963 gnorm: 0.000676880224 xtb: 6.4.1 (unknown)
113128  0     0  0            999 V2000
    5.7668   -4.6270   -2.4168 C   0  0  0  0  0  0  0  0  0  0  0  0
    6.3664   -5.6880   -3.0443 C   0  0  0  0  0  0  0  0  0  0  0  0
    5.9599   -7.1012   -2.9350 C   0  0  0  0  0  0  0  0  0  0  0  0
    5.0814   -7.5698   -2.2357 O   0  0  0  0  0  0  0  0  0  0  0  0
    6.7513   -7.8266   -3.9454 C   0  0  0  0  0  0  0  0  0  0  0  0
    6.7296   -9.1696   -4.2316 C   0  0  0  0  0  0  0  0  0  0  0  0
    7.5671   -9.6336   -5.2511 C   0  0  0  0  0  0  0  0  0  0  0  0
    7.7415  -10.9603   -5.7362 C   0  0  0  0  0  0  0  0  0  0  0  0
    8.6406  -11.0323   -6.7420 C   0  0  0  0  0  0  0  0  0  0  0  0
    9.3315   -9.5045   -7.1654 S   0  0  0  0  0  0  0  0  0  0  0  0
    8.3852   -8.7111   -5.9451 C   0  0  0  0  0  0  0  0  0  0  0  0
    8.4033   -7.3508   -5.6596 C   0  0  0  0  0  0  0  0  0  0  0  0
    7.5759   -6.9104   -4.6444 C   0  0  0  0  0  0  0  0  0  0  0  0
    7.3651   -5.5794   -4.0894 C   0  0  0  0  0  0  0  0  0  0  0  0
    8.0629   -4.4491   -4.4347 C   0  0  0  0  0  0  0  0  0  0  0  0
    7.9332   -3.1922   -3.8089 C   0  0  0  0  0  0  0  0  0  0  0  0
    7.9052   -2.1459   -3.3351 N   0  0  0  0  0  0  0  0  0  0  0  0
    9.0380   -4.4020   -5.4516 C   0  0  0  0  0  0  0  0  0  0  0  0
    9.8368   -4.2965   -6.2697 N   0  0  0  0  0  0  0  0  0  0  0  0
    4.9444   -4.5944   -1.2738 C   0  0  0  0  0  0  0  0  0  0  0  0
    4.8777   -5.3467   -0.1018 C   0  0  0  0  0  0  0  0  0  0  0  0
    5.7611   -6.4717    0.3175 C   0  0  0  0  0  0  0  0  0  0  0  0
    7.2468   -6.1235    0.2711 C   0  0  0  0  0  0  0  0  0  0  0  0
    3.9030   -4.8423    0.7683 C   0  0  0  0  0  0  0  0  0  0  0  0
    3.3241   -5.4019    2.4839 Se  0  0  0  0  0  2  0  0  0  0  0  0
    2.1472   -3.9659    2.3766 C   0  0  0  0  0  0  0  0  0  0  0  0
    1.1282   -3.3720    3.1373 C   0  0  0  0  0  0  0  0  0  0  0  0
    0.4846   -3.7633    4.3329 C   0  0  0  0  0  0  0  0  0  0  0  0
   -0.6637   -3.0247    4.7810 C   0  0  0  0  0  0  0  0  0  0  0  0
   -1.2108   -3.5498    5.8650 N   0  0  0  0  0  0  0  0  0  0  0  0
   -0.3528   -4.8568    6.2922 S   0  0  0  0  0  0  0  0  0  0  0  0
    0.7500   -4.8038    5.1056 N   0  0  0  0  0  0  0  0  0  0  0  0
   -1.0242   -1.8380    4.1036 C   0  0  0  0  0  0  0  0  0  0  0  0
   -1.9790   -0.8475    4.3766 C   0  0  0  0  0  0  0  0  0  0  0  0
   -3.3751   -0.5330    5.5670 Se  0  0  0  0  0  2  0  0  0  0  0  0
   -3.5596    1.1154    4.6426 C   0  0  0  0  0  0  0  0  0  0  0  0
   -4.4320    2.1856    4.7918 C   0  0  0  0  0  0  0  0  0  0  0  0
   -5.5321    2.1798    5.8025 C   0  0  0  0  0  0  0  0  0  0  0  0
   -6.8303    1.6532    5.1866 C   0  0  0  0  0  0  0  0  0  0  0  0
   -4.1763    3.1985    3.8525 C   0  0  0  0  0  0  0  0  0  0  0  0
   -2.8246    2.7917    2.7956 S   0  0  0  0  0  0  0  0  0  0  0  0
   -2.6290    1.2819    3.6034 C   0  0  0  0  0  0  0  0  0  0  0  0
   -1.7626    0.1930    3.4602 C   0  0  0  0  0  0  0  0  0  0  0  0
   -0.7242   -0.1300    2.6206 N   0  0  0  0  0  0  0  0  0  0  0  0
   -0.2846   -1.3876    2.9787 C   0  0  0  0  0  0  0  0  0  0  0  0
    0.6789   -2.2450    2.4031 C   0  0  0  0  0  0  0  0  0  0  0  0
    1.3537   -2.1875    1.1991 N   0  0  0  0  0  0  0  0  0  0  0  0
    2.2526   -3.2271    1.1889 C   0  0  0  0  0  0  0  0  0  0  0  0
    3.2206   -3.7104    0.3028 C   0  0  0  0  0  0  0  0  0  0  0  0
    3.8231   -3.2219   -1.2327 S   0  0  0  0  0  0  0  0  0  0  0  0
    0.8395   -1.6564   -0.0479 C   0  0  0  0  0  0  0  0  0  0  0  0
    0.1604   -2.7491   -0.8732 C   0  0  0  0  0  0  0  0  0  0  0  0
    0.0636    0.9154    1.9973 C   0  0  0  0  0  0  0  0  0  0  0  0
    0.6886    1.8331    3.0474 C   0  0  0  0  0  0  0  0  0  0  0  0
   -4.9305    4.3749    3.7765 C   0  0  0  0  0  0  0  0  0  0  0  0
   -4.8142    5.4664    2.9526 C   0  0  0  0  0  0  0  0  0  0  0  0
   -3.7794    5.6825    1.9383 C   0  0  0  0  0  0  0  0  0  0  0  0
   -2.8943    4.9123    1.6019 O   0  0  0  0  0  0  0  0  0  0  0  0
   -4.0020    7.0341    1.3989 C   0  0  0  0  0  0  0  0  0  0  0  0
   -3.2353    7.6911    0.4389 C   0  0  0  0  0  0  0  0  0  0  0  0
   -3.6721    8.9613    0.1489 C   0  0  0  0  0  0  0  0  0  0  0  0
   -4.7881    9.5368    0.7703 C   0  0  0  0  0  0  0  0  0  0  0  0
   -5.5532    8.8991    1.7180 C   0  0  0  0  0  0  0  0  0  0  0  0
   -5.1283    7.6034    2.0264 C   0  0  0  0  0  0  0  0  0  0  0  0
   -5.6720    6.6343    2.9774 C   0  0  0  0  0  0  0  0  0  0  0  0
   -6.8085    6.8137    3.7254 C   0  0  0  0  0  0  0  0  0  0  0  0
   -7.3606    5.8790    4.6252 C   0  0  0  0  0  0  0  0  0  0  0  0
   -7.8794    5.1752    5.3714 N   0  0  0  0  0  0  0  0  0  0  0  0
   -7.6163    7.9694    3.6887 C   0  0  0  0  0  0  0  0  0  0  0  0
   -8.3230    8.8743    3.7144 N   0  0  0  0  0  0  0  0  0  0  0  0
   -4.6489   10.8290    0.0050 C   0  0  0  0  0  0  0  0  0  0  0  0
   -5.6244   11.0435   -1.1714 C   0  0  0  0  0  0  0  0  0  0  0  0
   -4.9580   12.1168   -2.0015 C   0  0  0  0  0  0  0  0  0  0  0  0
   -3.9010   11.5729   -2.5909 C   0  0  0  0  0  0  0  0  0  0  0  0
   -3.8353   10.1225   -2.1695 C   0  0  0  0  0  0  0  0  0  0  0  0
   -5.3333    9.8160   -2.0444 C   0  0  0  0  0  0  0  0  0  0  0  0
   -3.4046   10.1873   -0.6889 C   0  0  0  0  0  0  0  0  0  0  0  0
    5.8952   -3.6555   -2.8826 H   0  0  0  0  0  0  0  0  0  0  0  0
    6.0888   -9.8424   -3.6829 H   0  0  0  0  0  0  0  0  0  0  0  0
    7.2115  -11.8079   -5.3407 H   0  0  0  0  0  0  0  0  0  0  0  0
    8.9555  -11.9041   -7.2819 H   0  0  0  0  0  0  0  0  0  0  0  0
    9.0391   -6.6873   -6.2215 H   0  0  0  0  0  0  0  0  0  0  0  0
    5.5623   -7.3347   -0.3241 H   0  0  0  0  0  0  0  0  0  0  0  0
    5.4837   -6.7441    1.3423 H   0  0  0  0  0  0  0  0  0  0  0  0
    7.8321   -6.9598    0.6447 H   0  0  0  0  0  0  0  0  0  0  0  0
    7.5690   -5.9062   -0.7438 H   0  0  0  0  0  0  0  0  0  0  0  0
    7.4523   -5.2528    0.8904 H   0  0  0  0  0  0  0  0  0  0  0  0
   -5.7014    3.1758    6.2135 H   0  0  0  0  0  0  0  0  0  0  0  0
   -5.2319    1.5173    6.6209 H   0  0  0  0  0  0  0  0  0  0  0  0
   -7.6120    1.6261    5.9402 H   0  0  0  0  0  0  0  0  0  0  0  0
   -6.6807    0.6476    4.7983 H   0  0  0  0  0  0  0  0  0  0  0  0
   -7.1593    2.2969    4.3744 H   0  0  0  0  0  0  0  0  0  0  0  0
    1.6722   -1.2250   -0.6121 H   0  0  0  0  0  0  0  0  0  0  0  0
    0.1038   -0.8838    0.1661 H   0  0  0  0  0  0  0  0  0  0  0  0
   -0.6496   -3.2004   -0.3038 H   0  0  0  0  0  0  0  0  0  0  0  0
    0.8662   -3.5267   -1.1513 H   0  0  0  0  0  0  0  0  0  0  0  0
   -0.2499   -2.3154   -1.7807 H   0  0  0  0  0  0  0  0  0  0  0  0
   -0.5876    1.4975    1.3383 H   0  0  0  0  0  0  0  0  0  0  0  0
    0.8665    0.4637    1.4179 H   0  0  0  0  0  0  0  0  0  0  0  0
    1.3102    2.5747    2.5540 H   0  0  0  0  0  0  0  0  0  0  0  0
    1.3069    1.2561    3.7322 H   0  0  0  0  0  0  0  0  0  0  0  0
   -0.0769    2.3516    3.6171 H   0  0  0  0  0  0  0  0  0  0  0  0
   -5.7300    4.4149    4.5036 H   0  0  0  0  0  0  0  0  0  0  0  0
   -2.3782    7.2123   -0.0082 H   0  0  0  0  0  0  0  0  0  0  0  0
   -6.4034    9.3611    2.1908 H   0  0  0  0  0  0  0  0  0  0  0  0
   -4.5057   11.7238    0.6078 H   0  0  0  0  0  0  0  0  0  0  0  0
   -6.6564   11.2188   -0.8804 H   0  0  0  0  0  0  0  0  0  0  0  0
   -5.2809   13.1409   -2.0289 H   0  0  0  0  0  0  0  0  0  0  0  0
   -3.1644   12.0520   -3.2090 H   0  0  0  0  0  0  0  0  0  0  0  0
   -3.2378    9.4596   -2.7896 H   0  0  0  0  0  0  0  0  0  0  0  0
   -5.5532    8.8657   -1.5613 H   0  0  0  0  0  0  0  0  0  0  0  0
   -5.8446    9.8633   -3.0044 H   0  0  0  0  0  0  0  0  0  0  0  0
   -2.4315   10.6545   -0.5486 H   0  0  0  0  0  0  0  0  0  0  0  0
  1  2  2  0  0  0  0
  2  3  1  0  0  0  0
  3  4  2  0  0  0  0
  3  5  1  0  0  0  0
  5  6  2  0  0  0  0
  6  7  1  0  0  0  0
  7  8  1  0  0  0  0
  8  9  2  0  0  0  0
  9 10  1  0  0  0  0
 10 11  1  0  0  0  0
 11 12  1  0  0  0  0
 12 13  2  0  0  0  0
 13 14  1  0  0  0  0
 14 15  2  0  0  0  0
 15 16  1  0  0  0  0
 16 17  3  0  0  0  0
 15 18  1  0  0  0  0
 18 19  3  0  0  0  0
  1 20  1  0  0  0  0
 20 21  2  0  0  0  0
 21 22  1  0  0  0  0
 22 23  1  0  0  0  0
 21 24  1  0  0  0  0
 24 25  1  0  0  0  0
 25 26  1  0  0  0  0
 26 27  1  0  0  0  0
 27 28  1  0  0  0  0
 28 29  1  0  0  0  0
 29 30  2  0  0  0  0
 30 31  1  0  0  0  0
 31 32  1  0  0  0  0
 29 33  1  0  0  0  0
 33 34  1  0  0  0  0
 34 35  1  0  0  0  0
 35 36  1  0  0  0  0
 36 37  1  0  0  0  0
 37 38  1  0  0  0  0
 38 39  1  0  0  0  0
 37 40  2  0  0  0  0
 40 41  1  0  0  0  0
 41 42  1  0  0  0  0
 42 43  1  0  0  0  0
 43 44  1  0  0  0  0
 44 45  1  0  0  0  0
 45 46  1  0  0  0  0
 46 47  1  0  0  0  0
 47 48  1  0  0  0  0
 48 49  1  0  0  0  0
 49 50  1  0  0  0  0
 47 51  1  0  0  0  0
 51 52  1  0  0  0  0
 44 53  1  0  0  0  0
 53 54  1  0  0  0  0
 40 55  1  0  0  0  0
 55 56  2  0  0  0  0
 56 57  1  0  0  0  0
 57 58  2  0  0  0  0
 57 59  1  0  0  0  0
 59 60  2  0  0  0  0
 60 61  1  0  0  0  0
 61 62  2  0  0  0  0
 62 63  1  0  0  0  0
 63 64  2  0  0  0  0
 64 65  1  0  0  0  0
 65 66  2  0  0  0  0
 66 67  1  0  0  0  0
 67 68  3  0  0  0  0
 66 69  1  0  0  0  0
 69 70  3  0  0  0  0
 62 71  1  0  0  0  0
 71 72  1  0  0  0  0
 72 73  1  0  0  0  0
 73 74  2  0  0  0  0
 74 75  1  0  0  0  0
 75 76  1  0  0  0  0
 75 77  1  0  0  0  0
 14  2  1  0  0  0  0
 50 20  1  0  0  0  0
 65 56  1  0  0  0  0
 77 71  1  0  0  0  0
 13  5  1  0  0  0  0
 49 24  2  0  0  0  0
 64 59  1  0  0  0  0
 76 72  1  0  0  0  0
 11  7  2  0  0  0  0
 48 26  2  0  0  0  0
 77 61  1  0  0  0  0
 46 27  2  0  0  0  0
 32 28  2  0  0  0  0
 45 33  2  0  0  0  0
 43 34  2  0  0  0  0
 42 36  2  0  0  0  0
  1 78  1  0  0  0  0
  6 79  1  0  0  0  0
  8 80  1  0  0  0  0
  9 81  1  0  0  0  0
 12 82  1  0  0  0  0
 22 83  1  0  0  0  0
 22 84  1  0  0  0  0
 23 85  1  0  0  0  0
 23 86  1  0  0  0  0
 23 87  1  0  0  0  0
 38 88  1  0  0  0  0
 38 89  1  0  0  0  0
 39 90  1  0  0  0  0
 39 91  1  0  0  0  0
 39 92  1  0  0  0  0
 51 93  1  0  0  0  0
 51 94  1  0  0  0  0
 52 95  1  0  0  0  0
 52 96  1  0  0  0  0
 52 97  1  0  0  0  0
 53 98  1  0  0  0  0
 53 99  1  0  0  0  0
 54100  1  0  0  0  0
 54101  1  0  0  0  0
 54102  1  0  0  0  0
 55103  1  0  0  0  0
 60104  1  0  0  0  0
 63105  1  0  0  0  0
 71106  1  0  0  0  0
 72107  1  0  0  0  0
 73108  1  0  0  0  0
 74109  1  0  0  0  0
 75110  1  0  0  0  0
 76111  1  0  0  0  0
 76112  1  0  0  0  0
 77113  1  0  0  0  0
M  END
