107

C         -5.60830       -1.38980        5.64090
C         -6.24390       -0.23290        5.30460
C         -7.72330       -0.14000        5.40370
O         -8.46380       -0.92140        5.95860
C         -8.08630        1.06800        4.63710
C         -9.33950        1.54730        4.34200
C         -9.43000        2.71990        3.58510
C        -10.59190        3.41970        3.15230
C        -10.29650        4.52310        2.43160
S         -8.59860        4.78540        2.22960
C         -8.24360        3.35930        3.15280
C         -6.97430        2.88100        3.45650
C         -6.90360        1.72560        4.20900
C         -5.75400        1.00630        4.74330
C         -4.50130        1.53480        4.93040
C         -4.07460        2.76530        4.39700
N         -3.66160        3.74210        3.95630
C         -3.53170        0.93600        5.76020
N         -2.74350        0.50760        6.47720
C         -4.32180       -1.83370        5.26500
C         -3.54080       -2.76370        5.93860
C         -3.89860       -3.37680        7.24970
C         -3.63240       -2.39390        8.39220
C         -2.31920       -2.96800        5.29000
C         -2.16850       -2.24830        4.09710
S         -3.55680       -1.27670        3.77650
C         -0.92770       -2.48960        3.50250
C         -0.15570       -3.38700        4.24890
S         -0.92840       -3.94890        5.68760
C          1.04030       -3.57710        3.54540
C          2.11840       -4.45230        3.79790
N          2.28990       -5.28460        4.81340
S          3.66490       -6.10430        4.57530
N          4.09290       -5.43100        3.16740
C          3.17500       -4.53610        2.83590
C          3.14510       -3.67610        1.71720
C          4.07620       -3.50250        0.68470
S          5.60710       -4.13300        0.18810
C          5.61900       -2.98490       -1.13030
C          6.52900       -2.70660       -2.14220
C          6.11080       -1.67840       -2.97200
S          4.52010       -1.08720       -2.50650
C          4.47150       -2.17440       -1.17190
C          3.59630       -2.46710       -0.12350
N          2.40300       -1.99690        0.36440
C          2.03410       -0.64850       -0.01740
C          2.88620        0.38470        0.71830
C          2.09590       -2.73380        1.50060
C          0.97940       -2.75350        2.38070
N         -0.25020       -2.12070        2.37280
C         -0.94660       -1.37090        1.35360
C         -0.97060        0.12530        1.66730
C          6.81410       -1.24360       -4.11490
C          6.56470       -0.23780       -4.99620
C          7.17220       -0.31520       -6.35370
O          8.10840       -1.00470       -6.68890
C          6.34380        0.56630       -7.19760
C          6.41930        0.72170       -8.57960
C          5.47930        1.57900       -9.09830
C          4.52830        2.23540       -8.30480
C          4.45260        2.10570       -6.93790
C          5.40180        1.23970       -6.39070
C          5.65560        0.88620       -4.99510
C          5.32390        1.65290       -3.90850
C          4.46880        2.77070       -3.96100
N          3.75360        3.66880       -3.94060
C          5.89470        1.46710       -2.63200
N          6.38220        1.39130       -1.59530
C          3.88610        2.90770       -9.49250
C          2.55110        2.32360      -10.01820
C          2.54350        0.86230       -9.64350
C          3.44780        0.24690      -10.39360
C          4.08350        1.28120      -11.28930
C          2.88540        2.21700      -11.51480
C          4.95020        2.18220      -10.37500
H         -6.20140       -2.09000        6.22230
H        -10.22380        1.03570        4.68910
H        -11.59240        3.09870        3.37920
H        -10.97860        5.22380        1.99070
H         -6.09600        3.39780        3.10560
H         -3.29180       -4.27330        7.39150
H         -4.95250       -3.66360        7.25410
H         -4.23370       -1.49640        8.26920
H         -3.87750       -2.85490        9.34530
H         -2.58570       -2.10230        8.40150
H          7.46940       -3.21040       -2.26980
H          0.98650       -0.46020        0.17750
H          2.20360       -0.56540       -1.09510
H          2.76560        0.28010        1.79480
H          3.93870        0.26340        0.47440
H          2.58150        1.38570        0.42570
H         -0.50500       -1.58980        0.38040
H         -1.97880       -1.73820        1.33030
H         -1.55470        0.30500        2.56630
H         -1.42950        0.67080        0.84750
H          0.02970        0.51540        1.83690
H          7.64500       -1.88540       -4.39530
H          7.16450        0.19710       -9.15680
H          3.71750        2.61260       -6.33400
H          3.88690        3.99570       -9.48240
H          1.66900        2.89480       -9.74160
H          1.94090        0.44900       -8.85590
H          3.75170       -0.78300      -10.35770
H          4.59700        0.90340      -12.16950
H          2.08890        1.74960      -12.09200
H          3.15790        3.16920      -11.96770
H          5.64870        2.79690      -10.93910
