
  xtb     02022204453D
 energy: -219.281268683924 gnorm: 0.000714607656 xtb: 6.4.1 (unknown)
120134  0     0  0            999 V2000
    5.2957   -2.0548   -5.3018 C   0  0  0  0  0  0  0  0  0  0  0  0
    5.1211   -3.3929   -5.5465 C   0  0  0  0  0  0  0  0  0  0  0  0
    3.9956   -4.2104   -5.0886 C   0  0  0  0  0  0  0  0  0  0  0  0
    3.0945   -3.8778   -4.3349 O   0  0  0  0  0  0  0  0  0  0  0  0
    4.1563   -5.5238   -5.7328 C   0  0  0  0  0  0  0  0  0  0  0  0
    3.3318   -6.6191   -5.6486 C   0  0  0  0  0  0  0  0  0  0  0  0
    3.6909   -7.7630   -6.3685 C   0  0  0  0  0  0  0  0  0  0  0  0
    3.0209   -9.0157   -6.4574 C   0  0  0  0  0  0  0  0  0  0  0  0
    3.6647   -9.8939   -7.2570 C   0  0  0  0  0  0  0  0  0  0  0  0
    5.1179   -9.2634   -7.9510 S   0  0  0  0  0  0  0  0  0  0  0  0
    4.8742   -7.7464   -7.1440 C   0  0  0  0  0  0  0  0  0  0  0  0
    5.7108   -6.6389   -7.2266 C   0  0  0  0  0  0  0  0  0  0  0  0
    5.3429   -5.5169   -6.5098 C   0  0  0  0  0  0  0  0  0  0  0  0
    5.9828   -4.2125   -6.3736 C   0  0  0  0  0  0  0  0  0  0  0  0
    7.2030   -3.8624   -6.8952 C   0  0  0  0  0  0  0  0  0  0  0  0
    7.8659   -2.6346   -6.6877 C   0  0  0  0  0  0  0  0  0  0  0  0
    8.4850   -1.6754   -6.5551 N   0  0  0  0  0  0  0  0  0  0  0  0
    7.9919   -4.7165   -7.6929 C   0  0  0  0  0  0  0  0  0  0  0  0
    8.6769   -5.3620   -8.3504 N   0  0  0  0  0  0  0  0  0  0  0  0
    4.5554   -1.1714   -4.5090 C   0  0  0  0  0  0  0  0  0  0  0  0
    4.9048    0.1858   -4.4034 C   0  0  0  0  0  0  0  0  0  0  0  0
    5.9785    0.7963   -5.2018 C   0  0  0  0  0  0  0  0  0  0  0  0
    5.7711    0.9613   -6.5684 C   0  0  0  0  0  0  0  0  0  0  0  0
    6.7491    1.5247   -7.3641 C   0  0  0  0  0  0  0  0  0  0  0  0
    7.9483    1.9194   -6.7971 C   0  0  0  0  0  0  0  0  0  0  0  0
    8.1589    1.7489   -5.4418 C   0  0  0  0  0  0  0  0  0  0  0  0
    7.1859    1.1913   -4.6237 C   0  0  0  0  0  0  0  0  0  0  0  0
    7.4796    0.9364   -3.1730 C   0  0  0  0  0  0  0  0  0  0  0  0
    7.9499   -0.5065   -2.9731 C   0  0  0  0  0  0  0  0  0  0  0  0
    4.0817    0.8586   -3.5098 C   0  0  0  0  0  0  0  0  0  0  0  0
    4.0033    2.5346   -2.9992 S   0  0  0  0  0  0  0  0  0  0  0  0
    2.6430    2.1290   -2.0087 C   0  0  0  0  0  0  0  0  0  0  0  0
    1.7169    2.7602   -1.1715 C   0  0  0  0  0  0  0  0  0  0  0  0
    1.5579    4.1293   -0.8636 C   0  0  0  0  0  0  0  0  0  0  0  0
    0.4364    4.5305   -0.0715 C   0  0  0  0  0  0  0  0  0  0  0  0
    0.3805    5.8413    0.1030 N   0  0  0  0  0  0  0  0  0  0  0  0
    1.6385    6.5127   -0.6647 S   0  0  0  0  0  0  0  0  0  0  0  0
    2.3000    5.1553   -1.2489 N   0  0  0  0  0  0  0  0  0  0  0  0
   -0.4196    3.5343    0.4473 C   0  0  0  0  0  0  0  0  0  0  0  0
   -1.5121    3.6491    1.3123 C   0  0  0  0  0  0  0  0  0  0  0  0
   -2.4262    4.8829    2.1092 S   0  0  0  0  0  0  0  0  0  0  0  0
   -3.3841    3.6269    2.8725 C   0  0  0  0  0  0  0  0  0  0  0  0
   -4.4562    3.6658    3.7505 C   0  0  0  0  0  0  0  0  0  0  0  0
   -5.1215    4.8824    4.2377 C   0  0  0  0  0  0  0  0  0  0  0  0
   -4.5055    5.7482    5.1434 C   0  0  0  0  0  0  0  0  0  0  0  0
   -3.1645    5.4321    5.7413 C   0  0  0  0  0  0  0  0  0  0  0  0
   -3.3174    4.4268    6.8852 C   0  0  0  0  0  0  0  0  0  0  0  0
   -5.2035    6.8734    5.5600 C   0  0  0  0  0  0  0  0  0  0  0  0
   -6.4765    7.1450    5.0950 C   0  0  0  0  0  0  0  0  0  0  0  0
   -7.0830    6.2808    4.2002 C   0  0  0  0  0  0  0  0  0  0  0  0
   -6.4083    5.1525    3.7783 C   0  0  0  0  0  0  0  0  0  0  0  0
   -4.8950    2.3704    4.0933 C   0  0  0  0  0  0  0  0  0  0  0  0
   -3.9676    1.1158    3.2760 S   0  0  0  0  0  0  0  0  0  0  0  0
   -2.9983    2.3201    2.5114 C   0  0  0  0  0  0  0  0  0  0  0  0
   -1.9352    2.3469    1.6067 C   0  0  0  0  0  0  0  0  0  0  0  0
   -1.1511    1.4428    0.9435 N   0  0  0  0  0  0  0  0  0  0  0  0
   -0.2200    2.1399    0.1982 C   0  0  0  0  0  0  0  0  0  0  0  0
    0.8185    1.7539   -0.6968 C   0  0  0  0  0  0  0  0  0  0  0  0
    1.1868    0.5554   -1.2781 N   0  0  0  0  0  0  0  0  0  0  0  0
    2.2856    0.7770   -2.0607 C   0  0  0  0  0  0  0  0  0  0  0  0
    3.0998    0.0384   -2.9249 C   0  0  0  0  0  0  0  0  0  0  0  0
    3.1828   -1.5902   -3.4914 S   0  0  0  0  0  0  0  0  0  0  0  0
    0.5874   -0.7588   -1.2930 C   0  0  0  0  0  0  0  0  0  0  0  0
    1.3389   -1.7348   -0.3875 C   0  0  0  0  0  0  0  0  0  0  0  0
   -1.3403    0.0364    1.2145 C   0  0  0  0  0  0  0  0  0  0  0  0
   -2.5297   -0.5374    0.4439 C   0  0  0  0  0  0  0  0  0  0  0  0
   -5.8960    2.1703    5.0424 C   0  0  0  0  0  0  0  0  0  0  0  0
   -6.4442    1.0091    5.5386 C   0  0  0  0  0  0  0  0  0  0  0  0
   -6.1439   -0.3419    5.0726 C   0  0  0  0  0  0  0  0  0  0  0  0
   -5.3342   -0.6742    4.2247 O   0  0  0  0  0  0  0  0  0  0  0  0
   -7.0378   -1.2401    5.8356 C   0  0  0  0  0  0  0  0  0  0  0  0
   -7.8166   -0.4746    6.7238 C   0  0  0  0  0  0  0  0  0  0  0  0
   -8.7376   -1.0986    7.5489 C   0  0  0  0  0  0  0  0  0  0  0  0
   -8.8682   -2.4783    7.4764 C   0  0  0  0  0  0  0  0  0  0  0  0
   -8.0976   -3.2276    6.6017 C   0  0  0  0  0  0  0  0  0  0  0  0
   -8.3209   -5.1041    6.5519 Br  0  0  0  0  0  0  0  0  0  0  0  0
   -7.1617   -2.6171    5.7593 C   0  0  0  0  0  0  0  0  0  0  0  0
   -6.2078   -3.5388    4.6773 Cl  0  0  0  0  0  0  0  0  0  0  0  0
   -7.4472    0.9341    6.5748 C   0  0  0  0  0  0  0  0  0  0  0  0
   -7.9492    1.9671    7.3267 C   0  0  0  0  0  0  0  0  0  0  0  0
   -7.5495    3.3180    7.2458 C   0  0  0  0  0  0  0  0  0  0  0  0
   -7.2735    4.4331    7.2653 N   0  0  0  0  0  0  0  0  0  0  0  0
   -8.9350    1.8113    8.3231 C   0  0  0  0  0  0  0  0  0  0  0  0
   -9.7386    1.7542    9.1412 N   0  0  0  0  0  0  0  0  0  0  0  0
    6.1327   -1.5731   -5.7936 H   0  0  0  0  0  0  0  0  0  0  0  0
    2.4366   -6.5938   -5.0467 H   0  0  0  0  0  0  0  0  0  0  0  0
    2.1026   -9.2321   -5.9420 H   0  0  0  0  0  0  0  0  0  0  0  0
    3.3777  -10.8997   -7.4950 H   0  0  0  0  0  0  0  0  0  0  0  0
    6.6001   -6.6758   -7.8332 H   0  0  0  0  0  0  0  0  0  0  0  0
    4.8303    0.6475   -6.9993 H   0  0  0  0  0  0  0  0  0  0  0  0
    6.5771    1.6484   -8.4227 H   0  0  0  0  0  0  0  0  0  0  0  0
    8.7219    2.3521   -7.4130 H   0  0  0  0  0  0  0  0  0  0  0  0
    9.1012    2.0458   -5.0052 H   0  0  0  0  0  0  0  0  0  0  0  0
    6.5933    1.1180   -2.5630 H   0  0  0  0  0  0  0  0  0  0  0  0
    8.2645    1.6174   -2.8398 H   0  0  0  0  0  0  0  0  0  0  0  0
    8.2617   -0.6649   -1.9432 H   0  0  0  0  0  0  0  0  0  0  0  0
    7.1500   -1.2073   -3.2029 H   0  0  0  0  0  0  0  0  0  0  0  0
    8.7880   -0.7229   -3.6315 H   0  0  0  0  0  0  0  0  0  0  0  0
   -2.4917    5.0232    4.9863 H   0  0  0  0  0  0  0  0  0  0  0  0
   -2.7184    6.3493    6.1291 H   0  0  0  0  0  0  0  0  0  0  0  0
   -4.0267    4.7994    7.6206 H   0  0  0  0  0  0  0  0  0  0  0  0
   -3.6850    3.4728    6.5127 H   0  0  0  0  0  0  0  0  0  0  0  0
   -2.3603    4.2603    7.3740 H   0  0  0  0  0  0  0  0  0  0  0  0
   -4.7393    7.5429    6.2694 H   0  0  0  0  0  0  0  0  0  0  0  0
   -6.9995    8.0250    5.4370 H   0  0  0  0  0  0  0  0  0  0  0  0
   -8.0796    6.4798    3.8365 H   0  0  0  0  0  0  0  0  0  0  0  0
   -6.8708    4.4697    3.0790 H   0  0  0  0  0  0  0  0  0  0  0  0
   -0.4635   -0.6856   -1.0301 H   0  0  0  0  0  0  0  0  0  0  0  0
    0.6477   -1.1293   -2.3217 H   0  0  0  0  0  0  0  0  0  0  0  0
    1.4604   -1.3364    0.6181 H   0  0  0  0  0  0  0  0  0  0  0  0
    0.7992   -2.6757   -0.3330 H   0  0  0  0  0  0  0  0  0  0  0  0
    2.3273   -1.9319   -0.7933 H   0  0  0  0  0  0  0  0  0  0  0  0
   -0.4208   -0.5021    1.0049 H   0  0  0  0  0  0  0  0  0  0  0  0
   -1.5453   -0.0610    2.2859 H   0  0  0  0  0  0  0  0  0  0  0  0
   -2.4708   -0.3024   -0.6172 H   0  0  0  0  0  0  0  0  0  0  0  0
   -2.5611   -1.6162    0.5666 H   0  0  0  0  0  0  0  0  0  0  0  0
   -3.4581   -0.1245    0.8287 H   0  0  0  0  0  0  0  0  0  0  0  0
   -6.2837    3.0985    5.4452 H   0  0  0  0  0  0  0  0  0  0  0  0
   -9.3513   -0.5440    8.2385 H   0  0  0  0  0  0  0  0  0  0  0  0
   -9.5808   -2.9828    8.1105 H   0  0  0  0  0  0  0  0  0  0  0  0
  1  2  2  0  0  0  0
  2  3  1  0  0  0  0
  3  4  2  0  0  0  0
  3  5  1  0  0  0  0
  5  6  2  0  0  0  0
  6  7  1  0  0  0  0
  7  8  1  0  0  0  0
  8  9  2  0  0  0  0
  9 10  1  0  0  0  0
 10 11  1  0  0  0  0
 11 12  1  0  0  0  0
 12 13  2  0  0  0  0
 13 14  1  0  0  0  0
 14 15  2  0  0  0  0
 15 16  1  0  0  0  0
 16 17  3  0  0  0  0
 15 18  1  0  0  0  0
 18 19  3  0  0  0  0
  1 20  1  0  0  0  0
 20 21  2  0  0  0  0
 21 22  1  0  0  0  0
 22 23  2  0  0  0  0
 23 24  1  0  0  0  0
 24 25  2  0  0  0  0
 25 26  1  0  0  0  0
 26 27  2  0  0  0  0
 27 28  1  0  0  0  0
 28 29  1  0  0  0  0
 21 30  1  0  0  0  0
 30 31  1  0  0  0  0
 31 32  1  0  0  0  0
 32 33  1  0  0  0  0
 33 34  1  0  0  0  0
 34 35  1  0  0  0  0
 35 36  2  0  0  0  0
 36 37  1  0  0  0  0
 37 38  1  0  0  0  0
 35 39  1  0  0  0  0
 39 40  1  0  0  0  0
 40 41  1  0  0  0  0
 41 42  1  0  0  0  0
 42 43  1  0  0  0  0
 43 44  1  0  0  0  0
 44 45  2  0  0  0  0
 45 46  1  0  0  0  0
 46 47  1  0  0  0  0
 45 48  1  0  0  0  0
 48 49  2  0  0  0  0
 49 50  1  0  0  0  0
 50 51  2  0  0  0  0
 43 52  2  0  0  0  0
 52 53  1  0  0  0  0
 53 54  1  0  0  0  0
 54 55  1  0  0  0  0
 55 56  1  0  0  0  0
 56 57  1  0  0  0  0
 57 58  1  0  0  0  0
 58 59  1  0  0  0  0
 59 60  1  0  0  0  0
 60 61  1  0  0  0  0
 61 62  1  0  0  0  0
 59 63  1  0  0  0  0
 63 64  1  0  0  0  0
 56 65  1  0  0  0  0
 65 66  1  0  0  0  0
 52 67  1  0  0  0  0
 67 68  2  0  0  0  0
 68 69  1  0  0  0  0
 69 70  2  0  0  0  0
 69 71  1  0  0  0  0
 71 72  2  0  0  0  0
 72 73  1  0  0  0  0
 73 74  2  0  0  0  0
 74 75  1  0  0  0  0
 75 76  1  0  0  0  0
 75 77  2  0  0  0  0
 77 78  1  0  0  0  0
 72 79  1  0  0  0  0
 79 80  2  0  0  0  0
 80 81  1  0  0  0  0
 81 82  3  0  0  0  0
 80 83  1  0  0  0  0
 83 84  3  0  0  0  0
 14  2  1  0  0  0  0
 62 20  1  0  0  0  0
 79 68  1  0  0  0  0
 13  5  1  0  0  0  0
 27 22  1  0  0  0  0
 61 30  2  0  0  0  0
 77 71  1  0  0  0  0
 11  7  2  0  0  0  0
 60 32  2  0  0  0  0
 58 33  2  0  0  0  0
 38 34  2  0  0  0  0
 57 39  2  0  0  0  0
 55 40  2  0  0  0  0
 54 42  2  0  0  0  0
 51 44  1  0  0  0  0
  1 85  1  0  0  0  0
  6 86  1  0  0  0  0
  8 87  1  0  0  0  0
  9 88  1  0  0  0  0
 12 89  1  0  0  0  0
 23 90  1  0  0  0  0
 24 91  1  0  0  0  0
 25 92  1  0  0  0  0
 26 93  1  0  0  0  0
 28 94  1  0  0  0  0
 28 95  1  0  0  0  0
 29 96  1  0  0  0  0
 29 97  1  0  0  0  0
 29 98  1  0  0  0  0
 46 99  1  0  0  0  0
 46100  1  0  0  0  0
 47101  1  0  0  0  0
 47102  1  0  0  0  0
 47103  1  0  0  0  0
 48104  1  0  0  0  0
 49105  1  0  0  0  0
 50106  1  0  0  0  0
 51107  1  0  0  0  0
 63108  1  0  0  0  0
 63109  1  0  0  0  0
 64110  1  0  0  0  0
 64111  1  0  0  0  0
 64112  1  0  0  0  0
 65113  1  0  0  0  0
 65114  1  0  0  0  0
 66115  1  0  0  0  0
 66116  1  0  0  0  0
 66117  1  0  0  0  0
 67118  1  0  0  0  0
 73119  1  0  0  0  0
 74120  1  0  0  0  0
M  END
