
  xtb     01262218163D
 energy: -301.073337801749 gnorm: 0.000733095461 xtb: 6.4.1 (unknown)
184202  0     0  0            999 V2000
   -9.4093   -5.7542   -0.7282 C   0  0  0  0  0  0  0  0  0  0  0  0
   -9.7022   -7.0674   -0.4768 C   0  0  0  0  0  0  0  0  0  0  0  0
   -8.8157   -8.2473   -0.6036 C   0  0  0  0  0  0  0  0  0  0  0  0
   -7.6443   -8.2892   -0.9260 O   0  0  0  0  0  0  0  0  0  0  0  0
   -9.6574   -9.4180   -0.3038 C   0  0  0  0  0  0  0  0  0  0  0  0
   -9.2817  -10.7395   -0.2927 C   0  0  0  0  0  0  0  0  0  0  0  0
  -10.2545  -11.6916    0.0251 C   0  0  0  0  0  0  0  0  0  0  0  0
  -10.1334  -13.1072    0.1123 C   0  0  0  0  0  0  0  0  0  0  0  0
  -11.2960  -13.7085    0.4462 C   0  0  0  0  0  0  0  0  0  0  0  0
  -12.6075  -12.6042    0.6757 S   0  0  0  0  0  0  0  0  0  0  0  0
  -11.5711  -11.2599    0.3127 C   0  0  0  0  0  0  0  0  0  0  0  0
  -11.9508   -9.9229    0.2996 C   0  0  0  0  0  0  0  0  0  0  0  0
  -10.9759   -8.9934   -0.0112 C   0  0  0  0  0  0  0  0  0  0  0  0
  -11.0265   -7.5391   -0.1001 C   0  0  0  0  0  0  0  0  0  0  0  0
  -12.1327   -6.7767    0.1794 C   0  0  0  0  0  0  0  0  0  0  0  0
  -12.2144   -5.3683    0.1621 C   0  0  0  0  0  0  0  0  0  0  0  0
  -12.3886   -4.2327    0.1891 N   0  0  0  0  0  0  0  0  0  0  0  0
  -13.3846   -7.3086    0.5546 C   0  0  0  0  0  0  0  0  0  0  0  0
  -14.4315   -7.6687    0.8595 N   0  0  0  0  0  0  0  0  0  0  0  0
   -8.1834   -5.1098   -0.9949 C   0  0  0  0  0  0  0  0  0  0  0  0
   -6.8792   -5.5369   -0.9518 C   0  0  0  0  0  0  0  0  0  0  0  0
   -5.9339   -4.5289   -1.2115 C   0  0  0  0  0  0  0  0  0  0  0  0
   -4.5324   -4.6725   -1.1848 C   0  0  0  0  0  0  0  0  0  0  0  0
   -3.8938   -5.8520   -0.9343 O   0  0  0  0  0  0  0  0  0  0  0  0
   -4.0186   -6.8781   -1.9137 C   0  0  0  0  0  0  0  0  0  0  0  0
   -3.2997   -6.5128   -3.2072 C   0  0  0  0  0  0  0  0  0  0  0  0
   -3.7903   -3.5172   -1.3223 C   0  0  0  0  0  0  0  0  0  0  0  0
   -2.0469   -3.4819   -1.1966 S   0  0  0  0  0  0  0  0  0  0  0  0
   -2.0956   -1.7676   -1.3886 C   0  0  0  0  0  0  0  0  0  0  0  0
   -1.1073   -0.7362   -1.3315 C   0  0  0  0  0  0  0  0  0  0  0  0
   -1.7840    0.4896   -1.5118 C   0  0  0  0  0  0  0  0  0  0  0  0
   -3.2726    0.2534   -1.7524 C   0  0  0  0  0  0  0  0  0  0  0  0
   -3.3563   -1.2469   -1.5741 C   0  0  0  0  0  0  0  0  0  0  0  0
   -4.3675   -2.2370   -1.5421 C   0  0  0  0  0  0  0  0  0  0  0  0
   -5.7705   -2.1026   -1.6515 C   0  0  0  0  0  0  0  0  0  0  0  0
   -6.5262   -3.2520   -1.4536 C   0  0  0  0  0  0  0  0  0  0  0  0
   -8.2697   -3.3904   -1.3668 S   0  0  0  0  0  0  0  0  0  0  0  0
   -6.2088   -0.8403   -1.8713 O   0  0  0  0  0  0  0  0  0  0  0  0
   -7.4956   -0.5939   -2.4050 C   0  0  0  0  0  0  0  0  0  0  0  0
   -7.6384   -1.0936   -3.8376 C   0  0  0  0  0  0  0  0  0  0  0  0
   -3.6324    0.5538   -3.2022 C   0  0  0  0  0  0  0  0  0  0  0  0
   -4.8170    1.1782   -3.5622 C   0  0  0  0  0  0  0  0  0  0  0  0
   -5.1283    1.3825   -4.8948 C   0  0  0  0  0  0  0  0  0  0  0  0
   -4.2733    0.9635   -5.9044 C   0  0  0  0  0  0  0  0  0  0  0  0
   -4.6463    1.1362   -7.3487 C   0  0  0  0  0  0  0  0  0  0  0  0
   -5.4879   -0.0485   -7.8285 C   0  0  0  0  0  0  0  0  0  0  0  0
   -3.0909    0.3324   -5.5406 C   0  0  0  0  0  0  0  0  0  0  0  0
   -2.7739    0.1304   -4.2110 C   0  0  0  0  0  0  0  0  0  0  0  0
   -4.0540    1.0525   -0.7332 C   0  0  0  0  0  0  0  0  0  0  0  0
   -4.2162    2.4247   -0.8934 C   0  0  0  0  0  0  0  0  0  0  0  0
   -4.8837    3.1732    0.0569 C   0  0  0  0  0  0  0  0  0  0  0  0
   -5.4058    2.5776    1.1975 C   0  0  0  0  0  0  0  0  0  0  0  0
   -6.0956    3.4014    2.2465 C   0  0  0  0  0  0  0  0  0  0  0  0
   -5.0793    3.9443    3.2532 C   0  0  0  0  0  0  0  0  0  0  0  0
   -5.2257    1.2120    1.3641 C   0  0  0  0  0  0  0  0  0  0  0  0
   -4.5546    0.4599    0.4171 C   0  0  0  0  0  0  0  0  0  0  0  0
   -1.1055    1.6798   -1.3926 C   0  0  0  0  0  0  0  0  0  0  0  0
    0.2513    1.6096   -1.0912 C   0  0  0  0  0  0  0  0  0  0  0  0
    1.1799    2.6365   -0.7334 C   0  0  0  0  0  0  0  0  0  0  0  0
    2.4039    2.1155   -0.3946 C   0  0  0  0  0  0  0  0  0  0  0  0
    2.4055    0.6192   -0.6121 C   0  0  0  0  0  0  0  0  0  0  0  0
    0.9396    0.3828   -0.9665 C   0  0  0  0  0  0  0  0  0  0  0  0
    0.2588   -0.8066   -1.0762 C   0  0  0  0  0  0  0  0  0  0  0  0
    3.2647    0.2235   -1.8003 C   0  0  0  0  0  0  0  0  0  0  0  0
    3.3260   -1.1045   -2.2099 C   0  0  0  0  0  0  0  0  0  0  0  0
    4.0953   -1.4787   -3.2949 C   0  0  0  0  0  0  0  0  0  0  0  0
    4.8221   -0.5394   -4.0144 C   0  0  0  0  0  0  0  0  0  0  0  0
    5.7031   -0.9520   -5.1581 C   0  0  0  0  0  0  0  0  0  0  0  0
    7.1187   -1.2510   -4.6600 C   0  0  0  0  0  0  0  0  0  0  0  0
    4.7475    0.7871   -3.6155 C   0  0  0  0  0  0  0  0  0  0  0  0
    3.9778    1.1649   -2.5296 C   0  0  0  0  0  0  0  0  0  0  0  0
    2.7462   -0.1108    0.6757 C   0  0  0  0  0  0  0  0  0  0  0  0
    1.9375    0.1125    1.7844 C   0  0  0  0  0  0  0  0  0  0  0  0
    2.1981   -0.5142    2.9872 C   0  0  0  0  0  0  0  0  0  0  0  0
    3.2738   -1.3828    3.1183 C   0  0  0  0  0  0  0  0  0  0  0  0
    3.5908   -2.0260    4.4376 C   0  0  0  0  0  0  0  0  0  0  0  0
    4.5447   -1.1425    5.2439 C   0  0  0  0  0  0  0  0  0  0  0  0
    4.0800   -1.6000    2.0103 C   0  0  0  0  0  0  0  0  0  0  0  0
    3.8217   -0.9755    0.8037 C   0  0  0  0  0  0  0  0  0  0  0  0
    3.3112    3.0850    0.0958 C   0  0  0  0  0  0  0  0  0  0  0  0
    4.6265    2.8635    0.5589 C   0  0  0  0  0  0  0  0  0  0  0  0
    5.0518    1.5811    0.4682 O   0  0  0  0  0  0  0  0  0  0  0  0
    6.4281    1.2593    0.5205 C   0  0  0  0  0  0  0  0  0  0  0  0
    7.1794    1.7256   -0.7204 C   0  0  0  0  0  0  0  0  0  0  0  0
    5.2957    3.9574    1.0903 C   0  0  0  0  0  0  0  0  0  0  0  0
    4.7018    5.2482    1.0900 C   0  0  0  0  0  0  0  0  0  0  0  0
    3.4039    5.4896    0.5680 C   0  0  0  0  0  0  0  0  0  0  0  0
    3.0180    6.7814    0.6216 O   0  0  0  0  0  0  0  0  0  0  0  0
    1.7640    7.2010    0.1163 C   0  0  0  0  0  0  0  0  0  0  0  0
    1.7038    8.7129    0.2655 C   0  0  0  0  0  0  0  0  0  0  0  0
    2.7168    4.3845    0.1032 C   0  0  0  0  0  0  0  0  0  0  0  0
    1.0586    4.3401   -0.5096 S   0  0  0  0  0  0  0  0  0  0  0  0
    5.5213    6.2138    1.6831 C   0  0  0  0  0  0  0  0  0  0  0  0
    6.7178    5.7228    2.1743 C   0  0  0  0  0  0  0  0  0  0  0  0
    6.8655    4.0041    1.8705 S   0  0  0  0  0  0  0  0  0  0  0  0
    7.6318    6.5419    2.8610 C   0  0  0  0  0  0  0  0  0  0  0  0
    8.8090    6.2302    3.4887 C   0  0  0  0  0  0  0  0  0  0  0  0
    9.4210    4.8944    3.5667 C   0  0  0  0  0  0  0  0  0  0  0  0
    9.0415    3.8661    3.0364 O   0  0  0  0  0  0  0  0  0  0  0  0
   10.6103    5.0392    4.4218 C   0  0  0  0  0  0  0  0  0  0  0  0
   11.4907    4.0625    4.8187 C   0  0  0  0  0  0  0  0  0  0  0  0
   12.5486    4.4379    5.6521 C   0  0  0  0  0  0  0  0  0  0  0  0
   13.5844    3.6346    6.2075 C   0  0  0  0  0  0  0  0  0  0  0  0
   14.4382    4.3454    6.9758 C   0  0  0  0  0  0  0  0  0  0  0  0
   14.0446    6.0270    7.0762 S   0  0  0  0  0  0  0  0  0  0  0  0
   12.6687    5.7920    6.0443 C   0  0  0  0  0  0  0  0  0  0  0  0
   11.7791    6.7808    5.6397 C   0  0  0  0  0  0  0  0  0  0  0  0
   10.7374    6.3938    4.8181 C   0  0  0  0  0  0  0  0  0  0  0  0
    9.6412    7.1577    4.2313 C   0  0  0  0  0  0  0  0  0  0  0  0
    9.4601    8.5116    4.3724 C   0  0  0  0  0  0  0  0  0  0  0  0
    8.4178    9.2735    3.8069 C   0  0  0  0  0  0  0  0  0  0  0  0
    7.6109    9.9743    3.3842 N   0  0  0  0  0  0  0  0  0  0  0  0
   10.3163    9.3509    5.1145 C   0  0  0  0  0  0  0  0  0  0  0  0
   10.9698   10.0933    5.6984 N   0  0  0  0  0  0  0  0  0  0  0  0
  -10.2479   -5.0680   -0.7161 H   0  0  0  0  0  0  0  0  0  0  0  0
   -8.2666  -11.0270   -0.5194 H   0  0  0  0  0  0  0  0  0  0  0  0
   -9.2135  -13.6331   -0.0689 H   0  0  0  0  0  0  0  0  0  0  0  0
  -11.4806  -14.7570    0.5780 H   0  0  0  0  0  0  0  0  0  0  0  0
  -12.9677   -9.6493    0.5243 H   0  0  0  0  0  0  0  0  0  0  0  0
   -6.6125   -6.5455   -0.6984 H   0  0  0  0  0  0  0  0  0  0  0  0
   -5.0703   -7.1033   -2.1190 H   0  0  0  0  0  0  0  0  0  0  0  0
   -3.5539   -7.7492   -1.4475 H   0  0  0  0  0  0  0  0  0  0  0  0
   -3.3370   -7.3516   -3.8965 H   0  0  0  0  0  0  0  0  0  0  0  0
   -3.7748   -5.6520   -3.6751 H   0  0  0  0  0  0  0  0  0  0  0  0
   -2.2608   -6.2659   -3.0012 H   0  0  0  0  0  0  0  0  0  0  0  0
   -8.2793   -1.0135   -1.7654 H   0  0  0  0  0  0  0  0  0  0  0  0
   -7.5840    0.4951   -2.3757 H   0  0  0  0  0  0  0  0  0  0  0  0
   -6.8401   -0.6814   -4.4510 H   0  0  0  0  0  0  0  0  0  0  0  0
   -7.5833   -2.1786   -3.8775 H   0  0  0  0  0  0  0  0  0  0  0  0
   -8.5985   -0.7805   -4.2369 H   0  0  0  0  0  0  0  0  0  0  0  0
   -5.5055    1.5045   -2.8004 H   0  0  0  0  0  0  0  0  0  0  0  0
   -6.0545    1.8776   -5.1531 H   0  0  0  0  0  0  0  0  0  0  0  0
   -3.7436    1.2064   -7.9586 H   0  0  0  0  0  0  0  0  0  0  0  0
   -5.2182    2.0577   -7.4766 H   0  0  0  0  0  0  0  0  0  0  0  0
   -4.9338   -0.9774   -7.7118 H   0  0  0  0  0  0  0  0  0  0  0  0
   -6.4052   -0.1227   -7.2482 H   0  0  0  0  0  0  0  0  0  0  0  0
   -5.7502    0.0702   -8.8771 H   0  0  0  0  0  0  0  0  0  0  0  0
   -2.4080   -0.0049   -6.3075 H   0  0  0  0  0  0  0  0  0  0  0  0
   -1.8468   -0.3633   -3.9567 H   0  0  0  0  0  0  0  0  0  0  0  0
   -3.8302    2.9141   -1.7758 H   0  0  0  0  0  0  0  0  0  0  0  0
   -5.0041    4.2373   -0.0919 H   0  0  0  0  0  0  0  0  0  0  0  0
   -6.8322    2.7909    2.7724 H   0  0  0  0  0  0  0  0  0  0  0  0
   -6.6174    4.2379    1.7768 H   0  0  0  0  0  0  0  0  0  0  0  0
   -4.5607    3.1248    3.7458 H   0  0  0  0  0  0  0  0  0  0  0  0
   -5.5767    4.5464    4.0102 H   0  0  0  0  0  0  0  0  0  0  0  0
   -4.3394    4.5616    2.7484 H   0  0  0  0  0  0  0  0  0  0  0  0
   -5.6162    0.7270    2.2477 H   0  0  0  0  0  0  0  0  0  0  0  0
   -4.4247   -0.5992    0.5806 H   0  0  0  0  0  0  0  0  0  0  0  0
   -1.5934    2.6372   -1.4816 H   0  0  0  0  0  0  0  0  0  0  0  0
    0.7297   -1.7647   -0.9234 H   0  0  0  0  0  0  0  0  0  0  0  0
    2.7761   -1.8607   -1.6720 H   0  0  0  0  0  0  0  0  0  0  0  0
    4.1298   -2.5184   -3.5888 H   0  0  0  0  0  0  0  0  0  0  0  0
    5.2945   -1.8434   -5.6382 H   0  0  0  0  0  0  0  0  0  0  0  0
    5.7449   -0.1524   -5.9006 H   0  0  0  0  0  0  0  0  0  0  0  0
    7.5490   -0.3694   -4.1898 H   0  0  0  0  0  0  0  0  0  0  0  0
    7.0996   -2.0544   -3.9268 H   0  0  0  0  0  0  0  0  0  0  0  0
    7.7584   -1.5503   -5.4869 H   0  0  0  0  0  0  0  0  0  0  0  0
    5.2969    1.5402   -4.1637 H   0  0  0  0  0  0  0  0  0  0  0  0
    3.9441    2.2075   -2.2541 H   0  0  0  0  0  0  0  0  0  0  0  0
    1.0932    0.7833    1.7037 H   0  0  0  0  0  0  0  0  0  0  0  0
    1.5556   -0.3277    3.8362 H   0  0  0  0  0  0  0  0  0  0  0  0
    2.6716   -2.1777    5.0071 H   0  0  0  0  0  0  0  0  0  0  0  0
    4.0555   -3.0004    4.2729 H   0  0  0  0  0  0  0  0  0  0  0  0
    5.4715   -0.9883    4.6958 H   0  0  0  0  0  0  0  0  0  0  0  0
    4.7779   -1.6055    6.2001 H   0  0  0  0  0  0  0  0  0  0  0  0
    4.0933   -0.1703    5.4286 H   0  0  0  0  0  0  0  0  0  0  0  0
    4.9250   -2.2700    2.0911 H   0  0  0  0  0  0  0  0  0  0  0  0
    4.4710   -1.1604   -0.0376 H   0  0  0  0  0  0  0  0  0  0  0  0
    6.8971    1.6527    1.4276 H   0  0  0  0  0  0  0  0  0  0  0  0
    6.4345    0.1678    0.5761 H   0  0  0  0  0  0  0  0  0  0  0  0
    6.7133    1.3102   -1.6115 H   0  0  0  0  0  0  0  0  0  0  0  0
    8.2117    1.3932   -0.6657 H   0  0  0  0  0  0  0  0  0  0  0  0
    7.1676    2.8105   -0.7904 H   0  0  0  0  0  0  0  0  0  0  0  0
    0.9510    6.7309    0.6832 H   0  0  0  0  0  0  0  0  0  0  0  0
    1.6674    6.9193   -0.9393 H   0  0  0  0  0  0  0  0  0  0  0  0
    1.8110    8.9877    1.3111 H   0  0  0  0  0  0  0  0  0  0  0  0
    2.5096    9.1749   -0.2981 H   0  0  0  0  0  0  0  0  0  0  0  0
    0.7518    9.0806   -0.1051 H   0  0  0  0  0  0  0  0  0  0  0  0
    5.2339    7.2465    1.7682 H   0  0  0  0  0  0  0  0  0  0  0  0
    7.3100    7.5751    2.9111 H   0  0  0  0  0  0  0  0  0  0  0  0
   11.3632    3.0401    4.4983 H   0  0  0  0  0  0  0  0  0  0  0  0
   13.6706    2.5778    6.0302 H   0  0  0  0  0  0  0  0  0  0  0  0
   15.2985    3.9883    7.5078 H   0  0  0  0  0  0  0  0  0  0  0  0
   11.9154    7.7970    5.9691 H   0  0  0  0  0  0  0  0  0  0  0  0
  1  2  2  0  0  0  0
  2  3  1  0  0  0  0
  3  4  2  0  0  0  0
  3  5  1  0  0  0  0
  5  6  2  0  0  0  0
  6  7  1  0  0  0  0
  7  8  1  0  0  0  0
  8  9  2  0  0  0  0
  9 10  1  0  0  0  0
 10 11  1  0  0  0  0
 11 12  1  0  0  0  0
 12 13  2  0  0  0  0
 13 14  1  0  0  0  0
 14 15  2  0  0  0  0
 15 16  1  0  0  0  0
 16 17  3  0  0  0  0
 15 18  1  0  0  0  0
 18 19  3  0  0  0  0
  1 20  1  0  0  0  0
 20 21  2  0  0  0  0
 21 22  1  0  0  0  0
 22 23  2  0  0  0  0
 23 24  1  0  0  0  0
 24 25  1  0  0  0  0
 25 26  1  0  0  0  0
 23 27  1  0  0  0  0
 27 28  1  0  0  0  0
 28 29  1  0  0  0  0
 29 30  1  0  0  0  0
 30 31  2  0  0  0  0
 31 32  1  0  0  0  0
 32 33  1  0  0  0  0
 33 34  1  0  0  0  0
 34 35  1  0  0  0  0
 35 36  2  0  0  0  0
 36 37  1  0  0  0  0
 35 38  1  0  0  0  0
 38 39  1  0  0  0  0
 39 40  1  0  0  0  0
 32 41  1  0  0  0  0
 41 42  2  0  0  0  0
 42 43  1  0  0  0  0
 43 44  2  0  0  0  0
 44 45  1  0  0  0  0
 45 46  1  0  0  0  0
 44 47  1  0  0  0  0
 47 48  2  0  0  0  0
 32 49  1  0  0  0  0
 49 50  2  0  0  0  0
 50 51  1  0  0  0  0
 51 52  2  0  0  0  0
 52 53  1  0  0  0  0
 53 54  1  0  0  0  0
 52 55  1  0  0  0  0
 55 56  2  0  0  0  0
 31 57  1  0  0  0  0
 57 58  2  0  0  0  0
 58 59  1  0  0  0  0
 59 60  2  0  0  0  0
 60 61  1  0  0  0  0
 61 62  1  0  0  0  0
 62 63  2  0  0  0  0
 61 64  1  0  0  0  0
 64 65  2  0  0  0  0
 65 66  1  0  0  0  0
 66 67  2  0  0  0  0
 67 68  1  0  0  0  0
 68 69  1  0  0  0  0
 67 70  1  0  0  0  0
 70 71  2  0  0  0  0
 61 72  1  0  0  0  0
 72 73  2  0  0  0  0
 73 74  1  0  0  0  0
 74 75  2  0  0  0  0
 75 76  1  0  0  0  0
 76 77  1  0  0  0  0
 75 78  1  0  0  0  0
 78 79  2  0  0  0  0
 60 80  1  0  0  0  0
 80 81  2  0  0  0  0
 81 82  1  0  0  0  0
 82 83  1  0  0  0  0
 83 84  1  0  0  0  0
 81 85  1  0  0  0  0
 85 86  2  0  0  0  0
 86 87  1  0  0  0  0
 87 88  1  0  0  0  0
 88 89  1  0  0  0  0
 89 90  1  0  0  0  0
 87 91  2  0  0  0  0
 91 92  1  0  0  0  0
 86 93  1  0  0  0  0
 93 94  2  0  0  0  0
 94 95  1  0  0  0  0
 94 96  1  0  0  0  0
 96 97  2  0  0  0  0
 97 98  1  0  0  0  0
 98 99  2  0  0  0  0
 98100  1  0  0  0  0
100101  2  0  0  0  0
101102  1  0  0  0  0
102103  1  0  0  0  0
103104  2  0  0  0  0
104105  1  0  0  0  0
105106  1  0  0  0  0
106107  1  0  0  0  0
107108  2  0  0  0  0
108109  1  0  0  0  0
109110  2  0  0  0  0
110111  1  0  0  0  0
111112  3  0  0  0  0
110113  1  0  0  0  0
113114  3  0  0  0  0
 14  2  1  0  0  0  0
 37 20  1  0  0  0  0
 48 41  1  0  0  0  0
 56 49  1  0  0  0  0
 62 58  1  0  0  0  0
 71 64  1  0  0  0  0
 79 72  1  0  0  0  0
 91 80  1  0  0  0  0
109 97  1  0  0  0  0
 13  5  1  0  0  0  0
 36 22  1  0  0  0  0
 92 59  1  0  0  0  0
108100  1  0  0  0  0
 11  7  2  0  0  0  0
 34 27  2  0  0  0  0
 95 85  1  0  0  0  0
106102  2  0  0  0  0
 33 29  2  0  0  0  0
 63 30  1  0  0  0  0
  1115  1  0  0  0  0
  6116  1  0  0  0  0
  8117  1  0  0  0  0
  9118  1  0  0  0  0
 12119  1  0  0  0  0
 21120  1  0  0  0  0
 25121  1  0  0  0  0
 25122  1  0  0  0  0
 26123  1  0  0  0  0
 26124  1  0  0  0  0
 26125  1  0  0  0  0
 39126  1  0  0  0  0
 39127  1  0  0  0  0
 40128  1  0  0  0  0
 40129  1  0  0  0  0
 40130  1  0  0  0  0
 42131  1  0  0  0  0
 43132  1  0  0  0  0
 45133  1  0  0  0  0
 45134  1  0  0  0  0
 46135  1  0  0  0  0
 46136  1  0  0  0  0
 46137  1  0  0  0  0
 47138  1  0  0  0  0
 48139  1  0  0  0  0
 50140  1  0  0  0  0
 51141  1  0  0  0  0
 53142  1  0  0  0  0
 53143  1  0  0  0  0
 54144  1  0  0  0  0
 54145  1  0  0  0  0
 54146  1  0  0  0  0
 55147  1  0  0  0  0
 56148  1  0  0  0  0
 57149  1  0  0  0  0
 63150  1  0  0  0  0
 65151  1  0  0  0  0
 66152  1  0  0  0  0
 68153  1  0  0  0  0
 68154  1  0  0  0  0
 69155  1  0  0  0  0
 69156  1  0  0  0  0
 69157  1  0  0  0  0
 70158  1  0  0  0  0
 71159  1  0  0  0  0
 73160  1  0  0  0  0
 74161  1  0  0  0  0
 76162  1  0  0  0  0
 76163  1  0  0  0  0
 77164  1  0  0  0  0
 77165  1  0  0  0  0
 77166  1  0  0  0  0
 78167  1  0  0  0  0
 79168  1  0  0  0  0
 83169  1  0  0  0  0
 83170  1  0  0  0  0
 84171  1  0  0  0  0
 84172  1  0  0  0  0
 84173  1  0  0  0  0
 89174  1  0  0  0  0
 89175  1  0  0  0  0
 90176  1  0  0  0  0
 90177  1  0  0  0  0
 90178  1  0  0  0  0
 93179  1  0  0  0  0
 96180  1  0  0  0  0
101181  1  0  0  0  0
103182  1  0  0  0  0
104183  1  0  0  0  0
107184  1  0  0  0  0
M  END
