184

C         -9.40930       -5.75420       -0.72820
C         -9.70220       -7.06740       -0.47680
C         -8.81570       -8.24730       -0.60360
O         -7.64430       -8.28920       -0.92600
C         -9.65740       -9.41800       -0.30380
C         -9.28170      -10.73950       -0.29270
C        -10.25450      -11.69160        0.02510
C        -10.13340      -13.10720        0.11230
C        -11.29600      -13.70850        0.44620
S        -12.60750      -12.60420        0.67570
C        -11.57110      -11.25990        0.31270
C        -11.95080       -9.92290        0.29960
C        -10.97590       -8.99340       -0.01120
C        -11.02650       -7.53910       -0.10010
C        -12.13270       -6.77670        0.17940
C        -12.21440       -5.36830        0.16210
N        -12.38860       -4.23270        0.18910
C        -13.38460       -7.30860        0.55460
N        -14.43150       -7.66870        0.85950
C         -8.18340       -5.10980       -0.99490
C         -6.87920       -5.53690       -0.95180
C         -5.93390       -4.52890       -1.21150
C         -4.53240       -4.67250       -1.18480
O         -3.89380       -5.85200       -0.93430
C         -4.01860       -6.87810       -1.91370
C         -3.29970       -6.51280       -3.20720
C         -3.79030       -3.51720       -1.32230
S         -2.04690       -3.48190       -1.19660
C         -2.09560       -1.76760       -1.38860
C         -1.10730       -0.73620       -1.33150
C         -1.78400        0.48960       -1.51180
C         -3.27260        0.25340       -1.75240
C         -3.35630       -1.24690       -1.57410
C         -4.36750       -2.23700       -1.54210
C         -5.77050       -2.10260       -1.65150
C         -6.52620       -3.25200       -1.45360
S         -8.26970       -3.39040       -1.36680
O         -6.20880       -0.84030       -1.87130
C         -7.49560       -0.59390       -2.40500
C         -7.63840       -1.09360       -3.83760
C         -3.63240        0.55380       -3.20220
C         -4.81700        1.17820       -3.56220
C         -5.12830        1.38250       -4.89480
C         -4.27330        0.96350       -5.90440
C         -4.64630        1.13620       -7.34870
C         -5.48790       -0.04850       -7.82850
C         -3.09090        0.33240       -5.54060
C         -2.77390        0.13040       -4.21100
C         -4.05400        1.05250       -0.73320
C         -4.21620        2.42470       -0.89340
C         -4.88370        3.17320        0.05690
C         -5.40580        2.57760        1.19750
C         -6.09560        3.40140        2.24650
C         -5.07930        3.94430        3.25320
C         -5.22570        1.21200        1.36410
C         -4.55460        0.45990        0.41710
C         -1.10550        1.67980       -1.39260
C          0.25130        1.60960       -1.09120
C          1.17990        2.63650       -0.73340
C          2.40390        2.11550       -0.39460
C          2.40550        0.61920       -0.61210
C          0.93960        0.38280       -0.96650
C          0.25880       -0.80660       -1.07620
C          3.26470        0.22350       -1.80030
C          3.32600       -1.10450       -2.20990
C          4.09530       -1.47870       -3.29490
C          4.82210       -0.53940       -4.01440
C          5.70310       -0.95200       -5.15810
C          7.11870       -1.25100       -4.66000
C          4.74750        0.78710       -3.61550
C          3.97780        1.16490       -2.52960
C          2.74620       -0.11080        0.67570
C          1.93750        0.11250        1.78440
C          2.19810       -0.51420        2.98720
C          3.27380       -1.38280        3.11830
C          3.59080       -2.02600        4.43760
C          4.54470       -1.14250        5.24390
C          4.08000       -1.60000        2.01030
C          3.82170       -0.97550        0.80370
C          3.31120        3.08500        0.09580
C          4.62650        2.86350        0.55890
O          5.05180        1.58110        0.46820
C          6.42810        1.25930        0.52050
C          7.17940        1.72560       -0.72040
C          5.29570        3.95740        1.09030
C          4.70180        5.24820        1.09000
C          3.40390        5.48960        0.56800
O          3.01800        6.78140        0.62160
C          1.76400        7.20100        0.11630
C          1.70380        8.71290        0.26550
C          2.71680        4.38450        0.10320
S          1.05860        4.34010       -0.50960
C          5.52130        6.21380        1.68310
C          6.71780        5.72280        2.17430
S          6.86550        4.00410        1.87050
C          7.63180        6.54190        2.86100
C          8.80900        6.23020        3.48870
C          9.42100        4.89440        3.56670
O          9.04150        3.86610        3.03640
C         10.61030        5.03920        4.42180
C         11.49070        4.06250        4.81870
C         12.54860        4.43790        5.65210
C         13.58440        3.63460        6.20750
C         14.43820        4.34540        6.97580
S         14.04460        6.02700        7.07620
C         12.66870        5.79200        6.04430
C         11.77910        6.78080        5.63970
C         10.73740        6.39380        4.81810
C          9.64120        7.15770        4.23130
C          9.46010        8.51160        4.37240
C          8.41780        9.27350        3.80690
N          7.61090        9.97430        3.38420
C         10.31630        9.35090        5.11450
N         10.96980       10.09330        5.69840
H        -10.24790       -5.06800       -0.71610
H         -8.26660      -11.02700       -0.51940
H         -9.21350      -13.63310       -0.06890
H        -11.48060      -14.75700        0.57800
H        -12.96770       -9.64930        0.52430
H         -6.61250       -6.54550       -0.69840
H         -5.07030       -7.10330       -2.11900
H         -3.55390       -7.74920       -1.44750
H         -3.33700       -7.35160       -3.89650
H         -3.77480       -5.65200       -3.67510
H         -2.26080       -6.26590       -3.00120
H         -8.27930       -1.01350       -1.76540
H         -7.58400        0.49510       -2.37570
H         -6.84010       -0.68140       -4.45100
H         -7.58330       -2.17860       -3.87750
H         -8.59850       -0.78050       -4.23690
H         -5.50550        1.50450       -2.80040
H         -6.05450        1.87760       -5.15310
H         -3.74360        1.20640       -7.95860
H         -5.21820        2.05770       -7.47660
H         -4.93380       -0.97740       -7.71180
H         -6.40520       -0.12270       -7.24820
H         -5.75020        0.07020       -8.87710
H         -2.40800       -0.00490       -6.30750
H         -1.84680       -0.36330       -3.95670
H         -3.83020        2.91410       -1.77580
H         -5.00410        4.23730       -0.09190
H         -6.83220        2.79090        2.77240
H         -6.61740        4.23790        1.77680
H         -4.56070        3.12480        3.74580
H         -5.57670        4.54640        4.01020
H         -4.33940        4.56160        2.74840
H         -5.61620        0.72700        2.24770
H         -4.42470       -0.59920        0.58060
H         -1.59340        2.63720       -1.48160
H          0.72970       -1.76470       -0.92340
H          2.77610       -1.86070       -1.67200
H          4.12980       -2.51840       -3.58880
H          5.29450       -1.84340       -5.63820
H          5.74490       -0.15240       -5.90060
H          7.54900       -0.36940       -4.18980
H          7.09960       -2.05440       -3.92680
H          7.75840       -1.55030       -5.48690
H          5.29690        1.54020       -4.16370
H          3.94410        2.20750       -2.25410
H          1.09320        0.78330        1.70370
H          1.55560       -0.32770        3.83620
H          2.67160       -2.17770        5.00710
H          4.05550       -3.00040        4.27290
H          5.47150       -0.98830        4.69580
H          4.77790       -1.60550        6.20010
H          4.09330       -0.17030        5.42860
H          4.92500       -2.27000        2.09110
H          4.47100       -1.16040       -0.03760
H          6.89710        1.65270        1.42760
H          6.43450        0.16780        0.57610
H          6.71330        1.31020       -1.61150
H          8.21170        1.39320       -0.66570
H          7.16760        2.81050       -0.79040
H          0.95100        6.73090        0.68320
H          1.66740        6.91930       -0.93930
H          1.81100        8.98770        1.31110
H          2.50960        9.17490       -0.29810
H          0.75180        9.08060       -0.10510
H          5.23390        7.24650        1.76820
H          7.31000        7.57510        2.91110
H         11.36320        3.04010        4.49830
H         13.67060        2.57780        6.03020
H         15.29850        3.98830        7.50780
H         11.91540        7.79700        5.96910
