106

C         -2.08310        0.64630        7.04840
C         -1.18080        1.16560        7.92740
C          0.27130        0.87430        7.89650
O          0.83230       -0.04650        7.34020
C          0.90670        2.00480        8.59870
C          2.24820        2.26820        8.73310
C          2.62000        3.43530        9.40810
C          3.92380        3.94410        9.66670
C          3.90070        5.11570       10.33900
S          2.30550        5.67470       10.70430
C          1.61410        4.28690        9.92480
C          0.25640        4.01950        9.79350
C         -0.09330        2.86570        9.11890
C         -1.39780        2.31790        8.78060
C         -2.61390        2.75020        9.23960
C         -3.82970        2.09260        8.95770
N         -4.84050        1.57740        8.78150
C         -2.78730        3.86450       10.08480
N         -2.97920        4.76850       10.76580
C         -1.88810       -0.47470        6.19880
C         -1.39450       -1.74810        6.42860
C         -1.04620       -2.33260        7.75750
C         -2.21060       -2.26400        8.74500
C         -1.35740       -2.49290        5.23980
S         -0.78090       -4.10590        4.88200
C         -1.06100       -3.81050        3.19970
C         -0.78110       -4.39870        1.95620
C         -0.06800       -5.57000        1.61040
C          0.34740       -5.75850        0.24720
N          1.08430       -6.84640        0.09120
S          1.23360       -7.57850        1.52710
N          0.37200       -6.52960        2.40800
C         -0.06090       -4.82430       -0.73170
C          0.23350       -4.68920       -2.09810
S          1.25010       -5.40500       -3.30320
C          0.75680       -4.14910       -4.42790
C          1.16820       -3.82010       -5.71140
C          2.19330       -4.60660       -6.46090
C          3.59730       -4.05040       -6.20630
C          0.57350       -2.62000       -6.14790
S         -0.55320       -1.96150       -4.95760
C         -0.18450       -3.25590       -3.88620
C         -0.48320       -3.57890       -2.56320
N         -1.22960       -3.03690       -1.54720
C         -0.93520       -3.74950       -0.40020
C         -1.19640       -3.46830        0.96170
N         -1.70330       -2.34720        1.58830
C         -1.61310       -2.55040        2.93780
C         -1.79610       -1.80280        4.10430
S         -2.37390       -0.23440        4.51780
C         -1.95740       -1.01810        1.07820
C         -3.43980       -0.65360        1.14770
C         -2.44930       -2.32090       -1.86220
C         -3.35950       -3.14830       -2.76950
C          0.91750       -1.99590       -7.34910
C          0.59380       -0.75070       -7.83770
C         -0.25660        0.24070       -7.17750
O         -0.94670        0.08880       -6.18200
C         -0.12310        1.48230       -7.95670
C         -0.65520        2.71230       -7.70200
C         -0.35350        3.78460       -8.57100
C         -0.85880        5.08090       -8.34600
C         -0.54790        6.11370       -9.18640
C          0.28460        5.86490      -10.28560
F          0.58150        6.89400      -11.10050
C          0.79880        4.62600      -10.55110
C          0.49100        3.55130       -9.69470
C          1.01790        2.26030       -9.93790
C          0.71740        1.23790       -9.07880
C          1.13130       -0.16440       -9.04820
C          1.88260       -0.78540      -10.01470
C          2.35950       -0.14250      -11.17540
N          2.77830        0.32050      -12.13920
C          2.27200       -2.14000      -10.00850
N          2.62720       -3.23130      -10.07480
H         -2.99870        1.20180        6.87160
H          2.98790        1.59740        8.32420
H          4.82400        3.44640        9.35450
H          4.73630        5.70970       10.65450
H         -0.47580        4.70180       10.19310
H         -0.76180       -3.37530        7.60090
H         -0.18030       -1.80670        8.16310
H         -2.51160       -1.23490        8.92690
H         -1.91890       -2.71150        9.69150
H         -3.06950       -2.80760        8.35710
H          1.98690       -4.60030       -7.53200
H          2.15330       -5.63980       -6.11040
H          3.83250       -4.09010       -5.14520
H          4.33110       -4.63960       -6.74880
H          3.66920       -3.01740       -6.53920
H         -1.56630       -0.94150        0.06460
H         -1.39820       -0.31310        1.70370
H         -3.76090       -0.59240        2.18400
H         -4.06100       -1.39340        0.64780
H         -3.60180        0.31310        0.67990
H         -2.98360       -2.11720       -0.93980
H         -2.19130       -1.38130       -2.36130
H         -2.89890       -3.31680       -3.73830
H         -3.57620       -4.11120       -2.31110
H         -4.29410       -2.61580       -2.92280
H          1.60350       -2.57480       -7.95240
H         -1.29020        2.86840       -6.84270
H         -1.49770        5.24740       -7.49160
H         -0.92350        7.11200       -9.02690
H          1.43670        4.47170      -11.40730
H          1.65600        2.12000      -10.79540
