
  xtb     02022201523D
 energy: -199.923173314150 gnorm: 0.000707694265 xtb: 6.4.1 (unknown)
106119  0     0  0            999 V2000
   -7.0083    1.9229    3.6608 C   0  0  0  0  0  0  0  0  0  0  0  0
   -6.9403    3.2586    3.3484 C   0  0  0  0  0  0  0  0  0  0  0  0
   -5.8805    3.9142    2.5785 C   0  0  0  0  0  0  0  0  0  0  0  0
   -4.8549    3.4126    2.1465 O   0  0  0  0  0  0  0  0  0  0  0  0
   -6.2911    5.3182    2.4237 C   0  0  0  0  0  0  0  0  0  0  0  0
   -5.6408    6.3238    1.7512 C   0  0  0  0  0  0  0  0  0  0  0  0
   -6.2379    7.5881    1.7328 C   0  0  0  0  0  0  0  0  0  0  0  0
   -5.7858    8.7865    1.1122 C   0  0  0  0  0  0  0  0  0  0  0  0
   -6.6316    9.8222    1.3043 C   0  0  0  0  0  0  0  0  0  0  0  0
   -8.0241    9.4150    2.2458 S   0  0  0  0  0  0  0  0  0  0  0  0
   -7.4697    7.7779    2.4025 C   0  0  0  0  0  0  0  0  0  0  0  0
   -8.1261    6.7602    3.0859 C   0  0  0  0  0  0  0  0  0  0  0  0
   -7.5254    5.5161    3.0924 C   0  0  0  0  0  0  0  0  0  0  0  0
   -7.9389    4.2518    3.6932 C   0  0  0  0  0  0  0  0  0  0  0  0
   -9.0669    4.0706    4.4548 C   0  0  0  0  0  0  0  0  0  0  0  0
   -9.9913    5.0925    4.7548 C   0  0  0  0  0  0  0  0  0  0  0  0
  -10.7849    5.8732    5.0361 N   0  0  0  0  0  0  0  0  0  0  0  0
   -9.4703    2.8626    5.0586 C   0  0  0  0  0  0  0  0  0  0  0  0
   -9.8692    1.9195    5.5814 N   0  0  0  0  0  0  0  0  0  0  0  0
   -6.1379    0.8671    3.3706 C   0  0  0  0  0  0  0  0  0  0  0  0
   -6.4148   -0.4665    3.7220 C   0  0  0  0  0  0  0  0  0  0  0  0
   -7.6505   -0.9522    4.4065 C   0  0  0  0  0  0  0  0  0  0  0  0
   -8.7844   -1.1655    3.3999 C   0  0  0  0  0  0  0  0  0  0  0  0
   -5.4049   -1.3197    3.2982 C   0  0  0  0  0  0  0  0  0  0  0  0
   -5.1983   -3.0585    3.4100 S   0  0  0  0  0  0  0  0  0  0  0  0
   -3.6858   -2.9034    2.5849 C   0  0  0  0  0  0  0  0  0  0  0  0
   -2.6275   -3.7134    2.1436 C   0  0  0  0  0  0  0  0  0  0  0  0
   -2.3212   -5.0840    2.3150 C   0  0  0  0  0  0  0  0  0  0  0  0
   -1.0490   -5.5824    1.8614 C   0  0  0  0  0  0  0  0  0  0  0  0
   -0.8748   -6.8596    2.1591 N   0  0  0  0  0  0  0  0  0  0  0  0
   -2.1920   -7.3955    2.9316 S   0  0  0  0  0  0  0  0  0  0  0  0
   -3.0382   -6.0163    2.9208 N   0  0  0  0  0  0  0  0  0  0  0  0
   -0.1943   -4.7275    1.1264 C   0  0  0  0  0  0  0  0  0  0  0  0
    1.0224   -4.9291    0.4570 C   0  0  0  0  0  0  0  0  0  0  0  0
    2.2058   -6.1714    0.2436 S   0  0  0  0  0  0  0  0  0  0  0  0
    3.1269   -5.0779   -0.7732 C   0  0  0  0  0  0  0  0  0  0  0  0
    4.3447   -5.2091   -1.4216 C   0  0  0  0  0  0  0  0  0  0  0  0
    5.1273   -6.4808   -1.4273 C   0  0  0  0  0  0  0  0  0  0  0  0
    4.8499   -7.2817   -2.7029 C   0  0  0  0  0  0  0  0  0  0  0  0
    4.6960   -4.0229   -2.0969 C   0  0  0  0  0  0  0  0  0  0  0  0
    3.4688   -2.7642   -1.9166 S   0  0  0  0  0  0  0  0  0  0  0  0
    2.5212   -3.8179   -0.9372 C   0  0  0  0  0  0  0  0  0  0  0  0
    1.3193   -3.7428   -0.2328 C   0  0  0  0  0  0  0  0  0  0  0  0
    0.3374   -2.8091   -0.0057 N   0  0  0  0  0  0  0  0  0  0  0  0
   -0.5746   -3.3844    0.8559 C   0  0  0  0  0  0  0  0  0  0  0  0
   -1.7056   -2.8423    1.5010 C   0  0  0  0  0  0  0  0  0  0  0  0
   -2.1514   -1.5401    1.6040 N   0  0  0  0  0  0  0  0  0  0  0  0
   -3.3624   -1.5802    2.2488 C   0  0  0  0  0  0  0  0  0  0  0  0
   -4.3409   -0.6688    2.6511 C   0  0  0  0  0  0  0  0  0  0  0  0
   -4.5955    1.0303    2.5276 S   0  0  0  0  0  0  0  0  0  0  0  0
   -1.3335   -0.3440    1.6611 C   0  0  0  0  0  0  0  0  0  0  0  0
   -1.0621    0.0701    3.1069 C   0  0  0  0  0  0  0  0  0  0  0  0
    0.0626   -1.7813   -0.9916 C   0  0  0  0  0  0  0  0  0  0  0  0
   -0.2135   -2.3940   -2.3642 C   0  0  0  0  0  0  0  0  0  0  0  0
    5.9008   -3.8774   -2.7846 C   0  0  0  0  0  0  0  0  0  0  0  0
    6.4351   -2.8029   -3.4605 C   0  0  0  0  0  0  0  0  0  0  0  0
    5.7982   -1.5000   -3.6472 C   0  0  0  0  0  0  0  0  0  0  0  0
    4.6926   -1.1477   -3.2700 O   0  0  0  0  0  0  0  0  0  0  0  0
    6.7653   -0.6717   -4.3915 C   0  0  0  0  0  0  0  0  0  0  0  0
    6.6467    0.6254   -4.7973 C   0  0  0  0  0  0  0  0  0  0  0  0
    7.7207    1.2274   -5.4908 C   0  0  0  0  0  0  0  0  0  0  0  0
    7.6547    2.5636   -5.9300 C   0  0  0  0  0  0  0  0  0  0  0  0
    8.7109    3.1226   -6.5934 C   0  0  0  0  0  0  0  0  0  0  0  0
    8.6460    4.3955   -7.0101 F   0  0  0  0  0  0  0  0  0  0  0  0
    9.8759    2.3721   -6.8460 C   0  0  0  0  0  0  0  0  0  0  0  0
   10.8966    2.9469   -7.4970 F   0  0  0  0  0  0  0  0  0  0  0  0
    9.9688    1.0723   -6.4334 C   0  0  0  0  0  0  0  0  0  0  0  0
    8.8973    0.4665   -5.7475 C   0  0  0  0  0  0  0  0  0  0  0  0
    8.9866   -0.8779   -5.3171 C   0  0  0  0  0  0  0  0  0  0  0  0
    7.9337   -1.4419   -4.6477 C   0  0  0  0  0  0  0  0  0  0  0  0
    7.7402   -2.7782   -4.0856 C   0  0  0  0  0  0  0  0  0  0  0  0
    8.6574   -3.7981   -4.1544 C   0  0  0  0  0  0  0  0  0  0  0  0
    9.9163   -3.6862   -4.7800 C   0  0  0  0  0  0  0  0  0  0  0  0
   10.9547   -3.6649   -5.2697 N   0  0  0  0  0  0  0  0  0  0  0  0
    8.4945   -5.0943   -3.6253 C   0  0  0  0  0  0  0  0  0  0  0  0
    8.4372   -6.1701   -3.2244 N   0  0  0  0  0  0  0  0  0  0  0  0
   -7.8874    1.6112    4.2077 H   0  0  0  0  0  0  0  0  0  0  0  0
   -4.7019    6.1392    1.2525 H   0  0  0  0  0  0  0  0  0  0  0  0
   -4.8703    8.8524    0.5525 H   0  0  0  0  0  0  0  0  0  0  0  0
   -6.5314   10.8286    0.9469 H   0  0  0  0  0  0  0  0  0  0  0  0
   -9.0636    6.9574    3.5779 H   0  0  0  0  0  0  0  0  0  0  0  0
   -7.4200   -1.9043    4.8887 H   0  0  0  0  0  0  0  0  0  0  0  0
   -7.9757   -0.2500    5.1755 H   0  0  0  0  0  0  0  0  0  0  0  0
   -8.4890   -1.8911    2.6456 H   0  0  0  0  0  0  0  0  0  0  0  0
   -9.0398   -0.2322    2.9034 H   0  0  0  0  0  0  0  0  0  0  0  0
   -9.6671   -1.5349    3.9138 H   0  0  0  0  0  0  0  0  0  0  0  0
    6.1979   -6.2862   -1.3493 H   0  0  0  0  0  0  0  0  0  0  0  0
    4.8233   -7.0724   -0.5616 H   0  0  0  0  0  0  0  0  0  0  0  0
    5.4180   -8.2071   -2.6862 H   0  0  0  0  0  0  0  0  0  0  0  0
    3.7916   -7.5213   -2.7767 H   0  0  0  0  0  0  0  0  0  0  0  0
    5.1408   -6.7155   -3.5845 H   0  0  0  0  0  0  0  0  0  0  0  0
   -1.8568    0.4625    1.1385 H   0  0  0  0  0  0  0  0  0  0  0  0
   -0.3790   -0.5399    1.1768 H   0  0  0  0  0  0  0  0  0  0  0  0
   -0.4049    0.9348    3.1162 H   0  0  0  0  0  0  0  0  0  0  0  0
   -1.9836    0.3346    3.6171 H   0  0  0  0  0  0  0  0  0  0  0  0
   -0.5806   -0.7420    3.6478 H   0  0  0  0  0  0  0  0  0  0  0  0
   -0.8178   -1.2204   -0.6840 H   0  0  0  0  0  0  0  0  0  0  0  0
    0.9268   -1.1129   -1.0531 H   0  0  0  0  0  0  0  0  0  0  0  0
    0.6657   -2.9016   -2.7499 H   0  0  0  0  0  0  0  0  0  0  0  0
   -1.0328   -3.1073   -2.3002 H   0  0  0  0  0  0  0  0  0  0  0  0
   -0.4887   -1.6075   -3.0609 H   0  0  0  0  0  0  0  0  0  0  0  0
    6.5168   -4.7654   -2.7565 H   0  0  0  0  0  0  0  0  0  0  0  0
    5.7478    1.1858   -4.5901 H   0  0  0  0  0  0  0  0  0  0  0  0
    6.7699    3.1521   -5.7440 H   0  0  0  0  0  0  0  0  0  0  0  0
   10.8680    0.5113   -6.6350 H   0  0  0  0  0  0  0  0  0  0  0  0
    9.8910   -1.4246   -5.5284 H   0  0  0  0  0  0  0  0  0  0  0  0
  1  2  2  0  0  0  0
  2  3  1  0  0  0  0
  3  4  2  0  0  0  0
  3  5  1  0  0  0  0
  5  6  2  0  0  0  0
  6  7  1  0  0  0  0
  7  8  1  0  0  0  0
  8  9  2  0  0  0  0
  9 10  1  0  0  0  0
 10 11  1  0  0  0  0
 11 12  1  0  0  0  0
 12 13  2  0  0  0  0
 13 14  1  0  0  0  0
 14 15  2  0  0  0  0
 15 16  1  0  0  0  0
 16 17  3  0  0  0  0
 15 18  1  0  0  0  0
 18 19  3  0  0  0  0
  1 20  1  0  0  0  0
 20 21  2  0  0  0  0
 21 22  1  0  0  0  0
 22 23  1  0  0  0  0
 21 24  1  0  0  0  0
 24 25  1  0  0  0  0
 25 26  1  0  0  0  0
 26 27  1  0  0  0  0
 27 28  1  0  0  0  0
 28 29  1  0  0  0  0
 29 30  2  0  0  0  0
 30 31  1  0  0  0  0
 31 32  1  0  0  0  0
 29 33  1  0  0  0  0
 33 34  1  0  0  0  0
 34 35  1  0  0  0  0
 35 36  1  0  0  0  0
 36 37  1  0  0  0  0
 37 38  1  0  0  0  0
 38 39  1  0  0  0  0
 37 40  2  0  0  0  0
 40 41  1  0  0  0  0
 41 42  1  0  0  0  0
 42 43  1  0  0  0  0
 43 44  1  0  0  0  0
 44 45  1  0  0  0  0
 45 46  1  0  0  0  0
 46 47  1  0  0  0  0
 47 48  1  0  0  0  0
 48 49  1  0  0  0  0
 49 50  1  0  0  0  0
 47 51  1  0  0  0  0
 51 52  1  0  0  0  0
 44 53  1  0  0  0  0
 53 54  1  0  0  0  0
 40 55  1  0  0  0  0
 55 56  2  0  0  0  0
 56 57  1  0  0  0  0
 57 58  2  0  0  0  0
 57 59  1  0  0  0  0
 59 60  2  0  0  0  0
 60 61  1  0  0  0  0
 61 62  2  0  0  0  0
 62 63  1  0  0  0  0
 63 64  1  0  0  0  0
 63 65  2  0  0  0  0
 65 66  1  0  0  0  0
 65 67  1  0  0  0  0
 67 68  2  0  0  0  0
 68 69  1  0  0  0  0
 69 70  2  0  0  0  0
 70 71  1  0  0  0  0
 71 72  2  0  0  0  0
 72 73  1  0  0  0  0
 73 74  3  0  0  0  0
 72 75  1  0  0  0  0
 75 76  3  0  0  0  0
 14  2  1  0  0  0  0
 50 20  1  0  0  0  0
 71 56  1  0  0  0  0
 13  5  1  0  0  0  0
 49 24  2  0  0  0  0
 70 59  1  0  0  0  0
 11  7  2  0  0  0  0
 48 26  2  0  0  0  0
 68 61  1  0  0  0  0
 46 27  2  0  0  0  0
 32 28  2  0  0  0  0
 45 33  2  0  0  0  0
 43 34  2  0  0  0  0
 42 36  2  0  0  0  0
  1 77  1  0  0  0  0
  6 78  1  0  0  0  0
  8 79  1  0  0  0  0
  9 80  1  0  0  0  0
 12 81  1  0  0  0  0
 22 82  1  0  0  0  0
 22 83  1  0  0  0  0
 23 84  1  0  0  0  0
 23 85  1  0  0  0  0
 23 86  1  0  0  0  0
 38 87  1  0  0  0  0
 38 88  1  0  0  0  0
 39 89  1  0  0  0  0
 39 90  1  0  0  0  0
 39 91  1  0  0  0  0
 51 92  1  0  0  0  0
 51 93  1  0  0  0  0
 52 94  1  0  0  0  0
 52 95  1  0  0  0  0
 52 96  1  0  0  0  0
 53 97  1  0  0  0  0
 53 98  1  0  0  0  0
 54 99  1  0  0  0  0
 54100  1  0  0  0  0
 54101  1  0  0  0  0
 55102  1  0  0  0  0
 60103  1  0  0  0  0
 62104  1  0  0  0  0
 67105  1  0  0  0  0
 69106  1  0  0  0  0
M  END
