116

C          1.66670        1.55400        8.09480
C          1.27460        2.27470        9.18960
C         -0.10060        2.78020        9.40770
O         -1.10250        2.50800        8.77890
C          0.01950        3.78970       10.47720
C         -0.97190        4.57930       11.00650
C         -0.61800        5.48870       12.00840
C         -1.44060        6.41100       12.71470
C         -0.74790        7.14230       13.61480
S          0.93860        6.76210       13.66660
C          0.73140        5.56390       12.42800
C          1.73590        4.76690       11.89160
C          1.36810        3.87080       10.90650
C          2.15570        2.91050       10.14610
C          3.47390        2.59430       10.35740
C          4.29110        3.21830       11.32100
N          5.00020        3.69800       12.08620
C          4.16610        1.57770        9.66780
N          4.77880        0.75200        9.15550
C          0.82970        0.81310        7.23390
C         -0.29130        0.03290        7.49630
C         -0.80080       -0.27630        8.86310
C         -0.99570       -1.77370        9.09220
C         -0.80480       -0.52120        6.31410
S         -2.20160       -1.52190        5.97220
C         -1.81700       -1.45780        4.29090
C         -2.32430       -1.91150        3.06500
C         -3.50160       -2.66460        2.82490
C         -3.84620       -2.94370        1.48190
N         -4.95720       -3.62520        1.17950
C         -5.69960       -4.02150        2.19060
C         -5.35440       -3.75140        3.52000
N         -4.26930       -3.07940        3.83910
C         -2.96840       -2.49110        0.46380
C         -3.07490       -2.66910       -0.92210
S         -4.15120       -3.37910       -2.07310
C         -3.06170       -2.87440       -3.35370
C         -3.11290       -3.00820       -4.73510
C         -4.25610       -3.66010       -5.44210
C         -5.28370       -2.61740       -5.89090
C         -2.00290       -2.40420       -5.35090
S         -0.89740       -1.68880       -4.17680
C         -1.92310       -2.19470       -2.88790
C         -1.94260       -2.08340       -1.49490
N         -1.14090       -1.56250       -0.51630
C         -1.75650       -1.77240        0.70170
C         -1.44790       -1.43270        2.04570
N         -0.45450       -0.68800        2.65420
C         -0.66960       -0.71500        4.00500
C         -0.08720       -0.18120        5.15770
S          1.28530        0.78910        5.52960
C          0.65400        0.08650        2.14890
C          1.96350       -0.70010        2.20810
C          0.12480       -0.98430       -0.90200
C         -0.03290        0.46500       -1.36210
C         -1.82070       -2.38050       -6.73790
C         -0.83980       -1.80760       -7.50840
C          0.30680       -1.03500       -7.02420
O          0.60910       -0.79900       -5.86530
C          1.04110       -0.58630       -8.21870
C          2.19810        0.18800       -8.25040
C          2.65470        0.45930       -9.51780
C          2.00740       -0.00720      -10.66930
C          0.86900       -0.77790      -10.65110
C          0.38660       -1.06520       -9.37140
C         -0.77990       -1.84390       -8.95620
C         -1.63830       -2.49470       -9.80650
C         -2.75360       -3.26830       -9.42430
N         -3.67710       -3.91760       -9.20660
C         -1.52600       -2.49370      -11.21250
N         -1.50740       -2.54200      -12.35980
C          3.00060        0.65270      -11.59210
C          2.57110        1.96410      -12.29540
C          1.53560        2.60910      -11.40800
C          2.15240        3.04920      -10.31940
C          3.61630        2.70860      -10.45050
C          3.79010        2.84280      -11.97180
C          3.72440        1.17000      -10.30900
H          2.70840        1.60170        7.79750
H         -1.98970        4.49710       10.65800
H         -2.49730        6.51000       12.54370
H         -1.12150        7.90300       14.27240
H          2.75160        4.86560       12.23700
H         -1.75060        0.24740        9.00320
H         -0.09830        0.11360        9.60190
H         -0.06990       -2.31110        8.89810
H         -1.28480       -1.94800       10.12550
H         -1.77280       -2.17390        8.44770
H         -6.59580       -4.57180        1.93950
H         -5.97000       -4.08540        4.34370
H         -3.91180       -4.22590       -6.30900
H         -4.73390       -4.35410       -4.74790
H         -4.83560       -1.90770       -6.58270
H         -6.11260       -3.10930       -6.39160
H         -5.66730       -2.07120       -5.03230
H          0.74730        0.96800        2.79160
H          0.43480        0.43710        1.14490
H          2.23160       -0.89720        3.24290
H          1.87620       -1.65580        1.69500
H          2.76280       -0.12410        1.75020
H          0.50190       -1.57340       -1.74410
H          0.83850       -1.08150       -0.08860
H          0.94420        0.90460       -1.54090
H         -0.56350        1.06290       -0.62320
H         -0.59600        0.49780       -2.29090
H         -2.60370       -2.89530       -7.27750
H          2.66400        0.52580       -7.33770
H          0.38730       -1.12960      -11.54780
H          3.55030       -0.01200      -12.25540
H          2.30060        1.84710      -13.34130
H          0.48480        2.62800      -11.63030
H          1.71990        3.50890       -9.45010
H          4.29880        3.26960       -9.81740
H          4.73000        2.43310      -12.33920
H          3.67470        3.86810      -12.32000
H          4.74650        0.84000      -10.13330
