
  xtb     02022206363D
 energy: -252.290936396819 gnorm: 0.000543323472 xtb: 6.4.1 (unknown)
142159  0     0  0            999 V2000
    4.9401    6.3471   -4.5341 C   0  0  0  0  0  0  0  0  0  0  0  0
    4.1964    7.2907   -5.1818 C   0  0  0  0  0  0  0  0  0  0  0  0
    4.7063    8.6767   -5.3172 C   0  0  0  0  0  0  0  0  0  0  0  0
    5.8350    9.0629   -5.1111 O   0  0  0  0  0  0  0  0  0  0  0  0
    3.5265    9.4856   -5.6950 C   0  0  0  0  0  0  0  0  0  0  0  0
    3.4361   10.8486   -5.8362 C   0  0  0  0  0  0  0  0  0  0  0  0
    2.1920   11.3883   -6.1820 C   0  0  0  0  0  0  0  0  0  0  0  0
    1.8435   12.7524   -6.3832 C   0  0  0  0  0  0  0  0  0  0  0  0
    0.5366   12.9008   -6.7036 C   0  0  0  0  0  0  0  0  0  0  0  0
   -0.3472   14.5187   -7.0500 Br  0  0  0  0  0  0  0  0  0  0  0  0
   -0.3519   11.4023   -6.7815 S   0  0  0  0  0  0  0  0  0  0  0  0
    1.0886   10.5224   -6.3693 C   0  0  0  0  0  0  0  0  0  0  0  0
    1.1808    9.1421   -6.2371 C   0  0  0  0  0  0  0  0  0  0  0  0
    2.4165    8.6272   -5.8986 C   0  0  0  0  0  0  0  0  0  0  0  0
    2.8607    7.2484   -5.7294 C   0  0  0  0  0  0  0  0  0  0  0  0
    2.2441    6.1418   -6.2582 C   0  0  0  0  0  0  0  0  0  0  0  0
    0.9597    6.1551   -6.8325 C   0  0  0  0  0  0  0  0  0  0  0  0
   -0.0965    6.1139   -7.2814 N   0  0  0  0  0  0  0  0  0  0  0  0
    2.8857    4.8905   -6.3594 C   0  0  0  0  0  0  0  0  0  0  0  0
    3.4089    3.8792   -6.5071 N   0  0  0  0  0  0  0  0  0  0  0  0
    4.5116    5.1573   -3.9148 C   0  0  0  0  0  0  0  0  0  0  0  0
    5.3093    4.0747   -3.5585 C   0  0  0  0  0  0  0  0  0  0  0  0
    6.7482    3.9290   -3.9189 C   0  0  0  0  0  0  0  0  0  0  0  0
    6.8860    3.4584   -5.3692 C   0  0  0  0  0  0  0  0  0  0  0  0
    4.5658    3.0804   -2.9187 C   0  0  0  0  0  0  0  0  0  0  0  0
    5.0000    1.5095   -2.2858 S   0  0  0  0  0  0  0  0  0  0  0  0
    3.3630    1.2889   -1.7877 C   0  0  0  0  0  0  0  0  0  0  0  0
    2.5783    0.3292   -1.1347 C   0  0  0  0  0  0  0  0  0  0  0  0
    2.9814   -0.8975   -0.5527 C   0  0  0  0  0  0  0  0  0  0  0  0
    4.2599   -1.2686   -0.5326 N   0  0  0  0  0  0  0  0  0  0  0  0
    4.5753   -2.4271    0.0259 C   0  0  0  0  0  0  0  0  0  0  0  0
    5.9941   -2.6605    0.1732 C   0  0  0  0  0  0  0  0  0  0  0  0
    6.6759   -3.6054    1.4644 S   0  0  0  0  0  0  0  0  0  0  0  0
    8.2916   -3.2302    0.9728 C   0  0  0  0  0  0  0  0  0  0  0  0
    9.4798   -3.7419    1.7102 C   0  0  0  0  0  0  0  0  0  0  0  0
    9.5897   -3.1106    3.0991 C   0  0  0  0  0  0  0  0  0  0  0  0
    8.2593   -2.4125   -0.1205 C   0  0  0  0  0  0  0  0  0  0  0  0
    6.9752   -2.0710   -0.5778 C   0  0  0  0  0  0  0  0  0  0  0  0
    9.3791   -1.9686   -0.7197 F   0  0  0  0  0  0  0  0  0  0  0  0
    3.5471   -3.3049    0.4845 C   0  0  0  0  0  0  0  0  0  0  0  0
    3.7363   -4.6925    0.8279 C   0  0  0  0  0  0  0  0  0  0  0  0
    4.6203   -5.6190    0.3448 C   0  0  0  0  0  0  0  0  0  0  0  0
    4.3615   -6.8969    0.8683 C   0  0  0  0  0  0  0  0  0  0  0  0
    5.1087   -7.9683    0.5413 F   0  0  0  0  0  0  0  0  0  0  0  0
    3.3050   -6.9735    1.7315 C   0  0  0  0  0  0  0  0  0  0  0  0
    2.7780   -8.1769    2.4339 C   0  0  0  0  0  0  0  0  0  0  0  0
    1.3300   -8.4660    2.0377 C   0  0  0  0  0  0  0  0  0  0  0  0
    2.5761   -5.4159    1.8988 S   0  0  0  0  0  0  0  0  0  0  0  0
    2.2969   -2.8806    0.5754 N   0  0  0  0  0  0  0  0  0  0  0  0
    1.9967   -1.6739    0.1022 C   0  0  0  0  0  0  0  0  0  0  0  0
    0.6723   -1.1764    0.1417 C   0  0  0  0  0  0  0  0  0  0  0  0
   -0.4711   -1.7741    0.6898 C   0  0  0  0  0  0  0  0  0  0  0  0
   -0.9001   -3.1858    1.5821 S   0  0  0  0  0  0  0  0  0  0  0  0
   -2.5749   -2.6780    1.5409 C   0  0  0  0  0  0  0  0  0  0  0  0
   -3.7484   -3.2174    2.0921 C   0  0  0  0  0  0  0  0  0  0  0  0
   -3.8289   -4.5485    2.7603 C   0  0  0  0  0  0  0  0  0  0  0  0
   -3.1218   -5.6474    1.9695 C   0  0  0  0  0  0  0  0  0  0  0  0
   -4.8411   -2.4024    1.8280 C   0  0  0  0  0  0  0  0  0  0  0  0
   -4.4204   -1.0116    0.8275 S   0  0  0  0  0  0  0  0  0  0  0  0
   -2.7609   -1.4718    0.8506 C   0  0  0  0  0  0  0  0  0  0  0  0
   -1.5543   -0.9526    0.3693 C   0  0  0  0  0  0  0  0  0  0  0  0
   -1.1217    0.1429   -0.3315 N   0  0  0  0  0  0  0  0  0  0  0  0
   -2.0861    0.9520   -1.0422 C   0  0  0  0  0  0  0  0  0  0  0  0
   -2.0861    0.6349   -2.5361 C   0  0  0  0  0  0  0  0  0  0  0  0
    0.2514    0.0326   -0.4847 C   0  0  0  0  0  0  0  0  0  0  0  0
    1.2496    0.8443   -1.0807 C   0  0  0  0  0  0  0  0  0  0  0  0
    1.2468    2.0949   -1.6756 N   0  0  0  0  0  0  0  0  0  0  0  0
    2.5230    2.3652   -2.0931 C   0  0  0  0  0  0  0  0  0  0  0  0
    3.2107    3.3945   -2.7388 C   0  0  0  0  0  0  0  0  0  0  0  0
    2.8386    4.9468   -3.3897 S   0  0  0  0  0  0  0  0  0  0  0  0
    0.2762    3.1634   -1.6201 C   0  0  0  0  0  0  0  0  0  0  0  0
    0.0775    3.6602   -0.1896 C   0  0  0  0  0  0  0  0  0  0  0  0
   -6.2044   -2.5366    2.1772 C   0  0  0  0  0  0  0  0  0  0  0  0
   -6.6943   -3.0090    3.3611 C   0  0  0  0  0  0  0  0  0  0  0  0
   -5.9295   -3.0510    4.6302 C   0  0  0  0  0  0  0  0  0  0  0  0
   -4.7433   -2.8501    4.7901 O   0  0  0  0  0  0  0  0  0  0  0  0
   -6.9343   -3.2650    5.6892 C   0  0  0  0  0  0  0  0  0  0  0  0
   -6.6986   -3.3180    7.0608 C   0  0  0  0  0  0  0  0  0  0  0  0
   -7.8311   -3.5013    7.8171 C   0  0  0  0  0  0  0  0  0  0  0  0
   -9.1082   -3.6224    7.2524 C   0  0  0  0  0  0  0  0  0  0  0  0
   -9.3555   -3.5725    5.9013 C   0  0  0  0  0  0  0  0  0  0  0  0
   -8.2159   -3.3842    5.1140 C   0  0  0  0  0  0  0  0  0  0  0  0
   -8.0870   -3.2686    3.6656 C   0  0  0  0  0  0  0  0  0  0  0  0
   -9.0836   -3.4598    2.7443 C   0  0  0  0  0  0  0  0  0  0  0  0
   -8.8868   -3.4460    1.3472 C   0  0  0  0  0  0  0  0  0  0  0  0
   -8.7949   -3.4740    0.2029 N   0  0  0  0  0  0  0  0  0  0  0  0
  -10.4281   -3.7347    3.0670 C   0  0  0  0  0  0  0  0  0  0  0  0
  -11.5377   -3.9543    3.2646 N   0  0  0  0  0  0  0  0  0  0  0  0
   -9.7770   -3.7599    8.5970 C   0  0  0  0  0  0  0  0  0  0  0  0
  -10.5214   -2.5238    9.1598 C   0  0  0  0  0  0  0  0  0  0  0  0
   -9.8634   -1.3122    8.5478 C   0  0  0  0  0  0  0  0  0  0  0  0
   -8.6543   -1.1956    9.0805 C   0  0  0  0  0  0  0  0  0  0  0  0
   -8.4731   -2.3262   10.0631 C   0  0  0  0  0  0  0  0  0  0  0  0
   -9.9158   -2.4763   10.5717 C   0  0  0  0  0  0  0  0  0  0  0  0
   -8.3545   -3.6242    9.2260 C   0  0  0  0  0  0  0  0  0  0  0  0
    5.9900    6.5954   -4.4087 H   0  0  0  0  0  0  0  0  0  0  0  0
    4.2972   11.4808   -5.6870 H   0  0  0  0  0  0  0  0  0  0  0  0
    2.5354   13.5696   -6.2918 H   0  0  0  0  0  0  0  0  0  0  0  0
    0.3149    8.5181   -6.3862 H   0  0  0  0  0  0  0  0  0  0  0  0
    7.2024    3.1930   -3.2526 H   0  0  0  0  0  0  0  0  0  0  0  0
    7.2673    4.8814   -3.7941 H   0  0  0  0  0  0  0  0  0  0  0  0
    7.9357    3.3424   -5.6251 H   0  0  0  0  0  0  0  0  0  0  0  0
    6.4342    4.1781   -6.0475 H   0  0  0  0  0  0  0  0  0  0  0  0
    6.3848    2.5036   -5.5042 H   0  0  0  0  0  0  0  0  0  0  0  0
   10.3727   -3.5105    1.1257 H   0  0  0  0  0  0  0  0  0  0  0  0
    9.4055   -4.8273    1.8137 H   0  0  0  0  0  0  0  0  0  0  0  0
    8.7030   -3.3376    3.6868 H   0  0  0  0  0  0  0  0  0  0  0  0
   10.4619   -3.4989    3.6181 H   0  0  0  0  0  0  0  0  0  0  0  0
    9.6855   -2.0304    3.0179 H   0  0  0  0  0  0  0  0  0  0  0  0
    6.7768   -1.4308   -1.4163 H   0  0  0  0  0  0  0  0  0  0  0  0
    5.3973   -5.4195   -0.3692 H   0  0  0  0  0  0  0  0  0  0  0  0
    2.8291   -8.0189    3.5146 H   0  0  0  0  0  0  0  0  0  0  0  0
    3.4128   -9.0290    2.1822 H   0  0  0  0  0  0  0  0  0  0  0  0
    0.9673   -9.3476    2.5596 H   0  0  0  0  0  0  0  0  0  0  0  0
    1.2577   -8.6420    0.9671 H   0  0  0  0  0  0  0  0  0  0  0  0
    0.6954   -7.6206    2.2933 H   0  0  0  0  0  0  0  0  0  0  0  0
   -4.8787   -4.8166    2.8929 H   0  0  0  0  0  0  0  0  0  0  0  0
   -3.3829   -4.4621    3.7550 H   0  0  0  0  0  0  0  0  0  0  0  0
   -2.0515   -5.4701    1.9174 H   0  0  0  0  0  0  0  0  0  0  0  0
   -3.5163   -5.7009    0.9571 H   0  0  0  0  0  0  0  0  0  0  0  0
   -3.2864   -6.6065    2.4541 H   0  0  0  0  0  0  0  0  0  0  0  0
   -3.0653    0.7072   -0.6234 H   0  0  0  0  0  0  0  0  0  0  0  0
   -1.9129    2.0110   -0.8535 H   0  0  0  0  0  0  0  0  0  0  0  0
   -2.3658   -0.4041   -2.6937 H   0  0  0  0  0  0  0  0  0  0  0  0
   -1.1018    0.7897   -2.9727 H   0  0  0  0  0  0  0  0  0  0  0  0
   -2.8042    1.2673   -3.0508 H   0  0  0  0  0  0  0  0  0  0  0  0
   -0.6634    2.8508   -2.0742 H   0  0  0  0  0  0  0  0  0  0  0  0
    0.6729    3.9772   -2.2324 H   0  0  0  0  0  0  0  0  0  0  0  0
    1.0105    4.0653    0.1954 H   0  0  0  0  0  0  0  0  0  0  0  0
   -0.2359    2.8516    0.4670 H   0  0  0  0  0  0  0  0  0  0  0  0
   -0.6742    4.4445   -0.1689 H   0  0  0  0  0  0  0  0  0  0  0  0
   -6.9076   -2.1569    1.4443 H   0  0  0  0  0  0  0  0  0  0  0  0
   -5.6992   -3.2194    7.4549 H   0  0  0  0  0  0  0  0  0  0  0  0
  -10.3434   -3.6588    5.4804 H   0  0  0  0  0  0  0  0  0  0  0  0
  -10.3232   -4.6857    8.7656 H   0  0  0  0  0  0  0  0  0  0  0  0
  -11.6039   -2.5740    9.0800 H   0  0  0  0  0  0  0  0  0  0  0  0
  -10.3088   -0.7163    7.7727 H   0  0  0  0  0  0  0  0  0  0  0  0
   -7.8874   -0.4831    8.8389 H   0  0  0  0  0  0  0  0  0  0  0  0
   -7.6910   -2.1952   10.8064 H   0  0  0  0  0  0  0  0  0  0  0  0
  -10.2518   -1.6136   11.1449 H   0  0  0  0  0  0  0  0  0  0  0  0
  -10.0812   -3.3868   11.1460 H   0  0  0  0  0  0  0  0  0  0  0  0
   -7.9723   -4.4601    9.8086 H   0  0  0  0  0  0  0  0  0  0  0  0
  1  2  2  0  0  0  0
  2  3  1  0  0  0  0
  3  4  2  0  0  0  0
  3  5  1  0  0  0  0
  5  6  2  0  0  0  0
  6  7  1  0  0  0  0
  7  8  1  0  0  0  0
  8  9  2  0  0  0  0
  9 10  1  0  0  0  0
  9 11  1  0  0  0  0
 11 12  1  0  0  0  0
 12 13  1  0  0  0  0
 13 14  2  0  0  0  0
 14 15  1  0  0  0  0
 15 16  2  0  0  0  0
 16 17  1  0  0  0  0
 17 18  3  0  0  0  0
 16 19  1  0  0  0  0
 19 20  3  0  0  0  0
  1 21  1  0  0  0  0
 21 22  2  0  0  0  0
 22 23  1  0  0  0  0
 23 24  1  0  0  0  0
 22 25  1  0  0  0  0
 25 26  1  0  0  0  0
 26 27  1  0  0  0  0
 27 28  1  0  0  0  0
 28 29  2  0  0  0  0
 29 30  1  0  0  0  0
 30 31  2  0  0  0  0
 31 32  1  0  0  0  0
 32 33  1  0  0  0  0
 33 34  1  0  0  0  0
 34 35  1  0  0  0  0
 35 36  1  0  0  0  0
 34 37  2  0  0  0  0
 37 38  1  0  0  0  0
 37 39  1  0  0  0  0
 31 40  1  0  0  0  0
 40 41  1  0  0  0  0
 41 42  2  0  0  0  0
 42 43  1  0  0  0  0
 43 44  1  0  0  0  0
 43 45  2  0  0  0  0
 45 46  1  0  0  0  0
 46 47  1  0  0  0  0
 45 48  1  0  0  0  0
 40 49  2  0  0  0  0
 49 50  1  0  0  0  0
 50 51  2  0  0  0  0
 51 52  1  0  0  0  0
 52 53  1  0  0  0  0
 53 54  1  0  0  0  0
 54 55  1  0  0  0  0
 55 56  1  0  0  0  0
 56 57  1  0  0  0  0
 55 58  2  0  0  0  0
 58 59  1  0  0  0  0
 59 60  1  0  0  0  0
 60 61  1  0  0  0  0
 61 62  1  0  0  0  0
 62 63  1  0  0  0  0
 63 64  1  0  0  0  0
 62 65  1  0  0  0  0
 65 66  2  0  0  0  0
 66 67  1  0  0  0  0
 67 68  1  0  0  0  0
 68 69  1  0  0  0  0
 69 70  1  0  0  0  0
 67 71  1  0  0  0  0
 71 72  1  0  0  0  0
 58 73  1  0  0  0  0
 73 74  2  0  0  0  0
 74 75  1  0  0  0  0
 75 76  2  0  0  0  0
 75 77  1  0  0  0  0
 77 78  2  0  0  0  0
 78 79  1  0  0  0  0
 79 80  2  0  0  0  0
 80 81  1  0  0  0  0
 81 82  2  0  0  0  0
 82 83  1  0  0  0  0
 83 84  2  0  0  0  0
 84 85  1  0  0  0  0
 85 86  3  0  0  0  0
 84 87  1  0  0  0  0
 87 88  3  0  0  0  0
 80 89  1  0  0  0  0
 89 90  1  0  0  0  0
 90 91  1  0  0  0  0
 91 92  2  0  0  0  0
 92 93  1  0  0  0  0
 93 94  1  0  0  0  0
 93 95  1  0  0  0  0
 15  2  1  0  0  0  0
 70 21  1  0  0  0  0
 83 74  1  0  0  0  0
 95 89  1  0  0  0  0
 14  5  1  0  0  0  0
 69 25  2  0  0  0  0
 82 77  1  0  0  0  0
 94 90  1  0  0  0  0
 12  7  2  0  0  0  0
 68 27  2  0  0  0  0
 95 79  1  0  0  0  0
 66 28  1  0  0  0  0
 50 29  1  0  0  0  0
 65 51  1  0  0  0  0
 38 32  2  0  0  0  0
 48 41  1  0  0  0  0
 61 52  2  0  0  0  0
 60 54  2  0  0  0  0
  1 96  1  0  0  0  0
  6 97  1  0  0  0  0
  8 98  1  0  0  0  0
 13 99  1  0  0  0  0
 23100  1  0  0  0  0
 23101  1  0  0  0  0
 24102  1  0  0  0  0
 24103  1  0  0  0  0
 24104  1  0  0  0  0
 35105  1  0  0  0  0
 35106  1  0  0  0  0
 36107  1  0  0  0  0
 36108  1  0  0  0  0
 36109  1  0  0  0  0
 38110  1  0  0  0  0
 42111  1  0  0  0  0
 46112  1  0  0  0  0
 46113  1  0  0  0  0
 47114  1  0  0  0  0
 47115  1  0  0  0  0
 47116  1  0  0  0  0
 56117  1  0  0  0  0
 56118  1  0  0  0  0
 57119  1  0  0  0  0
 57120  1  0  0  0  0
 57121  1  0  0  0  0
 63122  1  0  0  0  0
 63123  1  0  0  0  0
 64124  1  0  0  0  0
 64125  1  0  0  0  0
 64126  1  0  0  0  0
 71127  1  0  0  0  0
 71128  1  0  0  0  0
 72129  1  0  0  0  0
 72130  1  0  0  0  0
 72131  1  0  0  0  0
 73132  1  0  0  0  0
 78133  1  0  0  0  0
 81134  1  0  0  0  0
 89135  1  0  0  0  0
 90136  1  0  0  0  0
 91137  1  0  0  0  0
 92138  1  0  0  0  0
 93139  1  0  0  0  0
 94140  1  0  0  0  0
 94141  1  0  0  0  0
 95142  1  0  0  0  0
M  END
