133

C          0.95430        4.88710        6.80350
C         -0.17420        5.67070        6.77090
C         -1.29610        5.52200        5.84490
O         -1.38430        4.76230        4.89370
C         -2.32780        6.47400        6.29760
C         -3.57910        6.68390        5.77290
C         -4.39150        7.64250        6.38860
C         -5.71230        8.04080        6.04400
C         -6.18580        8.99970        6.87460
Br        -7.87540        9.81000        6.78640
S         -5.06530        9.47910        8.12120
C         -3.89700        8.34620        7.51150
C         -2.62870        8.13540        8.03990
C         -1.83810        7.18690        7.42000
C         -0.48100        6.72970        7.70770
C          0.35070        7.25720        8.66430
C         -0.02200        8.29340        9.54450
N         -0.27350        9.12580       10.29470
C          1.69120        6.88060        8.89000
N          2.79480        6.65960        9.12240
C          1.37200        3.85970        5.95590
C          2.57180        3.15950        6.18450
C          3.39860        3.37230        7.38140
C          2.89600        2.95570        8.61130
C          3.62800        3.13810        9.76790
C          4.86840        3.74830        9.70260
C          5.36530        4.17010        8.48380
C          4.64810        3.99080        7.30890
C          5.17420        4.54550        6.01610
C          4.54700        5.91240        5.73110
C          2.82440        2.23630        5.18040
S          4.11830        1.07940        4.92970
C          3.32750        0.56430        3.47950
C          3.53680       -0.32740        2.42060
C          4.63860       -1.15470        2.10910
C          4.64150       -1.86170        0.86200
N          5.75800       -2.54640        0.67150
S          6.72070       -2.32560        1.95390
N          5.75050       -1.34470        2.80140
C          3.49310       -1.80370        0.04120
C          3.17700       -2.48180       -1.14410
S          3.90590       -3.59470       -2.25160
C          2.39950       -3.63050       -3.14760
C          1.99580       -4.32770       -4.27910
C          2.86550       -5.23950       -5.03880
C          2.68810       -6.62430       -5.00240
C          1.66000       -7.26320       -4.11290
C          2.23420       -7.46780       -2.70920
C          3.54470       -7.42060       -5.75040
C          4.55250       -6.86720       -6.51750
C          4.73270       -5.49470       -6.53600
C          3.89300       -4.68540       -5.79580
C          0.66990       -4.02550       -4.63020
S         -0.06810       -2.87880       -3.51580
C          1.39280       -2.81620       -2.60030
C          1.85210       -2.15680       -1.45650
N          1.34690       -1.28110       -0.53000
C          2.34370       -1.04030        0.40240
C          2.41780       -0.19930        1.54340
N          1.58860        0.78520        2.04130
C          2.12900        1.24080        3.21450
C          1.83530        2.20840        4.17790
S          0.56570        3.33690        4.48100
C          0.53500        1.54000        1.40100
C         -0.83960        1.23500        1.99500
C         -0.09230       -1.21920       -0.38170
C         -0.58440       -2.30160        0.57690
C          0.05590       -4.59270       -5.75430
C         -1.19190       -4.38580       -6.28290
C         -2.17650       -3.40580       -5.81560
O         -2.12080       -2.71760       -4.80910
C         -3.25810       -3.39830       -6.81400
C         -4.38600       -2.58140       -6.82350
C         -5.21740       -2.78930       -7.89770
C         -4.94380       -3.73650       -8.89320
C         -3.83450       -4.54880       -8.89550
C         -2.97870       -4.35910       -7.80740
C         -1.72640       -5.03150       -7.46480
C         -1.20430       -6.12120       -8.11310
C         -0.05840       -6.84180       -7.71590
N          0.84390       -7.50350       -7.45510
C         -1.77960       -6.71970       -9.25340
N         -2.18840       -7.25750      -10.18190
C         -6.19970       -3.40960       -9.66120
C         -7.39220       -4.39040       -9.54140
C         -7.25160       -5.07550       -8.20470
C         -7.51220       -4.18020       -7.26150
C         -7.83310       -2.87310       -7.94340
C         -8.51660       -3.39350       -9.21800
C         -6.50560       -2.35540       -8.55090
H          1.64820        5.06830        7.61590
H         -3.92240        6.12650        4.91550
H         -6.27000        7.62970        5.22240
H         -2.29980        8.69610        8.89860
H          1.92540        2.48070        8.64890
H          3.22790        2.81100       10.71580
H          5.44370        3.90330       10.60260
H          6.32770        4.65870        8.43880
H          4.95880        3.86730        5.18910
H          6.25730        4.65740        6.08710
H          4.70200        6.58010        6.57540
H          3.47560        5.81770        5.56710
H          4.99350        6.35720        4.84480
H          0.76460       -6.64310       -4.04660
H          1.37120       -8.22730       -4.53380
H          3.11760       -8.10050       -2.75040
H          2.52000       -6.51350       -2.27170
H          1.49780       -7.93970       -2.06280
H          3.40860       -8.49130       -5.73420
H          5.20010       -7.50620       -7.09880
H          5.52210       -5.05420       -7.12640
H          4.01920       -3.61220       -5.80650
H          0.75080        2.60240        1.55960
H          0.57560        1.35610        0.32650
H         -0.89930        1.62160        3.00860
H         -1.61120        1.71940        1.40300
H         -1.03350        0.16630        2.02560
H         -0.51750       -1.38650       -1.37450
H         -0.41380       -0.24170       -0.03980
H         -0.31080       -3.28640        0.20570
H         -1.66610       -2.25370        0.66500
H         -0.14180       -2.17090        1.56280
H          0.70360       -5.28470       -6.28100
H         -4.55500       -1.86050       -6.03890
H         -3.63600       -5.26760       -9.67280
H         -6.05720       -3.05190      -10.67890
H         -7.52980       -5.04020      -10.40140
H         -6.93080       -6.09370       -8.08500
H         -7.45260       -4.30090       -6.19560
H         -8.37340       -2.14100       -7.34890
H         -8.65130       -2.62860       -9.98150
H         -9.46800       -3.88300       -9.01560
H         -6.56370       -1.30870       -8.84370
