88

C         -1.00750       -0.54460       -7.81970
C         -2.05570        0.30880       -8.08170
C         -2.86510        0.97820       -7.07470
O         -2.79060        0.85110       -5.85680
C         -3.80370        1.84950       -7.79560
C         -4.74720        2.70210       -7.27660
C         -5.51530        3.44780       -8.17720
C         -6.53910        4.39410       -7.89930
C         -7.05950        4.92570       -9.03110
Br        -8.42320        6.20900       -9.13050
S         -6.34420        4.31350      -10.49870
C         -5.29240        3.29340       -9.56590
C         -4.33960        2.42650      -10.08960
C         -3.58840        1.69710       -9.18850
C         -2.51820        0.72300       -9.39230
C         -2.06790        0.28970      -10.61310
C         -1.04640       -0.65950      -10.82520
N         -0.22900       -1.42390      -11.08500
C         -2.58460        0.73360      -11.84840
N         -2.96170        1.05300      -12.88480
C         -0.46590       -0.97520       -6.60380
C          0.65000       -1.81970       -6.57570
C          1.10700       -2.14720       -5.31500
S          2.45980       -3.14530       -4.80720
C          2.05360       -2.80730       -3.16090
C          2.48690       -3.12460       -1.86680
C          3.49740       -4.00240       -1.41470
C          3.66260       -4.19880       -0.00490
N          4.60540       -5.08440        0.27520
S          5.23490       -5.62150       -1.11570
N          4.32810       -4.74460       -2.12940
C          2.89370       -3.41880        0.88830
C          2.95800       -3.29250        2.28020
C          2.07810       -2.26250        2.63920
N          1.45510       -1.76940        1.52220
C          0.77070       -0.49750        1.60290
C          1.41720        0.56750        0.72420
C          1.92490       -2.47540        0.42840
C          1.63390       -2.42610       -0.95900
N          0.68180       -1.74180       -1.69600
C          0.93900       -1.97170       -3.02330
C          0.37730       -1.59010       -4.24210
Se        -1.03870       -0.53750       -4.84400
C         -0.65710       -1.32540       -1.34360
C         -1.64650       -2.47880       -1.49410
C          2.07770       -1.99230        4.00940
C          2.97390       -2.85470        4.68060
S          3.80730       -3.97730        3.62010
C          3.05910       -2.68120        6.04670
C          2.24140       -1.67430        6.57340
Se         1.23230       -0.82910        5.20070
C          2.23860       -1.39620        7.94340
C          1.52490       -0.46770        8.66960
C          0.55970        0.46870        8.11480
O          0.23470        0.59450        6.93980
C          0.03710        1.25150        9.24710
C         -0.90250        2.26160        9.24330
C         -1.23330        2.85570       10.45530
Cl        -2.39760        4.11690       10.49530
C         -0.62150        2.42970       11.63880
Cl        -1.03860        3.17210       13.12950
C          0.32580        1.40970       11.63620
C          0.65850        0.81530       10.43130
C          1.59800       -0.25850       10.10240
C          2.38850       -0.91780       11.00700
C          2.39780       -0.64850       12.39260
N          2.45730       -0.48030       13.52620
C          3.30280       -1.94950       10.70590
N          4.06870       -2.79080       10.54820
H         -0.48750       -0.94800       -8.68130
H         -4.88630        2.79420       -6.21100
H         -6.86220        4.65790       -6.90890
H         -4.20930        2.34800      -11.15580
H          1.11130       -2.17510       -7.48180
H         -0.29510       -0.61290        1.38290
H          0.83480       -0.17850        2.65020
H          2.45500        0.70750        1.01730
H          0.89200        1.50990        0.85030
H          1.39250        0.29300       -0.32650
H         -0.68690       -0.95130       -0.32750
H         -0.93460       -0.51080       -2.02530
H         -1.67900       -2.82120       -2.52630
H         -2.64150       -2.14910       -1.20960
H         -1.35630       -3.31310       -0.85860
H          3.70560       -3.26960        6.67590
H          2.91580       -2.02940        8.50540
H         -1.36650        2.58000        8.32340
H          0.77410        1.11040       12.56910
