
  xtb     02102222523D
 energy: -233.253486699078 gnorm: 0.000983582006 xtb: 6.4.1 (unknown)
133150  0     0  0            999 V2000
    0.9543    4.8871    6.8035 C   0  0  0  0  0  0  0  0  0  0  0  0
   -0.1742    5.6707    6.7709 C   0  0  0  0  0  0  0  0  0  0  0  0
   -1.2961    5.5220    5.8449 C   0  0  0  0  0  0  0  0  0  0  0  0
   -1.3843    4.7623    4.8937 O   0  0  0  0  0  0  0  0  0  0  0  0
   -2.3278    6.4740    6.2976 C   0  0  0  0  0  0  0  0  0  0  0  0
   -3.5791    6.6839    5.7729 C   0  0  0  0  0  0  0  0  0  0  0  0
   -4.3915    7.6425    6.3886 C   0  0  0  0  0  0  0  0  0  0  0  0
   -5.7123    8.0408    6.0440 C   0  0  0  0  0  0  0  0  0  0  0  0
   -6.1858    8.9997    6.8746 C   0  0  0  0  0  0  0  0  0  0  0  0
   -7.8754    9.8100    6.7864 Br  0  0  0  0  0  0  0  0  0  0  0  0
   -5.0653    9.4791    8.1212 S   0  0  0  0  0  0  0  0  0  0  0  0
   -3.8970    8.3462    7.5115 C   0  0  0  0  0  0  0  0  0  0  0  0
   -2.6287    8.1354    8.0399 C   0  0  0  0  0  0  0  0  0  0  0  0
   -1.8381    7.1869    7.4200 C   0  0  0  0  0  0  0  0  0  0  0  0
   -0.4810    6.7297    7.7077 C   0  0  0  0  0  0  0  0  0  0  0  0
    0.3507    7.2572    8.6643 C   0  0  0  0  0  0  0  0  0  0  0  0
   -0.0220    8.2934    9.5445 C   0  0  0  0  0  0  0  0  0  0  0  0
   -0.2735    9.1258   10.2947 N   0  0  0  0  0  0  0  0  0  0  0  0
    1.6912    6.8806    8.8900 C   0  0  0  0  0  0  0  0  0  0  0  0
    2.7948    6.6596    9.1224 N   0  0  0  0  0  0  0  0  0  0  0  0
    1.3720    3.8597    5.9559 C   0  0  0  0  0  0  0  0  0  0  0  0
    2.5718    3.1595    6.1845 C   0  0  0  0  0  0  0  0  0  0  0  0
    3.3986    3.3723    7.3814 C   0  0  0  0  0  0  0  0  0  0  0  0
    2.8960    2.9557    8.6113 C   0  0  0  0  0  0  0  0  0  0  0  0
    3.6280    3.1381    9.7679 C   0  0  0  0  0  0  0  0  0  0  0  0
    4.8684    3.7483    9.7026 C   0  0  0  0  0  0  0  0  0  0  0  0
    5.3653    4.1701    8.4838 C   0  0  0  0  0  0  0  0  0  0  0  0
    4.6481    3.9908    7.3089 C   0  0  0  0  0  0  0  0  0  0  0  0
    5.1742    4.5455    6.0161 C   0  0  0  0  0  0  0  0  0  0  0  0
    4.5470    5.9124    5.7311 C   0  0  0  0  0  0  0  0  0  0  0  0
    2.8244    2.2363    5.1804 C   0  0  0  0  0  0  0  0  0  0  0  0
    4.1183    1.0794    4.9297 S   0  0  0  0  0  0  0  0  0  0  0  0
    3.3275    0.5643    3.4795 C   0  0  0  0  0  0  0  0  0  0  0  0
    3.5368   -0.3274    2.4206 C   0  0  0  0  0  0  0  0  0  0  0  0
    4.6386   -1.1547    2.1091 C   0  0  0  0  0  0  0  0  0  0  0  0
    4.6415   -1.8617    0.8620 C   0  0  0  0  0  0  0  0  0  0  0  0
    5.7580   -2.5464    0.6715 N   0  0  0  0  0  0  0  0  0  0  0  0
    6.7207   -2.3256    1.9539 S   0  0  0  0  0  0  0  0  0  0  0  0
    5.7505   -1.3447    2.8014 N   0  0  0  0  0  0  0  0  0  0  0  0
    3.4931   -1.8037    0.0412 C   0  0  0  0  0  0  0  0  0  0  0  0
    3.1770   -2.4818   -1.1441 C   0  0  0  0  0  0  0  0  0  0  0  0
    3.9059   -3.5947   -2.2516 S   0  0  0  0  0  0  0  0  0  0  0  0
    2.3995   -3.6305   -3.1476 C   0  0  0  0  0  0  0  0  0  0  0  0
    1.9958   -4.3277   -4.2791 C   0  0  0  0  0  0  0  0  0  0  0  0
    2.8655   -5.2395   -5.0388 C   0  0  0  0  0  0  0  0  0  0  0  0
    2.6881   -6.6243   -5.0024 C   0  0  0  0  0  0  0  0  0  0  0  0
    1.6600   -7.2632   -4.1129 C   0  0  0  0  0  0  0  0  0  0  0  0
    2.2342   -7.4678   -2.7092 C   0  0  0  0  0  0  0  0  0  0  0  0
    3.5447   -7.4206   -5.7504 C   0  0  0  0  0  0  0  0  0  0  0  0
    4.5525   -6.8672   -6.5175 C   0  0  0  0  0  0  0  0  0  0  0  0
    4.7327   -5.4947   -6.5360 C   0  0  0  0  0  0  0  0  0  0  0  0
    3.8930   -4.6854   -5.7958 C   0  0  0  0  0  0  0  0  0  0  0  0
    0.6699   -4.0255   -4.6302 C   0  0  0  0  0  0  0  0  0  0  0  0
   -0.0681   -2.8788   -3.5158 S   0  0  0  0  0  0  0  0  0  0  0  0
    1.3928   -2.8162   -2.6003 C   0  0  0  0  0  0  0  0  0  0  0  0
    1.8521   -2.1568   -1.4565 C   0  0  0  0  0  0  0  0  0  0  0  0
    1.3469   -1.2811   -0.5300 N   0  0  0  0  0  0  0  0  0  0  0  0
    2.3437   -1.0403    0.4024 C   0  0  0  0  0  0  0  0  0  0  0  0
    2.4178   -0.1993    1.5434 C   0  0  0  0  0  0  0  0  0  0  0  0
    1.5886    0.7852    2.0413 N   0  0  0  0  0  0  0  0  0  0  0  0
    2.1290    1.2408    3.2145 C   0  0  0  0  0  0  0  0  0  0  0  0
    1.8353    2.2084    4.1779 C   0  0  0  0  0  0  0  0  0  0  0  0
    0.5657    3.3369    4.4810 S   0  0  0  0  0  0  0  0  0  0  0  0
    0.5350    1.5400    1.4010 C   0  0  0  0  0  0  0  0  0  0  0  0
   -0.8396    1.2350    1.9950 C   0  0  0  0  0  0  0  0  0  0  0  0
   -0.0923   -1.2192   -0.3817 C   0  0  0  0  0  0  0  0  0  0  0  0
   -0.5844   -2.3016    0.5769 C   0  0  0  0  0  0  0  0  0  0  0  0
    0.0559   -4.5927   -5.7543 C   0  0  0  0  0  0  0  0  0  0  0  0
   -1.1919   -4.3858   -6.2829 C   0  0  0  0  0  0  0  0  0  0  0  0
   -2.1765   -3.4058   -5.8156 C   0  0  0  0  0  0  0  0  0  0  0  0
   -2.1208   -2.7176   -4.8091 O   0  0  0  0  0  0  0  0  0  0  0  0
   -3.2581   -3.3983   -6.8140 C   0  0  0  0  0  0  0  0  0  0  0  0
   -4.3860   -2.5814   -6.8235 C   0  0  0  0  0  0  0  0  0  0  0  0
   -5.2174   -2.7893   -7.8977 C   0  0  0  0  0  0  0  0  0  0  0  0
   -4.9438   -3.7365   -8.8932 C   0  0  0  0  0  0  0  0  0  0  0  0
   -3.8345   -4.5488   -8.8955 C   0  0  0  0  0  0  0  0  0  0  0  0
   -2.9787   -4.3591   -7.8074 C   0  0  0  0  0  0  0  0  0  0  0  0
   -1.7264   -5.0315   -7.4648 C   0  0  0  0  0  0  0  0  0  0  0  0
   -1.2043   -6.1212   -8.1131 C   0  0  0  0  0  0  0  0  0  0  0  0
   -0.0584   -6.8418   -7.7159 C   0  0  0  0  0  0  0  0  0  0  0  0
    0.8439   -7.5035   -7.4551 N   0  0  0  0  0  0  0  0  0  0  0  0
   -1.7796   -6.7197   -9.2534 C   0  0  0  0  0  0  0  0  0  0  0  0
   -2.1884   -7.2575  -10.1819 N   0  0  0  0  0  0  0  0  0  0  0  0
   -6.1997   -3.4096   -9.6612 C   0  0  0  0  0  0  0  0  0  0  0  0
   -7.3922   -4.3904   -9.5414 C   0  0  0  0  0  0  0  0  0  0  0  0
   -7.2516   -5.0755   -8.2047 C   0  0  0  0  0  0  0  0  0  0  0  0
   -7.5122   -4.1802   -7.2615 C   0  0  0  0  0  0  0  0  0  0  0  0
   -7.8331   -2.8731   -7.9434 C   0  0  0  0  0  0  0  0  0  0  0  0
   -8.5166   -3.3935   -9.2180 C   0  0  0  0  0  0  0  0  0  0  0  0
   -6.5056   -2.3554   -8.5509 C   0  0  0  0  0  0  0  0  0  0  0  0
    1.6482    5.0683    7.6159 H   0  0  0  0  0  0  0  0  0  0  0  0
   -3.9224    6.1265    4.9155 H   0  0  0  0  0  0  0  0  0  0  0  0
   -6.2700    7.6297    5.2224 H   0  0  0  0  0  0  0  0  0  0  0  0
   -2.2998    8.6961    8.8986 H   0  0  0  0  0  0  0  0  0  0  0  0
    1.9254    2.4807    8.6489 H   0  0  0  0  0  0  0  0  0  0  0  0
    3.2279    2.8110   10.7158 H   0  0  0  0  0  0  0  0  0  0  0  0
    5.4437    3.9033   10.6026 H   0  0  0  0  0  0  0  0  0  0  0  0
    6.3277    4.6587    8.4388 H   0  0  0  0  0  0  0  0  0  0  0  0
    4.9588    3.8673    5.1891 H   0  0  0  0  0  0  0  0  0  0  0  0
    6.2573    4.6574    6.0871 H   0  0  0  0  0  0  0  0  0  0  0  0
    4.7020    6.5801    6.5754 H   0  0  0  0  0  0  0  0  0  0  0  0
    3.4756    5.8177    5.5671 H   0  0  0  0  0  0  0  0  0  0  0  0
    4.9935    6.3572    4.8448 H   0  0  0  0  0  0  0  0  0  0  0  0
    0.7646   -6.6431   -4.0466 H   0  0  0  0  0  0  0  0  0  0  0  0
    1.3712   -8.2273   -4.5338 H   0  0  0  0  0  0  0  0  0  0  0  0
    3.1176   -8.1005   -2.7504 H   0  0  0  0  0  0  0  0  0  0  0  0
    2.5200   -6.5135   -2.2717 H   0  0  0  0  0  0  0  0  0  0  0  0
    1.4978   -7.9397   -2.0628 H   0  0  0  0  0  0  0  0  0  0  0  0
    3.4086   -8.4913   -5.7342 H   0  0  0  0  0  0  0  0  0  0  0  0
    5.2001   -7.5062   -7.0988 H   0  0  0  0  0  0  0  0  0  0  0  0
    5.5221   -5.0542   -7.1264 H   0  0  0  0  0  0  0  0  0  0  0  0
    4.0192   -3.6122   -5.8065 H   0  0  0  0  0  0  0  0  0  0  0  0
    0.7508    2.6024    1.5596 H   0  0  0  0  0  0  0  0  0  0  0  0
    0.5756    1.3561    0.3265 H   0  0  0  0  0  0  0  0  0  0  0  0
   -0.8993    1.6216    3.0086 H   0  0  0  0  0  0  0  0  0  0  0  0
   -1.6112    1.7194    1.4030 H   0  0  0  0  0  0  0  0  0  0  0  0
   -1.0335    0.1663    2.0256 H   0  0  0  0  0  0  0  0  0  0  0  0
   -0.5175   -1.3865   -1.3745 H   0  0  0  0  0  0  0  0  0  0  0  0
   -0.4138   -0.2417   -0.0398 H   0  0  0  0  0  0  0  0  0  0  0  0
   -0.3108   -3.2864    0.2057 H   0  0  0  0  0  0  0  0  0  0  0  0
   -1.6661   -2.2537    0.6650 H   0  0  0  0  0  0  0  0  0  0  0  0
   -0.1418   -2.1709    1.5628 H   0  0  0  0  0  0  0  0  0  0  0  0
    0.7036   -5.2847   -6.2810 H   0  0  0  0  0  0  0  0  0  0  0  0
   -4.5550   -1.8605   -6.0389 H   0  0  0  0  0  0  0  0  0  0  0  0
   -3.6360   -5.2676   -9.6728 H   0  0  0  0  0  0  0  0  0  0  0  0
   -6.0572   -3.0519  -10.6789 H   0  0  0  0  0  0  0  0  0  0  0  0
   -7.5298   -5.0402  -10.4014 H   0  0  0  0  0  0  0  0  0  0  0  0
   -6.9308   -6.0937   -8.0850 H   0  0  0  0  0  0  0  0  0  0  0  0
   -7.4526   -4.3009   -6.1956 H   0  0  0  0  0  0  0  0  0  0  0  0
   -8.3734   -2.1410   -7.3489 H   0  0  0  0  0  0  0  0  0  0  0  0
   -8.6513   -2.6286   -9.9815 H   0  0  0  0  0  0  0  0  0  0  0  0
   -9.4680   -3.8830   -9.0156 H   0  0  0  0  0  0  0  0  0  0  0  0
   -6.5637   -1.3087   -8.8437 H   0  0  0  0  0  0  0  0  0  0  0  0
  1  2  2  0  0  0  0
  2  3  1  0  0  0  0
  3  4  2  0  0  0  0
  3  5  1  0  0  0  0
  5  6  2  0  0  0  0
  6  7  1  0  0  0  0
  7  8  1  0  0  0  0
  8  9  2  0  0  0  0
  9 10  1  0  0  0  0
  9 11  1  0  0  0  0
 11 12  1  0  0  0  0
 12 13  1  0  0  0  0
 13 14  2  0  0  0  0
 14 15  1  0  0  0  0
 15 16  2  0  0  0  0
 16 17  1  0  0  0  0
 17 18  3  0  0  0  0
 16 19  1  0  0  0  0
 19 20  3  0  0  0  0
  1 21  1  0  0  0  0
 21 22  2  0  0  0  0
 22 23  1  0  0  0  0
 23 24  2  0  0  0  0
 24 25  1  0  0  0  0
 25 26  2  0  0  0  0
 26 27  1  0  0  0  0
 27 28  2  0  0  0  0
 28 29  1  0  0  0  0
 29 30  1  0  0  0  0
 22 31  1  0  0  0  0
 31 32  1  0  0  0  0
 32 33  1  0  0  0  0
 33 34  1  0  0  0  0
 34 35  1  0  0  0  0
 35 36  1  0  0  0  0
 36 37  2  0  0  0  0
 37 38  1  0  0  0  0
 38 39  1  0  0  0  0
 36 40  1  0  0  0  0
 40 41  1  0  0  0  0
 41 42  1  0  0  0  0
 42 43  1  0  0  0  0
 43 44  1  0  0  0  0
 44 45  1  0  0  0  0
 45 46  2  0  0  0  0
 46 47  1  0  0  0  0
 47 48  1  0  0  0  0
 46 49  1  0  0  0  0
 49 50  2  0  0  0  0
 50 51  1  0  0  0  0
 51 52  2  0  0  0  0
 44 53  2  0  0  0  0
 53 54  1  0  0  0  0
 54 55  1  0  0  0  0
 55 56  1  0  0  0  0
 56 57  1  0  0  0  0
 57 58  1  0  0  0  0
 58 59  1  0  0  0  0
 59 60  1  0  0  0  0
 60 61  1  0  0  0  0
 61 62  1  0  0  0  0
 62 63  1  0  0  0  0
 60 64  1  0  0  0  0
 64 65  1  0  0  0  0
 57 66  1  0  0  0  0
 66 67  1  0  0  0  0
 53 68  1  0  0  0  0
 68 69  2  0  0  0  0
 69 70  1  0  0  0  0
 70 71  2  0  0  0  0
 70 72  1  0  0  0  0
 72 73  2  0  0  0  0
 73 74  1  0  0  0  0
 74 75  2  0  0  0  0
 75 76  1  0  0  0  0
 76 77  2  0  0  0  0
 77 78  1  0  0  0  0
 78 79  2  0  0  0  0
 79 80  1  0  0  0  0
 80 81  3  0  0  0  0
 79 82  1  0  0  0  0
 82 83  3  0  0  0  0
 75 84  1  0  0  0  0
 84 85  1  0  0  0  0
 85 86  1  0  0  0  0
 86 87  2  0  0  0  0
 87 88  1  0  0  0  0
 88 89  1  0  0  0  0
 88 90  1  0  0  0  0
 15  2  1  0  0  0  0
 63 21  1  0  0  0  0
 78 69  1  0  0  0  0
 90 84  1  0  0  0  0
 14  5  1  0  0  0  0
 28 23  1  0  0  0  0
 62 31  2  0  0  0  0
 77 72  1  0  0  0  0
 89 85  1  0  0  0  0
 12  7  2  0  0  0  0
 61 33  2  0  0  0  0
 90 74  1  0  0  0  0
 59 34  2  0  0  0  0
 39 35  2  0  0  0  0
 58 40  2  0  0  0  0
 56 41  2  0  0  0  0
 55 43  2  0  0  0  0
 52 45  1  0  0  0  0
  1 91  1  0  0  0  0
  6 92  1  0  0  0  0
  8 93  1  0  0  0  0
 13 94  1  0  0  0  0
 24 95  1  0  0  0  0
 25 96  1  0  0  0  0
 26 97  1  0  0  0  0
 27 98  1  0  0  0  0
 29 99  1  0  0  0  0
 29100  1  0  0  0  0
 30101  1  0  0  0  0
 30102  1  0  0  0  0
 30103  1  0  0  0  0
 47104  1  0  0  0  0
 47105  1  0  0  0  0
 48106  1  0  0  0  0
 48107  1  0  0  0  0
 48108  1  0  0  0  0
 49109  1  0  0  0  0
 50110  1  0  0  0  0
 51111  1  0  0  0  0
 52112  1  0  0  0  0
 64113  1  0  0  0  0
 64114  1  0  0  0  0
 65115  1  0  0  0  0
 65116  1  0  0  0  0
 65117  1  0  0  0  0
 66118  1  0  0  0  0
 66119  1  0  0  0  0
 67120  1  0  0  0  0
 67121  1  0  0  0  0
 67122  1  0  0  0  0
 68123  1  0  0  0  0
 73124  1  0  0  0  0
 76125  1  0  0  0  0
 84126  1  0  0  0  0
 85127  1  0  0  0  0
 86128  1  0  0  0  0
 87129  1  0  0  0  0
 88130  1  0  0  0  0
 89131  1  0  0  0  0
 89132  1  0  0  0  0
 90133  1  0  0  0  0
M  END
