
  xtb     02112200413D
 energy: -171.765817453380 gnorm: 0.000449931890 xtb: 6.4.1 (unknown)
100112  0     0  0            999 V2000
   -6.0836   -0.9055   -3.6521 C   0  0  0  0  0  0  0  0  0  0  0  0
   -7.2752   -1.5404   -3.8819 C   0  0  0  0  0  0  0  0  0  0  0  0
   -8.1154   -2.3618   -2.9830 C   0  0  0  0  0  0  0  0  0  0  0  0
   -7.9479   -2.6536   -1.8157 O   0  0  0  0  0  0  0  0  0  0  0  0
   -9.2725   -2.7953   -3.7907 C   0  0  0  0  0  0  0  0  0  0  0  0
  -10.3216   -3.5838   -3.3859 C   0  0  0  0  0  0  0  0  0  0  0  0
  -11.3166   -3.8748   -4.3239 C   0  0  0  0  0  0  0  0  0  0  0  0
  -12.4909   -4.6597   -4.1608 C   0  0  0  0  0  0  0  0  0  0  0  0
  -13.2223   -4.7196   -5.2986 C   0  0  0  0  0  0  0  0  0  0  0  0
  -14.8388   -5.6424   -5.5323 Br  0  0  0  0  0  0  0  0  0  0  0  0
  -12.5378   -3.8318   -6.6341 S   0  0  0  0  0  0  0  0  0  0  0  0
  -11.2009   -3.3497   -5.6325 C   0  0  0  0  0  0  0  0  0  0  0  0
  -10.1391   -2.5516   -6.0391 C   0  0  0  0  0  0  0  0  0  0  0  0
   -9.1626   -2.2736   -5.0993 C   0  0  0  0  0  0  0  0  0  0  0  0
   -7.9352   -1.4896   -5.1826 C   0  0  0  0  0  0  0  0  0  0  0  0
   -7.5131   -0.8402   -6.3161 C   0  0  0  0  0  0  0  0  0  0  0  0
   -8.2165   -0.8484   -7.5397 C   0  0  0  0  0  0  0  0  0  0  0  0
   -8.7259   -0.8062   -8.5680 N   0  0  0  0  0  0  0  0  0  0  0  0
   -6.3421   -0.0702   -6.4803 C   0  0  0  0  0  0  0  0  0  0  0  0
   -5.4243    0.5744   -6.7350 N   0  0  0  0  0  0  0  0  0  0  0  0
   -5.1906   -0.7886   -2.5476 C   0  0  0  0  0  0  0  0  0  0  0  0
   -5.3833   -1.3629   -1.2703 C   0  0  0  0  0  0  0  0  0  0  0  0
   -4.4586   -1.2311   -0.2643 C   0  0  0  0  0  0  0  0  0  0  0  0
   -3.2938   -0.5069   -0.5135 C   0  0  0  0  0  0  0  0  0  0  0  0
   -2.2343   -0.2417    0.2951 N   0  0  0  0  0  0  0  0  0  0  0  0
   -2.0508   -0.7268    1.6376 C   0  0  0  0  0  0  0  0  0  0  0  0
   -1.2897   -2.0514    1.6554 C   0  0  0  0  0  0  0  0  0  0  0  0
   -1.2978    0.4883   -0.4149 C   0  0  0  0  0  0  0  0  0  0  0  0
   -1.7960    0.7363   -1.7223 C   0  0  0  0  0  0  0  0  0  0  0  0
   -3.0802    0.0912   -1.7875 C   0  0  0  0  0  0  0  0  0  0  0  0
   -4.0163   -0.0463   -2.7850 C   0  0  0  0  0  0  0  0  0  0  0  0
   -1.0668    1.4585   -2.6543 C   0  0  0  0  0  0  0  0  0  0  0  0
    0.1763    1.9115   -2.2462 C   0  0  0  0  0  0  0  0  0  0  0  0
    0.6760    1.6540   -0.9408 C   0  0  0  0  0  0  0  0  0  0  0  0
   -0.0565    0.9389   -0.0060 C   0  0  0  0  0  0  0  0  0  0  0  0
    1.9847    2.2411   -0.8888 C   0  0  0  0  0  0  0  0  0  0  0  0
    2.9499    2.2852    0.0953 C   0  0  0  0  0  0  0  0  0  0  0  0
    4.1639    2.9237   -0.1743 C   0  0  0  0  0  0  0  0  0  0  0  0
    4.3426    3.5639   -1.4222 C   0  0  0  0  0  0  0  0  0  0  0  0
    3.3949    3.5193   -2.4153 C   0  0  0  0  0  0  0  0  0  0  0  0
    2.2071    2.8361   -2.1584 C   0  0  0  0  0  0  0  0  0  0  0  0
    1.1244    2.6200   -2.9584 N   0  0  0  0  0  0  0  0  0  0  0  0
    0.9553    3.1166   -4.2988 C   0  0  0  0  0  0  0  0  0  0  0  0
    0.2962    4.4948   -4.3088 C   0  0  0  0  0  0  0  0  0  0  0  0
    5.2317    3.0029    0.7775 C   0  0  0  0  0  0  0  0  0  0  0  0
    5.5620    2.1396    1.7783 C   0  0  0  0  0  0  0  0  0  0  0  0
    5.1010    0.7379    1.9501 C   0  0  0  0  0  0  0  0  0  0  0  0
    4.1761    0.1658    1.4122 O   0  0  0  0  0  0  0  0  0  0  0  0
    6.0533    0.1205    2.8940 C   0  0  0  0  0  0  0  0  0  0  0  0
    6.0757   -1.2152    3.2913 C   0  0  0  0  0  0  0  0  0  0  0  0
    7.0806   -1.5181    4.1772 C   0  0  0  0  0  0  0  0  0  0  0  0
    8.0025   -0.5651    4.6321 C   0  0  0  0  0  0  0  0  0  0  0  0
    7.9948    0.7535    4.2451 C   0  0  0  0  0  0  0  0  0  0  0  0
    6.9742    1.0845    3.3471 C   0  0  0  0  0  0  0  0  0  0  0  0
    6.6474    2.3607    2.7220 C   0  0  0  0  0  0  0  0  0  0  0  0
    7.2019    3.5724    3.0397 C   0  0  0  0  0  0  0  0  0  0  0  0
    8.2311    3.7539    3.9867 C   0  0  0  0  0  0  0  0  0  0  0  0
    9.0689    3.9703    4.7416 N   0  0  0  0  0  0  0  0  0  0  0  0
    6.7937    4.8142    2.5071 C   0  0  0  0  0  0  0  0  0  0  0  0
    6.5072    5.8661    2.1455 N   0  0  0  0  0  0  0  0  0  0  0  0
    8.7292   -1.5651    5.4973 C   0  0  0  0  0  0  0  0  0  0  0  0
    8.4401   -1.5058    7.0122 C   0  0  0  0  0  0  0  0  0  0  0  0
    8.8883   -2.8578    7.5187 C   0  0  0  0  0  0  0  0  0  0  0  0
    8.0155   -3.7598    7.0883 C   0  0  0  0  0  0  0  0  0  0  0  0
    6.9627   -3.0326    6.2835 C   0  0  0  0  0  0  0  0  0  0  0  0
    6.9190   -1.7025    7.0467 C   0  0  0  0  0  0  0  0  0  0  0  0
    7.7010   -2.6267    4.9903 C   0  0  0  0  0  0  0  0  0  0  0  0
   -5.7089   -0.3685   -4.5155 H   0  0  0  0  0  0  0  0  0  0  0  0
  -10.3707   -3.9637   -2.3774 H   0  0  0  0  0  0  0  0  0  0  0  0
  -12.7656   -5.1479   -3.2436 H   0  0  0  0  0  0  0  0  0  0  0  0
  -10.1022   -2.1789   -7.0485 H   0  0  0  0  0  0  0  0  0  0  0  0
   -6.2814   -1.9258   -1.0847 H   0  0  0  0  0  0  0  0  0  0  0  0
   -4.6373   -1.6915    0.6953 H   0  0  0  0  0  0  0  0  0  0  0  0
   -3.0342   -0.8514    2.0972 H   0  0  0  0  0  0  0  0  0  0  0  0
   -1.5026    0.0294    2.2060 H   0  0  0  0  0  0  0  0  0  0  0  0
   -1.1623   -2.3944    2.6784 H   0  0  0  0  0  0  0  0  0  0  0  0
   -1.8369   -2.8078    1.0977 H   0  0  0  0  0  0  0  0  0  0  0  0
   -0.3088   -1.9295    1.2023 H   0  0  0  0  0  0  0  0  0  0  0  0
   -3.8490    0.4038   -3.7528 H   0  0  0  0  0  0  0  0  0  0  0  0
   -1.4599    1.6423   -3.6414 H   0  0  0  0  0  0  0  0  0  0  0  0
    0.3443    0.7447    0.9754 H   0  0  0  0  0  0  0  0  0  0  0  0
    2.7583    1.8534    1.0615 H   0  0  0  0  0  0  0  0  0  0  0  0
    5.2714    4.0851   -1.6033 H   0  0  0  0  0  0  0  0  0  0  0  0
    3.5721    4.0064   -3.3620 H   0  0  0  0  0  0  0  0  0  0  0  0
    0.3434    2.4039   -4.8576 H   0  0  0  0  0  0  0  0  0  0  0  0
    1.9378    3.1664   -4.7752 H   0  0  0  0  0  0  0  0  0  0  0  0
    0.9051    5.2087   -3.7589 H   0  0  0  0  0  0  0  0  0  0  0  0
    0.1812    4.8460   -5.3305 H   0  0  0  0  0  0  0  0  0  0  0  0
   -0.6852    4.4474   -3.8428 H   0  0  0  0  0  0  0  0  0  0  0  0
    5.8939    3.8494    0.6308 H   0  0  0  0  0  0  0  0  0  0  0  0
    5.3510   -1.9181    2.9108 H   0  0  0  0  0  0  0  0  0  0  0  0
    8.7185    1.4724    4.5912 H   0  0  0  0  0  0  0  0  0  0  0  0
    9.7837   -1.7109    5.2707 H   0  0  0  0  0  0  0  0  0  0  0  0
    8.8446   -0.6341    7.5190 H   0  0  0  0  0  0  0  0  0  0  0  0
    9.7943   -3.0211    8.0722 H   0  0  0  0  0  0  0  0  0  0  0  0
    8.0467   -4.8267    7.2102 H   0  0  0  0  0  0  0  0  0  0  0  0
    6.0211   -3.5522    6.1265 H   0  0  0  0  0  0  0  0  0  0  0  0
    6.3587   -0.9184    6.5407 H   0  0  0  0  0  0  0  0  0  0  0  0
    6.5426   -1.8224    8.0612 H   0  0  0  0  0  0  0  0  0  0  0  0
    8.0700   -3.4805    4.4248 H   0  0  0  0  0  0  0  0  0  0  0  0
  1  2  2  0  0  0  0
  2  3  1  0  0  0  0
  3  4  2  0  0  0  0
  3  5  1  0  0  0  0
  5  6  2  0  0  0  0
  6  7  1  0  0  0  0
  7  8  1  0  0  0  0
  8  9  2  0  0  0  0
  9 10  1  0  0  0  0
  9 11  1  0  0  0  0
 11 12  1  0  0  0  0
 12 13  1  0  0  0  0
 13 14  2  0  0  0  0
 14 15  1  0  0  0  0
 15 16  2  0  0  0  0
 16 17  1  0  0  0  0
 17 18  3  0  0  0  0
 16 19  1  0  0  0  0
 19 20  3  0  0  0  0
  1 21  1  0  0  0  0
 21 22  2  0  0  0  0
 22 23  1  0  0  0  0
 23 24  2  0  0  0  0
 24 25  1  0  0  0  0
 25 26  1  0  0  0  0
 26 27  1  0  0  0  0
 25 28  1  0  0  0  0
 28 29  2  0  0  0  0
 29 30  1  0  0  0  0
 30 31  2  0  0  0  0
 29 32  1  0  0  0  0
 32 33  2  0  0  0  0
 33 34  1  0  0  0  0
 34 35  2  0  0  0  0
 34 36  1  0  0  0  0
 36 37  2  0  0  0  0
 37 38  1  0  0  0  0
 38 39  2  0  0  0  0
 39 40  1  0  0  0  0
 40 41  2  0  0  0  0
 41 42  1  0  0  0  0
 42 43  1  0  0  0  0
 43 44  1  0  0  0  0
 38 45  1  0  0  0  0
 45 46  2  0  0  0  0
 46 47  1  0  0  0  0
 47 48  2  0  0  0  0
 47 49  1  0  0  0  0
 49 50  2  0  0  0  0
 50 51  1  0  0  0  0
 51 52  2  0  0  0  0
 52 53  1  0  0  0  0
 53 54  2  0  0  0  0
 54 55  1  0  0  0  0
 55 56  2  0  0  0  0
 56 57  1  0  0  0  0
 57 58  3  0  0  0  0
 56 59  1  0  0  0  0
 59 60  3  0  0  0  0
 52 61  1  0  0  0  0
 61 62  1  0  0  0  0
 62 63  1  0  0  0  0
 63 64  2  0  0  0  0
 64 65  1  0  0  0  0
 65 66  1  0  0  0  0
 65 67  1  0  0  0  0
 15  2  1  0  0  0  0
 31 21  1  0  0  0  0
 42 33  1  0  0  0  0
 55 46  1  0  0  0  0
 67 61  1  0  0  0  0
 14  5  1  0  0  0  0
 30 24  1  0  0  0  0
 41 36  1  0  0  0  0
 54 49  1  0  0  0  0
 66 62  1  0  0  0  0
 12  7  2  0  0  0  0
 35 28  1  0  0  0  0
 67 51  1  0  0  0  0
  1 68  1  0  0  0  0
  6 69  1  0  0  0  0
  8 70  1  0  0  0  0
 13 71  1  0  0  0  0
 22 72  1  0  0  0  0
 23 73  1  0  0  0  0
 26 74  1  0  0  0  0
 26 75  1  0  0  0  0
 27 76  1  0  0  0  0
 27 77  1  0  0  0  0
 27 78  1  0  0  0  0
 31 79  1  0  0  0  0
 32 80  1  0  0  0  0
 35 81  1  0  0  0  0
 37 82  1  0  0  0  0
 39 83  1  0  0  0  0
 40 84  1  0  0  0  0
 43 85  1  0  0  0  0
 43 86  1  0  0  0  0
 44 87  1  0  0  0  0
 44 88  1  0  0  0  0
 44 89  1  0  0  0  0
 45 90  1  0  0  0  0
 50 91  1  0  0  0  0
 53 92  1  0  0  0  0
 61 93  1  0  0  0  0
 62 94  1  0  0  0  0
 63 95  1  0  0  0  0
 64 96  1  0  0  0  0
 65 97  1  0  0  0  0
 66 98  1  0  0  0  0
 66 99  1  0  0  0  0
 67100  1  0  0  0  0
M  END
