
  xtb     02022201543D
 energy: -198.097774206315 gnorm: 0.000672465381 xtb: 6.4.1 (unknown)
100112  0     0  0            999 V2000
    0.9867    1.1738    7.9693 C   0  0  0  0  0  0  0  0  0  0  0  0
    0.2404    0.1928    8.5773 C   0  0  0  0  0  0  0  0  0  0  0  0
   -0.4963   -0.8761    7.9018 C   0  0  0  0  0  0  0  0  0  0  0  0
   -0.5467   -1.1069    6.7048 O   0  0  0  0  0  0  0  0  0  0  0  0
   -1.1802   -1.6384    8.9614 C   0  0  0  0  0  0  0  0  0  0  0  0
   -2.0070   -2.7261    8.8249 C   0  0  0  0  0  0  0  0  0  0  0  0
   -2.5497   -3.2817    9.9886 C   0  0  0  0  0  0  0  0  0  0  0  0
   -3.4254   -4.3941   10.1171 C   0  0  0  0  0  0  0  0  0  0  0  0
   -3.7452   -4.6413   11.4097 C   0  0  0  0  0  0  0  0  0  0  0  0
   -4.8685   -6.0073   12.0343 Br  0  0  0  0  0  0  0  0  0  0  0  0
   -3.0074   -3.5458   12.5478 S   0  0  0  0  0  0  0  0  0  0  0  0
   -2.2276   -2.7075   11.2409 C   0  0  0  0  0  0  0  0  0  0  0  0
   -1.3886   -1.6078   11.3776 C   0  0  0  0  0  0  0  0  0  0  0  0
   -0.8603   -1.0705   10.2191 C   0  0  0  0  0  0  0  0  0  0  0  0
    0.0362    0.0625   10.0063 C   0  0  0  0  0  0  0  0  0  0  0  0
    0.5832    0.8336   11.0019 C   0  0  0  0  0  0  0  0  0  0  0  0
    1.4612    1.9209   10.8167 C   0  0  0  0  0  0  0  0  0  0  0  0
    2.1836    2.8127   10.7525 N   0  0  0  0  0  0  0  0  0  0  0  0
    0.3432    0.6344   12.3773 C   0  0  0  0  0  0  0  0  0  0  0  0
    0.1886    0.5249   13.5097 N   0  0  0  0  0  0  0  0  0  0  0  0
    1.2642    1.4145    6.6211 C   0  0  0  0  0  0  0  0  0  0  0  0
    2.0390    2.5068    6.1883 C   0  0  0  0  0  0  0  0  0  0  0  0
    2.6094    3.5748    7.0625 C   0  0  0  0  0  0  0  0  0  0  0  0
    1.5557    4.6438    7.3667 C   0  0  0  0  0  0  0  0  0  0  0  0
    2.1639    2.5199    4.8065 C   0  0  0  0  0  0  0  0  0  0  0  0
    2.9796    3.6141    3.7042 S   0  0  0  0  0  0  0  0  0  0  0  0
    2.4321    2.6416    2.3837 C   0  0  0  0  0  0  0  0  0  0  0  0
    2.5183    2.6063    0.9846 C   0  0  0  0  0  0  0  0  0  0  0  0
    3.2487    3.3898    0.0630 C   0  0  0  0  0  0  0  0  0  0  0  0
    3.2010    3.0453   -1.3291 C   0  0  0  0  0  0  0  0  0  0  0  0
    3.9764    3.8224   -2.0683 N   0  0  0  0  0  0  0  0  0  0  0  0
    4.7007    4.8973   -1.0996 S   0  0  0  0  0  0  0  0  0  0  0  0
    4.0522    4.4140    0.3018 N   0  0  0  0  0  0  0  0  0  0  0  0
    2.3165    2.0272   -1.7532 C   0  0  0  0  0  0  0  0  0  0  0  0
    1.9195    1.6240   -3.0346 C   0  0  0  0  0  0  0  0  0  0  0  0
    2.2958    1.9649   -4.6846 S   0  0  0  0  0  0  0  0  0  0  0  0
    1.0232    0.8702   -5.1788 C   0  0  0  0  0  0  0  0  0  0  0  0
    0.5458    0.4929   -6.4379 C   0  0  0  0  0  0  0  0  0  0  0  0
    1.0230    1.1408   -7.6969 C   0  0  0  0  0  0  0  0  0  0  0  0
    2.5067    0.8811   -7.9604 C   0  0  0  0  0  0  0  0  0  0  0  0
   -0.5238   -0.3944   -6.3202 C   0  0  0  0  0  0  0  0  0  0  0  0
   -0.9464   -0.7096   -4.6328 S   0  0  0  0  0  0  0  0  0  0  0  0
    0.3457    0.2906   -4.0930 C   0  0  0  0  0  0  0  0  0  0  0  0
    0.8694    0.7103   -2.8690 C   0  0  0  0  0  0  0  0  0  0  0  0
    0.6253    0.5080   -1.5350 N   0  0  0  0  0  0  0  0  0  0  0  0
    1.5199    1.2941   -0.8272 C   0  0  0  0  0  0  0  0  0  0  0  0
    1.7434    1.4890    0.5581 C   0  0  0  0  0  0  0  0  0  0  0  0
    1.2620    0.8289    1.6730 N   0  0  0  0  0  0  0  0  0  0  0  0
    1.6657    1.5359    2.7767 C   0  0  0  0  0  0  0  0  0  0  0  0
    1.5105    1.4544    4.1622 C   0  0  0  0  0  0  0  0  0  0  0  0
    0.7082    0.4144    5.2765 S   0  0  0  0  0  0  0  0  0  0  0  0
    0.9414   -0.5757    1.8083 C   0  0  0  0  0  0  0  0  0  0  0  0
    2.1349   -1.3644    2.3458 C   0  0  0  0  0  0  0  0  0  0  0  0
   -0.6463   -0.0528   -1.1199 C   0  0  0  0  0  0  0  0  0  0  0  0
   -1.4825    0.9385   -0.3192 C   0  0  0  0  0  0  0  0  0  0  0  0
   -1.3815   -0.9499   -7.2876 C   0  0  0  0  0  0  0  0  0  0  0  0
   -1.0378   -1.3650   -8.5502 C   0  0  0  0  0  0  0  0  0  0  0  0
    0.3254   -1.7981   -8.9223 C   0  0  0  0  0  0  0  0  0  0  0  0
    1.3118   -1.8176   -8.2239 O   0  0  0  0  0  0  0  0  0  0  0  0
    0.1874   -2.3664  -10.2878 C   0  0  0  0  0  0  0  0  0  0  0  0
   -1.1596   -2.3203  -10.6888 C   0  0  0  0  0  0  0  0  0  0  0  0
   -1.5454   -2.8156  -11.9226 C   0  0  0  0  0  0  0  0  0  0  0  0
   -0.5651   -3.3514  -12.7456 C   0  0  0  0  0  0  0  0  0  0  0  0
   -0.9132   -3.8355  -13.9400 F   0  0  0  0  0  0  0  0  0  0  0  0
    0.7743   -3.4012  -12.3655 C   0  0  0  0  0  0  0  0  0  0  0  0
    1.6886   -3.9193  -13.1898 F   0  0  0  0  0  0  0  0  0  0  0  0
    1.1547   -2.9057  -11.1163 C   0  0  0  0  0  0  0  0  0  0  0  0
    2.4344   -2.9505  -10.7568 F   0  0  0  0  0  0  0  0  0  0  0  0
   -1.9422   -1.6935   -9.6229 C   0  0  0  0  0  0  0  0  0  0  0  0
   -3.2799   -1.3932   -9.6814 C   0  0  0  0  0  0  0  0  0  0  0  0
   -3.9819   -0.6925   -8.6781 C   0  0  0  0  0  0  0  0  0  0  0  0
   -4.6094   -0.1098   -7.9133 N   0  0  0  0  0  0  0  0  0  0  0  0
   -4.1212   -1.7226  -10.7636 C   0  0  0  0  0  0  0  0  0  0  0  0
   -4.8540   -1.9692  -11.6119 N   0  0  0  0  0  0  0  0  0  0  0  0
    1.4395    1.8981    8.6320 H   0  0  0  0  0  0  0  0  0  0  0  0
   -2.2297   -3.1354    7.8520 H   0  0  0  0  0  0  0  0  0  0  0  0
   -3.7913   -4.9712    9.2876 H   0  0  0  0  0  0  0  0  0  0  0  0
   -1.1762   -1.2086   12.3550 H   0  0  0  0  0  0  0  0  0  0  0  0
    2.9860    3.1603    7.9987 H   0  0  0  0  0  0  0  0  0  0  0  0
    3.4443    4.0388    6.5337 H   0  0  0  0  0  0  0  0  0  0  0  0
    1.2010    5.0984    6.4446 H   0  0  0  0  0  0  0  0  0  0  0  0
    1.9877    5.4176    7.9945 H   0  0  0  0  0  0  0  0  0  0  0  0
    0.7063    4.2102    7.8893 H   0  0  0  0  0  0  0  0  0  0  0  0
    0.8690    2.2196   -7.5886 H   0  0  0  0  0  0  0  0  0  0  0  0
    0.4273    0.7966   -8.5427 H   0  0  0  0  0  0  0  0  0  0  0  0
    2.6935   -0.1860   -8.0381 H   0  0  0  0  0  0  0  0  0  0  0  0
    3.1147    1.2851   -7.1555 H   0  0  0  0  0  0  0  0  0  0  0  0
    2.8010    1.3580   -8.8915 H   0  0  0  0  0  0  0  0  0  0  0  0
    0.0931   -0.6743    2.4922 H   0  0  0  0  0  0  0  0  0  0  0  0
    0.6756   -0.9737    0.8344 H   0  0  0  0  0  0  0  0  0  0  0  0
    2.3985   -1.0367    3.3472 H   0  0  0  0  0  0  0  0  0  0  0  0
    1.8825   -2.4202    2.3863 H   0  0  0  0  0  0  0  0  0  0  0  0
    2.9976   -1.2349    1.6952 H   0  0  0  0  0  0  0  0  0  0  0  0
   -1.1788   -0.3129   -2.0383 H   0  0  0  0  0  0  0  0  0  0  0  0
   -0.5085   -0.9830   -0.5621 H   0  0  0  0  0  0  0  0  0  0  0  0
   -1.0040    1.1957    0.6212 H   0  0  0  0  0  0  0  0  0  0  0  0
   -2.4536    0.5012   -0.1055 H   0  0  0  0  0  0  0  0  0  0  0  0
   -1.6313    1.8505   -0.8927 H   0  0  0  0  0  0  0  0  0  0  0  0
   -2.4062   -1.0956   -6.9651 H   0  0  0  0  0  0  0  0  0  0  0  0
   -2.5664   -2.8062  -12.2666 H   0  0  0  0  0  0  0  0  0  0  0  0
  1  2  2  0  0  0  0
  2  3  1  0  0  0  0
  3  4  2  0  0  0  0
  3  5  1  0  0  0  0
  5  6  2  0  0  0  0
  6  7  1  0  0  0  0
  7  8  1  0  0  0  0
  8  9  2  0  0  0  0
  9 10  1  0  0  0  0
  9 11  1  0  0  0  0
 11 12  1  0  0  0  0
 12 13  1  0  0  0  0
 13 14  2  0  0  0  0
 14 15  1  0  0  0  0
 15 16  2  0  0  0  0
 16 17  1  0  0  0  0
 17 18  3  0  0  0  0
 16 19  1  0  0  0  0
 19 20  3  0  0  0  0
  1 21  1  0  0  0  0
 21 22  2  0  0  0  0
 22 23  1  0  0  0  0
 23 24  1  0  0  0  0
 22 25  1  0  0  0  0
 25 26  1  0  0  0  0
 26 27  1  0  0  0  0
 27 28  1  0  0  0  0
 28 29  1  0  0  0  0
 29 30  1  0  0  0  0
 30 31  2  0  0  0  0
 31 32  1  0  0  0  0
 32 33  1  0  0  0  0
 30 34  1  0  0  0  0
 34 35  1  0  0  0  0
 35 36  1  0  0  0  0
 36 37  1  0  0  0  0
 37 38  1  0  0  0  0
 38 39  1  0  0  0  0
 39 40  1  0  0  0  0
 38 41  2  0  0  0  0
 41 42  1  0  0  0  0
 42 43  1  0  0  0  0
 43 44  1  0  0  0  0
 44 45  1  0  0  0  0
 45 46  1  0  0  0  0
 46 47  1  0  0  0  0
 47 48  1  0  0  0  0
 48 49  1  0  0  0  0
 49 50  1  0  0  0  0
 50 51  1  0  0  0  0
 48 52  1  0  0  0  0
 52 53  1  0  0  0  0
 45 54  1  0  0  0  0
 54 55  1  0  0  0  0
 41 56  1  0  0  0  0
 56 57  2  0  0  0  0
 57 58  1  0  0  0  0
 58 59  2  0  0  0  0
 58 60  1  0  0  0  0
 60 61  2  0  0  0  0
 61 62  1  0  0  0  0
 62 63  2  0  0  0  0
 63 64  1  0  0  0  0
 63 65  1  0  0  0  0
 65 66  1  0  0  0  0
 65 67  2  0  0  0  0
 67 68  1  0  0  0  0
 61 69  1  0  0  0  0
 69 70  2  0  0  0  0
 70 71  1  0  0  0  0
 71 72  3  0  0  0  0
 70 73  1  0  0  0  0
 73 74  3  0  0  0  0
 15  2  1  0  0  0  0
 51 21  1  0  0  0  0
 69 57  1  0  0  0  0
 14  5  1  0  0  0  0
 50 25  2  0  0  0  0
 67 60  1  0  0  0  0
 12  7  2  0  0  0  0
 49 27  2  0  0  0  0
 47 28  2  0  0  0  0
 33 29  2  0  0  0  0
 46 34  2  0  0  0  0
 44 35  2  0  0  0  0
 43 37  2  0  0  0  0
  1 75  1  0  0  0  0
  6 76  1  0  0  0  0
  8 77  1  0  0  0  0
 13 78  1  0  0  0  0
 23 79  1  0  0  0  0
 23 80  1  0  0  0  0
 24 81  1  0  0  0  0
 24 82  1  0  0  0  0
 24 83  1  0  0  0  0
 39 84  1  0  0  0  0
 39 85  1  0  0  0  0
 40 86  1  0  0  0  0
 40 87  1  0  0  0  0
 40 88  1  0  0  0  0
 52 89  1  0  0  0  0
 52 90  1  0  0  0  0
 53 91  1  0  0  0  0
 53 92  1  0  0  0  0
 53 93  1  0  0  0  0
 54 94  1  0  0  0  0
 54 95  1  0  0  0  0
 55 96  1  0  0  0  0
 55 97  1  0  0  0  0
 55 98  1  0  0  0  0
 56 99  1  0  0  0  0
 62100  1  0  0  0  0
M  END
