145

C         -7.70740        1.86750        1.62520
C         -8.94010        1.31430        1.85560
C         -9.34100       -0.10780        1.78940
O         -8.69120       -1.07110        1.43510
C        -10.73970       -0.15440        2.25680
C        -11.53710       -1.26330        2.40290
C        -12.83970       -1.07160        2.87410
C        -13.85100       -2.04200        3.11300
C        -14.99350       -1.48040        3.57460
Br       -16.57470       -2.38520        4.01990
S        -14.91630        0.25300        3.74790
C        -13.27520        0.24050        3.17640
C        -12.46810        1.36110        3.02530
C        -11.18320        1.15470        2.55730
C        -10.09540        2.08830        2.28540
C        -10.19400        3.45190        2.39800
C         -9.19120        4.40020        2.10260
N         -8.45320        5.25210        1.87950
C        -11.35970        4.12670        2.81950
N        -12.26820        4.74130        3.15880
C         -6.48220        1.30640        1.22410
C         -6.09870        0.01990        0.87350
C         -4.75050       -0.05130        0.56050
S         -3.70290       -1.35710        0.07670
C         -2.37580       -0.24840        0.02550
C         -0.97460       -0.35220       -0.24080
C         -0.19090       -1.44280       -0.60950
C          1.15910       -1.22620       -0.75500
C          2.23890       -2.23320       -1.11550
C          2.17190       -3.40020       -0.15240
C          1.33110       -4.47260       -0.41880
C          1.21860       -5.52790        0.46640
C          1.94190       -5.51920        1.65120
S          1.90800       -6.81570        2.85030
C          0.37900       -7.74630        2.48440
C         -0.87010       -6.93840        2.77980
C          2.78420       -4.44510        1.92500
C          2.89510       -3.39810        1.03410
C          2.18830       -2.68940       -2.56380
C          2.98640       -3.75810       -2.96310
C          3.00650       -4.16370       -4.27880
C          2.23580       -3.50210       -5.23370
S          2.36980       -4.10400       -6.88760
C          1.01920       -3.28560       -7.80540
C         -0.34640       -3.82640       -7.42580
C          1.45590       -2.42330       -4.84400
C          1.43680       -2.02330       -3.51890
C          3.47410       -1.38500       -0.97100
C          3.13530       -0.07800       -0.66770
C          1.71900        0.05220       -0.52050
C          0.93190        1.14930       -0.18290
C         -0.41920        0.93390       -0.04220
C         -1.49720        1.94270        0.31710
C         -1.54460        2.98600       -0.78510
C         -2.37920        2.83610       -1.88610
C         -2.37130        3.76610       -2.90420
C         -1.52320        4.86880       -2.84790
S         -1.62710        6.00570       -4.19470
C         -0.09140        6.98980       -4.09370
C          1.14100        6.16570       -4.41330
C         -0.68920        5.02520       -1.74900
C         -0.69920        4.08620       -0.73500
C         -1.33850        2.57450        1.68610
C         -2.11640        3.68080        2.01570
C         -2.02660        4.25430        3.26530
C         -1.15960        3.72770        4.22000
S         -1.13710        4.52710        5.79590
C          0.48540        4.07830        6.50760
C          1.63940        4.65590        5.71130
C         -0.40450        2.60690        3.90640
C         -0.49700        2.03770        2.64860
C         -2.71260        1.05590        0.34930
C         -4.06350        1.17840        0.66030
S         -5.12130        2.43940        1.14250
S          4.49060        0.98650       -0.50510
C          5.55160       -0.34600       -0.85290
C          6.93250       -0.46940       -0.94580
C          7.31890       -1.76310       -1.24970
S          5.93650       -2.84160       -1.40040
C          4.85340       -1.54530       -1.08760
C          8.61500       -2.31690       -1.35190
C          9.81300       -1.70580       -1.55380
C         11.06180       -2.44200       -1.18360
O         11.15460       -3.61560       -0.90980
C         12.10970       -1.41420       -1.18530
C         11.56830       -0.21250       -1.62990
S         12.70930        1.07930       -1.71350
C         13.94380        0.01040       -1.12290
C         15.31300        0.16380       -0.83950
C         15.85310       -1.00610       -0.40410
S         14.73020       -2.31960       -0.32740
C         13.47290       -1.28970       -0.89370
C         10.18290       -0.36700       -1.98170
C          9.47580        0.51520       -2.76250
C          8.22140        0.24890       -3.33940
N          7.21720        0.06720       -3.86540
C         10.01990        1.76410       -3.12460
N         10.44620        2.79270       -3.40270
H         -7.63440        2.93540        1.79440
H        -11.16620       -2.24730        2.16230
H        -13.72470       -3.09640        2.94760
H        -12.84960        2.33730        3.27230
H         -6.78230       -0.80880        0.86010
H         -0.63350       -2.41450       -0.76470
H          0.76720       -4.49640       -1.34000
H          0.57080       -6.35190        0.21310
H          0.41880       -8.08880        1.45100
H          0.44470       -8.61490        3.13960
H         -0.88420       -6.63840        3.82500
H         -0.90920       -6.04120        2.16530
H         -1.75550       -7.53820        2.57720
H          3.34980       -4.44350        2.84420
H          3.54880       -2.57080        1.26830
H          3.58870       -4.27920       -2.23330
H          3.62300       -4.99430       -4.58590
H          1.24680       -3.50570       -8.84840
H          1.10000       -2.21000       -7.65320
H         -0.39200       -4.89560       -7.61860
H         -1.11720       -3.33250       -8.01460
H         -0.55330       -3.65960       -6.37070
H          0.86400       -1.87230       -5.55720
H          0.82660       -1.17760       -3.23680
H          1.37620        2.11950       -0.02350
H         -3.04120        1.98550       -1.95410
H         -3.02390        3.64960       -3.75590
H         -0.03940        7.45310       -3.10900
H         -0.23960        7.77290       -4.83720
H          1.26070        5.35000       -3.70320
H          2.02790        6.79510       -4.37330
H          1.05990        5.74150       -5.41130
H         -0.03260        5.87620       -1.66250
H         -0.04920        4.22580        0.11660
H         -2.78670        4.10300        1.28150
H         -2.62640        5.11530        3.51640
H          0.45140        4.50420        7.51020
H          0.54280        2.99370        6.59350
H          1.55420        5.73880        5.65920
H          1.64680        4.26230        4.69670
H          2.58350        4.40240        6.18990
H          0.25340        2.15700        4.63320
H          0.09570        1.16290        2.42390
H          7.62250        0.33020       -0.74740
H          8.68220       -3.38630       -1.17390
H         15.85900        1.08160       -0.95200
H         16.87030       -1.18390       -0.11570
