
  xtb     02012215523D
 energy: -254.081494334880 gnorm: 0.000504940408 xtb: 6.4.1 (unknown)
152166  0     0  0            999 V2000
   -4.4583   -5.5419   -4.7620 C   0  0  0  0  0  0  0  0  0  0  0  0
   -4.0567   -6.0174   -5.9773 C   0  0  0  0  0  0  0  0  0  0  0  0
   -5.0755   -6.4195   -6.9809 C   0  0  0  0  0  0  0  0  0  0  0  0
   -6.2547   -6.6105   -6.7856 O   0  0  0  0  0  0  0  0  0  0  0  0
   -4.3462   -6.4704   -8.2661 C   0  0  0  0  0  0  0  0  0  0  0  0
   -4.8360   -6.6717   -9.5425 C   0  0  0  0  0  0  0  0  0  0  0  0
   -3.9481   -6.6432  -10.6066 C   0  0  0  0  0  0  0  0  0  0  0  0
   -2.5964   -6.4124  -10.3767 C   0  0  0  0  0  0  0  0  0  0  0  0
   -1.5147   -6.3633  -11.7164 Cl  0  0  0  0  0  0  0  0  0  0  0  0
   -2.0862   -6.2188   -9.0964 C   0  0  0  0  0  0  0  0  0  0  0  0
   -2.9749   -6.2523   -8.0373 C   0  0  0  0  0  0  0  0  0  0  0  0
   -2.7570   -6.1285   -6.5957 C   0  0  0  0  0  0  0  0  0  0  0  0
   -1.5739   -6.3797   -5.9502 C   0  0  0  0  0  0  0  0  0  0  0  0
   -1.4914   -6.5758   -4.5559 C   0  0  0  0  0  0  0  0  0  0  0  0
   -1.4042   -6.7952   -3.4324 N   0  0  0  0  0  0  0  0  0  0  0  0
   -0.3435   -6.5726   -6.6079 C   0  0  0  0  0  0  0  0  0  0  0  0
    0.6856   -6.7191   -7.0951 N   0  0  0  0  0  0  0  0  0  0  0  0
   -3.7789   -4.7132   -3.8501 C   0  0  0  0  0  0  0  0  0  0  0  0
   -4.1884   -4.4457   -2.5451 C   0  0  0  0  0  0  0  0  0  0  0  0
   -3.3736   -3.5308   -1.9048 C   0  0  0  0  0  0  0  0  0  0  0  0
   -3.2895   -2.8694   -0.5390 C   0  0  0  0  0  0  0  0  0  0  0  0
   -4.5871   -2.1337   -0.2430 C   0  0  0  0  0  0  0  0  0  0  0  0
   -5.0041   -1.1576   -1.1414 C   0  0  0  0  0  0  0  0  0  0  0  0
   -6.1854   -0.4699   -0.9414 C   0  0  0  0  0  0  0  0  0  0  0  0
   -6.9854   -0.7366    0.1627 C   0  0  0  0  0  0  0  0  0  0  0  0
   -8.2909   -0.0230    0.3636 C   0  0  0  0  0  0  0  0  0  0  0  0
   -9.4395   -0.8284   -0.2471 C   0  0  0  0  0  0  0  0  0  0  0  0
   -6.5634   -1.7102    1.0582 C   0  0  0  0  0  0  0  0  0  0  0  0
   -5.3794   -2.3991    0.8632 C   0  0  0  0  0  0  0  0  0  0  0  0
   -2.9329   -3.9416    0.4776 C   0  0  0  0  0  0  0  0  0  0  0  0
   -1.7481   -3.9166    1.1972 C   0  0  0  0  0  0  0  0  0  0  0  0
   -1.4489   -4.9240    2.0975 C   0  0  0  0  0  0  0  0  0  0  0  0
   -2.3165   -5.9865    2.3011 C   0  0  0  0  0  0  0  0  0  0  0  0
   -1.9695   -7.1026    3.2428 C   0  0  0  0  0  0  0  0  0  0  0  0
   -1.2756   -8.2390    2.4889 C   0  0  0  0  0  0  0  0  0  0  0  0
   -3.4959   -6.0172    1.5679 C   0  0  0  0  0  0  0  0  0  0  0  0
   -3.7984   -5.0140    0.6687 C   0  0  0  0  0  0  0  0  0  0  0  0
   -2.1567   -1.8907   -0.7776 C   0  0  0  0  0  0  0  0  0  0  0  0
   -1.6312   -2.0594   -2.0459 C   0  0  0  0  0  0  0  0  0  0  0  0
   -2.3583   -3.0504   -2.7366 C   0  0  0  0  0  0  0  0  0  0  0  0
   -2.3726   -3.7534   -4.2926 S   0  0  0  0  0  0  0  0  0  0  0  0
   -0.3230   -1.0036   -2.4117 S   0  0  0  0  0  0  0  0  0  0  0  0
   -0.4435   -0.2858   -0.8035 C   0  0  0  0  0  0  0  0  0  0  0  0
    0.3534    0.7227   -0.2832 C   0  0  0  0  0  0  0  0  0  0  0  0
    1.3800    1.3851   -0.8574 O   0  0  0  0  0  0  0  0  0  0  0  0
    2.0390    0.9117   -2.0157 C   0  0  0  0  0  0  0  0  0  0  0  0
    2.9175   -0.3009   -1.7340 C   0  0  0  0  0  0  0  0  0  0  0  0
    0.0396    1.1646    1.0238 C   0  0  0  0  0  0  0  0  0  0  0  0
   -1.0404    0.6027    1.7662 C   0  0  0  0  0  0  0  0  0  0  0  0
   -1.8327   -0.4109    1.2478 C   0  0  0  0  0  0  0  0  0  0  0  0
   -1.5095   -0.8647   -0.0520 C   0  0  0  0  0  0  0  0  0  0  0  0
   -2.8588   -1.0689    1.8340 O   0  0  0  0  0  0  0  0  0  0  0  0
   -3.5856   -0.5038    2.9083 C   0  0  0  0  0  0  0  0  0  0  0  0
   -4.3738    0.7346    2.5009 C   0  0  0  0  0  0  0  0  0  0  0  0
   -1.1828    1.3462    3.3609 S   0  0  0  0  0  0  0  0  0  0  0  0
    0.1392    2.3902    3.0017 C   0  0  0  0  0  0  0  0  0  0  0  0
    0.7924    3.4629    3.6439 C   0  0  0  0  0  0  0  0  0  0  0  0
    1.7915    3.9558    2.7915 C   0  0  0  0  0  0  0  0  0  0  0  0
    1.8556    3.1277    1.5206 C   0  0  0  0  0  0  0  0  0  0  0  0
    0.7006    2.1760    1.7554 C   0  0  0  0  0  0  0  0  0  0  0  0
    1.5726    3.9975    0.3051 C   0  0  0  0  0  0  0  0  0  0  0  0
    2.4326    4.0991   -0.7768 C   0  0  0  0  0  0  0  0  0  0  0  0
    2.1087    4.9015   -1.8557 C   0  0  0  0  0  0  0  0  0  0  0  0
    0.9235    5.6226   -1.8854 C   0  0  0  0  0  0  0  0  0  0  0  0
    0.5587    6.4510   -3.0833 C   0  0  0  0  0  0  0  0  0  0  0  0
   -0.1487    5.5898   -4.1318 C   0  0  0  0  0  0  0  0  0  0  0  0
    0.0636    5.5163   -0.8003 C   0  0  0  0  0  0  0  0  0  0  0  0
    0.3834    4.7170    0.2798 C   0  0  0  0  0  0  0  0  0  0  0  0
    3.2036    2.4292    1.4949 C   0  0  0  0  0  0  0  0  0  0  0  0
    4.3663    3.1893    1.4133 C   0  0  0  0  0  0  0  0  0  0  0  0
    5.6069    2.5823    1.4107 C   0  0  0  0  0  0  0  0  0  0  0  0
    5.7280    1.2010    1.4985 C   0  0  0  0  0  0  0  0  0  0  0  0
    7.0790    0.5474    1.5364 C   0  0  0  0  0  0  0  0  0  0  0  0
    7.5915    0.4646    2.9756 C   0  0  0  0  0  0  0  0  0  0  0  0
    4.5676    0.4485    1.6045 C   0  0  0  0  0  0  0  0  0  0  0  0
    3.3215    1.0519    1.6066 C   0  0  0  0  0  0  0  0  0  0  0  0
    2.4472    5.0530    3.3078 C   0  0  0  0  0  0  0  0  0  0  0  0
    1.9709    5.4170    4.5676 C   0  0  0  0  0  0  0  0  0  0  0  0
    0.6661    4.3432    5.0976 S   0  0  0  0  0  0  0  0  0  0  0  0
    2.3026    6.4567    5.4461 C   0  0  0  0  0  0  0  0  0  0  0  0
    3.2553    7.4461    5.3815 C   0  0  0  0  0  0  0  0  0  0  0  0
    4.3154    7.6471    4.3714 C   0  0  0  0  0  0  0  0  0  0  0  0
    4.5312    7.0274    3.3477 O   0  0  0  0  0  0  0  0  0  0  0  0
    5.1208    8.7845    4.8572 C   0  0  0  0  0  0  0  0  0  0  0  0
    6.2435    9.3497    4.2832 C   0  0  0  0  0  0  0  0  0  0  0  0
    6.8496   10.4175    4.9246 C   0  0  0  0  0  0  0  0  0  0  0  0
    6.3221   10.8920    6.1200 C   0  0  0  0  0  0  0  0  0  0  0  0
    7.0911   12.2177    6.9075 Cl  0  0  0  0  0  0  0  0  0  0  0  0
    5.1908   10.3326    6.7064 C   0  0  0  0  0  0  0  0  0  0  0  0
    4.5861    9.2665    6.0620 C   0  0  0  0  0  0  0  0  0  0  0  0
    3.4039    8.4714    6.3987 C   0  0  0  0  0  0  0  0  0  0  0  0
    2.5848    8.7168    7.4710 C   0  0  0  0  0  0  0  0  0  0  0  0
    2.8000    9.7451    8.4137 C   0  0  0  0  0  0  0  0  0  0  0  0
    2.9045   10.5526    9.2232 N   0  0  0  0  0  0  0  0  0  0  0  0
    1.4015    8.0246    7.8065 C   0  0  0  0  0  0  0  0  0  0  0  0
    0.4188    7.5422    8.1561 N   0  0  0  0  0  0  0  0  0  0  0  0
   -5.4914   -5.7597   -4.5065 H   0  0  0  0  0  0  0  0  0  0  0  0
   -5.8891   -6.8472   -9.6980 H   0  0  0  0  0  0  0  0  0  0  0  0
   -4.2965   -6.7962  -11.6157 H   0  0  0  0  0  0  0  0  0  0  0  0
   -1.0330   -6.0389   -8.9542 H   0  0  0  0  0  0  0  0  0  0  0  0
   -5.0485   -4.9291   -2.1197 H   0  0  0  0  0  0  0  0  0  0  0  0
   -4.3978   -0.9333   -2.0080 H   0  0  0  0  0  0  0  0  0  0  0  0
   -6.4895    0.2861   -1.6513 H   0  0  0  0  0  0  0  0  0  0  0  0
   -8.4766    0.1149    1.4309 H   0  0  0  0  0  0  0  0  0  0  0  0
   -8.2516    0.9616   -0.1067 H   0  0  0  0  0  0  0  0  0  0  0  0
  -10.3853   -0.3121   -0.1015 H   0  0  0  0  0  0  0  0  0  0  0  0
   -9.2793   -0.9665   -1.3140 H   0  0  0  0  0  0  0  0  0  0  0  0
   -9.5036   -1.8092    0.2187 H   0  0  0  0  0  0  0  0  0  0  0  0
   -7.1670   -1.9287    1.9278 H   0  0  0  0  0  0  0  0  0  0  0  0
   -5.0711   -3.1385    1.5855 H   0  0  0  0  0  0  0  0  0  0  0  0
   -1.0449   -3.1099    1.0650 H   0  0  0  0  0  0  0  0  0  0  0  0
   -0.5210   -4.8804    2.6501 H   0  0  0  0  0  0  0  0  0  0  0  0
   -1.3067   -6.7330    4.0279 H   0  0  0  0  0  0  0  0  0  0  0  0
   -2.8774   -7.4855    3.7137 H   0  0  0  0  0  0  0  0  0  0  0  0
   -0.3614   -7.8799    2.0220 H   0  0  0  0  0  0  0  0  0  0  0  0
   -1.9254   -8.6280    1.7084 H   0  0  0  0  0  0  0  0  0  0  0  0
   -1.0246   -9.0494    3.1693 H   0  0  0  0  0  0  0  0  0  0  0  0
   -4.1865   -6.8375    1.7021 H   0  0  0  0  0  0  0  0  0  0  0  0
   -4.7238   -5.0635    0.1158 H   0  0  0  0  0  0  0  0  0  0  0  0
    2.6585    1.7593   -2.3198 H   0  0  0  0  0  0  0  0  0  0  0  0
    1.3272    0.7053   -2.8213 H   0  0  0  0  0  0  0  0  0  0  0  0
    3.6420   -0.0579   -0.9602 H   0  0  0  0  0  0  0  0  0  0  0  0
    2.3198   -1.1455   -1.4001 H   0  0  0  0  0  0  0  0  0  0  0  0
    3.4436   -0.5857   -2.6402 H   0  0  0  0  0  0  0  0  0  0  0  0
   -2.9303   -0.2895    3.7595 H   0  0  0  0  0  0  0  0  0  0  0  0
   -4.2718   -1.3029    3.1984 H   0  0  0  0  0  0  0  0  0  0  0  0
   -4.9701    1.0749    3.3421 H   0  0  0  0  0  0  0  0  0  0  0  0
   -5.0326    0.4959    1.6698 H   0  0  0  0  0  0  0  0  0  0  0  0
   -3.7094    1.5398    2.1982 H   0  0  0  0  0  0  0  0  0  0  0  0
    3.3594    3.5473   -0.7864 H   0  0  0  0  0  0  0  0  0  0  0  0
    2.7930    4.9696   -2.6900 H   0  0  0  0  0  0  0  0  0  0  0  0
   -0.1008    7.2674   -2.7830 H   0  0  0  0  0  0  0  0  0  0  0  0
    1.4599    6.8836   -3.5225 H   0  0  0  0  0  0  0  0  0  0  0  0
   -1.0562    5.1576   -3.7159 H   0  0  0  0  0  0  0  0  0  0  0  0
    0.4992    4.7777   -4.4544 H   0  0  0  0  0  0  0  0  0  0  0  0
   -0.4146    6.1884   -4.9999 H   0  0  0  0  0  0  0  0  0  0  0  0
   -0.8662    6.0674   -0.7990 H   0  0  0  0  0  0  0  0  0  0  0  0
   -0.3010    4.6520    1.1144 H   0  0  0  0  0  0  0  0  0  0  0  0
    4.3045    4.2644    1.3480 H   0  0  0  0  0  0  0  0  0  0  0  0
    6.4957    3.1926    1.3407 H   0  0  0  0  0  0  0  0  0  0  0  0
    7.0163   -0.4594    1.1182 H   0  0  0  0  0  0  0  0  0  0  0  0
    7.7858    1.1241    0.9363 H   0  0  0  0  0  0  0  0  0  0  0  0
    8.5717   -0.0054    3.0040 H   0  0  0  0  0  0  0  0  0  0  0  0
    7.6701    1.4600    3.4069 H   0  0  0  0  0  0  0  0  0  0  0  0
    6.9079   -0.1196    3.5876 H   0  0  0  0  0  0  0  0  0  0  0  0
    4.6354   -0.6275    1.6871 H   0  0  0  0  0  0  0  0  0  0  0  0
    2.4415    0.4335    1.6945 H   0  0  0  0  0  0  0  0  0  0  0  0
    3.2328    5.6049    2.8276 H   0  0  0  0  0  0  0  0  0  0  0  0
    1.6851    6.4638    6.3365 H   0  0  0  0  0  0  0  0  0  0  0  0
    6.6307    8.9593    3.3548 H   0  0  0  0  0  0  0  0  0  0  0  0
    7.7275   10.8847    4.5074 H   0  0  0  0  0  0  0  0  0  0  0  0
    4.8184   10.7328    7.6344 H   0  0  0  0  0  0  0  0  0  0  0  0
  1  2  2  0  0  0  0
  2  3  1  0  0  0  0
  3  4  2  0  0  0  0
  3  5  1  0  0  0  0
  5  6  2  0  0  0  0
  6  7  1  0  0  0  0
  7  8  2  0  0  0  0
  8  9  1  0  0  0  0
  8 10  1  0  0  0  0
 10 11  2  0  0  0  0
 11 12  1  0  0  0  0
 12 13  2  0  0  0  0
 13 14  1  0  0  0  0
 14 15  3  0  0  0  0
 13 16  1  0  0  0  0
 16 17  3  0  0  0  0
  1 18  1  0  0  0  0
 18 19  2  0  0  0  0
 19 20  1  0  0  0  0
 20 21  1  0  0  0  0
 21 22  1  0  0  0  0
 22 23  2  0  0  0  0
 23 24  1  0  0  0  0
 24 25  2  0  0  0  0
 25 26  1  0  0  0  0
 26 27  1  0  0  0  0
 25 28  1  0  0  0  0
 28 29  2  0  0  0  0
 21 30  1  0  0  0  0
 30 31  2  0  0  0  0
 31 32  1  0  0  0  0
 32 33  2  0  0  0  0
 33 34  1  0  0  0  0
 34 35  1  0  0  0  0
 33 36  1  0  0  0  0
 36 37  2  0  0  0  0
 21 38  1  0  0  0  0
 38 39  2  0  0  0  0
 39 40  1  0  0  0  0
 40 41  1  0  0  0  0
 39 42  1  0  0  0  0
 42 43  1  0  0  0  0
 43 44  2  0  0  0  0
 44 45  1  0  0  0  0
 45 46  1  0  0  0  0
 46 47  1  0  0  0  0
 44 48  1  0  0  0  0
 48 49  2  0  0  0  0
 49 50  1  0  0  0  0
 50 51  2  0  0  0  0
 50 52  1  0  0  0  0
 52 53  1  0  0  0  0
 53 54  1  0  0  0  0
 49 55  1  0  0  0  0
 55 56  1  0  0  0  0
 56 57  1  0  0  0  0
 57 58  2  0  0  0  0
 58 59  1  0  0  0  0
 59 60  1  0  0  0  0
 59 61  1  0  0  0  0
 61 62  2  0  0  0  0
 62 63  1  0  0  0  0
 63 64  2  0  0  0  0
 64 65  1  0  0  0  0
 65 66  1  0  0  0  0
 64 67  1  0  0  0  0
 67 68  2  0  0  0  0
 59 69  1  0  0  0  0
 69 70  2  0  0  0  0
 70 71  1  0  0  0  0
 71 72  2  0  0  0  0
 72 73  1  0  0  0  0
 73 74  1  0  0  0  0
 72 75  1  0  0  0  0
 75 76  2  0  0  0  0
 58 77  1  0  0  0  0
 77 78  2  0  0  0  0
 78 79  1  0  0  0  0
 78 80  1  0  0  0  0
 80 81  2  0  0  0  0
 81 82  1  0  0  0  0
 82 83  2  0  0  0  0
 82 84  1  0  0  0  0
 84 85  2  0  0  0  0
 85 86  1  0  0  0  0
 86 87  2  0  0  0  0
 87 88  1  0  0  0  0
 87 89  1  0  0  0  0
 89 90  2  0  0  0  0
 90 91  1  0  0  0  0
 91 92  2  0  0  0  0
 92 93  1  0  0  0  0
 93 94  3  0  0  0  0
 92 95  1  0  0  0  0
 95 96  3  0  0  0  0
 12  2  1  0  0  0  0
 41 18  1  0  0  0  0
 51 43  1  0  0  0  0
 60 56  2  0  0  0  0
 68 61  1  0  0  0  0
 76 69  1  0  0  0  0
 91 81  1  0  0  0  0
 11  5  1  0  0  0  0
 40 20  2  0  0  0  0
 60 48  1  0  0  0  0
 90 84  1  0  0  0  0
 29 22  1  0  0  0  0
 37 30  1  0  0  0  0
 51 38  1  0  0  0  0
 79 57  1  0  0  0  0
  1 97  1  0  0  0  0
  6 98  1  0  0  0  0
  7 99  1  0  0  0  0
 10100  1  0  0  0  0
 19101  1  0  0  0  0
 23102  1  0  0  0  0
 24103  1  0  0  0  0
 26104  1  0  0  0  0
 26105  1  0  0  0  0
 27106  1  0  0  0  0
 27107  1  0  0  0  0
 27108  1  0  0  0  0
 28109  1  0  0  0  0
 29110  1  0  0  0  0
 31111  1  0  0  0  0
 32112  1  0  0  0  0
 34113  1  0  0  0  0
 34114  1  0  0  0  0
 35115  1  0  0  0  0
 35116  1  0  0  0  0
 35117  1  0  0  0  0
 36118  1  0  0  0  0
 37119  1  0  0  0  0
 46120  1  0  0  0  0
 46121  1  0  0  0  0
 47122  1  0  0  0  0
 47123  1  0  0  0  0
 47124  1  0  0  0  0
 53125  1  0  0  0  0
 53126  1  0  0  0  0
 54127  1  0  0  0  0
 54128  1  0  0  0  0
 54129  1  0  0  0  0
 62130  1  0  0  0  0
 63131  1  0  0  0  0
 65132  1  0  0  0  0
 65133  1  0  0  0  0
 66134  1  0  0  0  0
 66135  1  0  0  0  0
 66136  1  0  0  0  0
 67137  1  0  0  0  0
 68138  1  0  0  0  0
 70139  1  0  0  0  0
 71140  1  0  0  0  0
 73141  1  0  0  0  0
 73142  1  0  0  0  0
 74143  1  0  0  0  0
 74144  1  0  0  0  0
 74145  1  0  0  0  0
 75146  1  0  0  0  0
 76147  1  0  0  0  0
 77148  1  0  0  0  0
 80149  1  0  0  0  0
 85150  1  0  0  0  0
 86151  1  0  0  0  0
 89152  1  0  0  0  0
M  END
