152

C         -4.45830       -5.54190       -4.76200
C         -4.05670       -6.01740       -5.97730
C         -5.07550       -6.41950       -6.98090
O         -6.25470       -6.61050       -6.78560
C         -4.34620       -6.47040       -8.26610
C         -4.83600       -6.67170       -9.54250
C         -3.94810       -6.64320      -10.60660
C         -2.59640       -6.41240      -10.37670
Cl        -1.51470       -6.36330      -11.71640
C         -2.08620       -6.21880       -9.09640
C         -2.97490       -6.25230       -8.03730
C         -2.75700       -6.12850       -6.59570
C         -1.57390       -6.37970       -5.95020
C         -1.49140       -6.57580       -4.55590
N         -1.40420       -6.79520       -3.43240
C         -0.34350       -6.57260       -6.60790
N          0.68560       -6.71910       -7.09510
C         -3.77890       -4.71320       -3.85010
C         -4.18840       -4.44570       -2.54510
C         -3.37360       -3.53080       -1.90480
C         -3.28950       -2.86940       -0.53900
C         -4.58710       -2.13370       -0.24300
C         -5.00410       -1.15760       -1.14140
C         -6.18540       -0.46990       -0.94140
C         -6.98540       -0.73660        0.16270
C         -8.29090       -0.02300        0.36360
C         -9.43950       -0.82840       -0.24710
C         -6.56340       -1.71020        1.05820
C         -5.37940       -2.39910        0.86320
C         -2.93290       -3.94160        0.47760
C         -1.74810       -3.91660        1.19720
C         -1.44890       -4.92400        2.09750
C         -2.31650       -5.98650        2.30110
C         -1.96950       -7.10260        3.24280
C         -1.27560       -8.23900        2.48890
C         -3.49590       -6.01720        1.56790
C         -3.79840       -5.01400        0.66870
C         -2.15670       -1.89070       -0.77760
C         -1.63120       -2.05940       -2.04590
C         -2.35830       -3.05040       -2.73660
S         -2.37260       -3.75340       -4.29260
S         -0.32300       -1.00360       -2.41170
C         -0.44350       -0.28580       -0.80350
C          0.35340        0.72270       -0.28320
O          1.38000        1.38510       -0.85740
C          2.03900        0.91170       -2.01570
C          2.91750       -0.30090       -1.73400
C          0.03960        1.16460        1.02380
C         -1.04040        0.60270        1.76620
C         -1.83270       -0.41090        1.24780
C         -1.50950       -0.86470       -0.05200
O         -2.85880       -1.06890        1.83400
C         -3.58560       -0.50380        2.90830
C         -4.37380        0.73460        2.50090
S         -1.18280        1.34620        3.36090
C          0.13920        2.39020        3.00170
C          0.79240        3.46290        3.64390
C          1.79150        3.95580        2.79150
C          1.85560        3.12770        1.52060
C          0.70060        2.17600        1.75540
C          1.57260        3.99750        0.30510
C          2.43260        4.09910       -0.77680
C          2.10870        4.90150       -1.85570
C          0.92350        5.62260       -1.88540
C          0.55870        6.45100       -3.08330
C         -0.14870        5.58980       -4.13180
C          0.06360        5.51630       -0.80030
C          0.38340        4.71700        0.27980
C          3.20360        2.42920        1.49490
C          4.36630        3.18930        1.41330
C          5.60690        2.58230        1.41070
C          5.72800        1.20100        1.49850
C          7.07900        0.54740        1.53640
C          7.59150        0.46460        2.97560
C          4.56760        0.44850        1.60450
C          3.32150        1.05190        1.60660
C          2.44720        5.05300        3.30780
C          1.97090        5.41700        4.56760
S          0.66610        4.34320        5.09760
C          2.30260        6.45670        5.44610
C          3.25530        7.44610        5.38150
C          4.31540        7.64710        4.37140
O          4.53120        7.02740        3.34770
C          5.12080        8.78450        4.85720
C          6.24350        9.34970        4.28320
C          6.84960       10.41750        4.92460
C          6.32210       10.89200        6.12000
Cl         7.09110       12.21770        6.90750
C          5.19080       10.33260        6.70640
C          4.58610        9.26650        6.06200
C          3.40390        8.47140        6.39870
C          2.58480        8.71680        7.47100
C          2.80000        9.74510        8.41370
N          2.90450       10.55260        9.22320
C          1.40150        8.02460        7.80650
N          0.41880        7.54220        8.15610
H         -5.49140       -5.75970       -4.50650
H         -5.88910       -6.84720       -9.69800
H         -4.29650       -6.79620      -11.61570
H         -1.03300       -6.03890       -8.95420
H         -5.04850       -4.92910       -2.11970
H         -4.39780       -0.93330       -2.00800
H         -6.48950        0.28610       -1.65130
H         -8.47660        0.11490        1.43090
H         -8.25160        0.96160       -0.10670
H        -10.38530       -0.31210       -0.10150
H         -9.27930       -0.96650       -1.31400
H         -9.50360       -1.80920        0.21870
H         -7.16700       -1.92870        1.92780
H         -5.07110       -3.13850        1.58550
H         -1.04490       -3.10990        1.06500
H         -0.52100       -4.88040        2.65010
H         -1.30670       -6.73300        4.02790
H         -2.87740       -7.48550        3.71370
H         -0.36140       -7.87990        2.02200
H         -1.92540       -8.62800        1.70840
H         -1.02460       -9.04940        3.16930
H         -4.18650       -6.83750        1.70210
H         -4.72380       -5.06350        0.11580
H          2.65850        1.75930       -2.31980
H          1.32720        0.70530       -2.82130
H          3.64200       -0.05790       -0.96020
H          2.31980       -1.14550       -1.40010
H          3.44360       -0.58570       -2.64020
H         -2.93030       -0.28950        3.75950
H         -4.27180       -1.30290        3.19840
H         -4.97010        1.07490        3.34210
H         -5.03260        0.49590        1.66980
H         -3.70940        1.53980        2.19820
H          3.35940        3.54730       -0.78640
H          2.79300        4.96960       -2.69000
H         -0.10080        7.26740       -2.78300
H          1.45990        6.88360       -3.52250
H         -1.05620        5.15760       -3.71590
H          0.49920        4.77770       -4.45440
H         -0.41460        6.18840       -4.99990
H         -0.86620        6.06740       -0.79900
H         -0.30100        4.65200        1.11440
H          4.30450        4.26440        1.34800
H          6.49570        3.19260        1.34070
H          7.01630       -0.45940        1.11820
H          7.78580        1.12410        0.93630
H          8.57170       -0.00540        3.00400
H          7.67010        1.46000        3.40690
H          6.90790       -0.11960        3.58760
H          4.63540       -0.62750        1.68710
H          2.44150        0.43350        1.69450
H          3.23280        5.60490        2.82760
H          1.68510        6.46380        6.33650
H          6.63070        8.95930        3.35480
H          7.72750       10.88470        4.50740
H          4.81840       10.73280        7.63440
