
  xtb     02012217013D
 energy: -259.632063781822 gnorm: 0.000420811722 xtb: 6.4.1 (unknown)
158173  0     0  0            999 V2000
    6.7168   -5.5511    1.0394 C   0  0  0  0  0  0  0  0  0  0  0  0
    6.8050   -6.7633    1.6641 C   0  0  0  0  0  0  0  0  0  0  0  0
    7.6946   -7.8114    1.1034 C   0  0  0  0  0  0  0  0  0  0  0  0
    8.5615   -7.6638    0.2712 O   0  0  0  0  0  0  0  0  0  0  0  0
    7.2457   -9.0714    1.7342 C   0  0  0  0  0  0  0  0  0  0  0  0
    7.6468  -10.3688    1.4791 C   0  0  0  0  0  0  0  0  0  0  0  0
    7.0484  -11.4001    2.1863 C   0  0  0  0  0  0  0  0  0  0  0  0
    6.0651  -11.1165    3.1273 C   0  0  0  0  0  0  0  0  0  0  0  0
    5.3234  -12.4158    3.9818 Cl  0  0  0  0  0  0  0  0  0  0  0  0
    5.6578   -9.8146    3.4030 C   0  0  0  0  0  0  0  0  0  0  0  0
    6.2597   -8.7888    2.6975 C   0  0  0  0  0  0  0  0  0  0  0  0
    6.0884   -7.3375    2.7769 C   0  0  0  0  0  0  0  0  0  0  0  0
    5.6021   -6.6567    3.8634 C   0  0  0  0  0  0  0  0  0  0  0  0
    5.7666   -5.2659    4.0288 C   0  0  0  0  0  0  0  0  0  0  0  0
    5.9364   -4.1459    4.2153 N   0  0  0  0  0  0  0  0  0  0  0  0
    4.9902   -7.2749    4.9709 C   0  0  0  0  0  0  0  0  0  0  0  0
    4.4681   -7.7301    5.8865 N   0  0  0  0  0  0  0  0  0  0  0  0
    5.6842   -4.5974    1.0604 C   0  0  0  0  0  0  0  0  0  0  0  0
    5.7648   -3.3142    0.5203 C   0  0  0  0  0  0  0  0  0  0  0  0
    4.5693   -2.6255    0.5932 C   0  0  0  0  0  0  0  0  0  0  0  0
    4.0381   -1.2577    0.1953 C   0  0  0  0  0  0  0  0  0  0  0  0
    4.2798   -1.0318   -1.2884 C   0  0  0  0  0  0  0  0  0  0  0  0
    5.0383    0.0168   -1.7858 C   0  0  0  0  0  0  0  0  0  0  0  0
    5.2714    0.1300   -3.1449 C   0  0  0  0  0  0  0  0  0  0  0  0
    4.7533   -0.7932   -4.0433 C   0  0  0  0  0  0  0  0  0  0  0  0
    4.9932   -0.6457   -5.5184 C   0  0  0  0  0  0  0  0  0  0  0  0
    3.9799    0.3168   -6.1413 C   0  0  0  0  0  0  0  0  0  0  0  0
    3.9746   -1.8292   -3.5427 C   0  0  0  0  0  0  0  0  0  0  0  0
    3.7438   -1.9490   -2.1857 C   0  0  0  0  0  0  0  0  0  0  0  0
    4.6919   -0.2216    1.0961 C   0  0  0  0  0  0  0  0  0  0  0  0
    3.9598    0.5839    1.9551 C   0  0  0  0  0  0  0  0  0  0  0  0
    4.5952    1.4984    2.7766 C   0  0  0  0  0  0  0  0  0  0  0  0
    5.9759    1.6276    2.7753 C   0  0  0  0  0  0  0  0  0  0  0  0
    6.6597    2.6490    3.6370 C   0  0  0  0  0  0  0  0  0  0  0  0
    6.8263    3.9655    2.8750 C   0  0  0  0  0  0  0  0  0  0  0  0
    6.7078    0.8135    1.9207 C   0  0  0  0  0  0  0  0  0  0  0  0
    6.0778   -0.0989    1.0979 C   0  0  0  0  0  0  0  0  0  0  0  0
    2.5635   -1.4388    0.4972 C   0  0  0  0  0  0  0  0  0  0  0  0
    2.3389   -2.6701    1.0862 C   0  0  0  0  0  0  0  0  0  0  0  0
    3.5443   -3.3979    1.1479 C   0  0  0  0  0  0  0  0  0  0  0  0
    4.0570   -4.9546    1.6262 S   0  0  0  0  0  0  0  0  0  0  0  0
    0.6938   -2.9649    1.4964 S   0  0  0  0  0  0  0  0  0  0  0  0
    0.2451   -1.3780    0.8660 C   0  0  0  0  0  0  0  0  0  0  0  0
   -1.0259   -0.8250    0.8398 C   0  0  0  0  0  0  0  0  0  0  0  0
   -2.1910   -1.3436    1.2879 O   0  0  0  0  0  0  0  0  0  0  0  0
   -2.2357   -2.4157    2.2095 C   0  0  0  0  0  0  0  0  0  0  0  0
   -1.7861   -2.0084    3.6071 C   0  0  0  0  0  0  0  0  0  0  0  0
   -1.1511    0.4433    0.2262 C   0  0  0  0  0  0  0  0  0  0  0  0
   -0.0250    1.1234   -0.3234 C   0  0  0  0  0  0  0  0  0  0  0  0
    1.2495    0.5774   -0.2806 C   0  0  0  0  0  0  0  0  0  0  0  0
    1.3765   -0.6886    0.3353 C   0  0  0  0  0  0  0  0  0  0  0  0
    2.4148    1.1134   -0.7128 O   0  0  0  0  0  0  0  0  0  0  0  0
    2.4415    2.0982   -1.7281 C   0  0  0  0  0  0  0  0  0  0  0  0
    1.9374    1.5749   -3.0667 C   0  0  0  0  0  0  0  0  0  0  0  0
   -0.4839    2.6865   -1.0030 S   0  0  0  0  0  0  0  0  0  0  0  0
   -2.1297    2.3972   -0.5860 C   0  0  0  0  0  0  0  0  0  0  0  0
   -3.3563    3.0745   -0.7669 C   0  0  0  0  0  0  0  0  0  0  0  0
   -4.3761    2.2825   -0.2184 C   0  0  0  0  0  0  0  0  0  0  0  0
   -3.8045    1.0160    0.3950 C   0  0  0  0  0  0  0  0  0  0  0  0
   -2.3361    1.1964    0.0675 C   0  0  0  0  0  0  0  0  0  0  0  0
   -4.0943    1.0452    1.8820 C   0  0  0  0  0  0  0  0  0  0  0  0
   -5.4053    0.9278    2.3318 C   0  0  0  0  0  0  0  0  0  0  0  0
   -5.6971    0.9791    3.6812 C   0  0  0  0  0  0  0  0  0  0  0  0
   -4.6930    1.1683    4.6222 C   0  0  0  0  0  0  0  0  0  0  0  0
   -4.9984    1.1674    6.0919 C   0  0  0  0  0  0  0  0  0  0  0  0
   -4.8309   -0.2397    6.6702 C   0  0  0  0  0  0  0  0  0  0  0  0
   -3.3900    1.3150    4.1683 C   0  0  0  0  0  0  0  0  0  0  0  0
   -3.0931    1.2597    2.8178 C   0  0  0  0  0  0  0  0  0  0  0  0
   -4.3356   -0.2064   -0.3394 C   0  0  0  0  0  0  0  0  0  0  0  0
   -4.9100   -1.2927    0.3010 C   0  0  0  0  0  0  0  0  0  0  0  0
   -5.3571   -2.3806   -0.4274 C   0  0  0  0  0  0  0  0  0  0  0  0
   -5.2405   -2.4171   -1.8094 C   0  0  0  0  0  0  0  0  0  0  0  0
   -5.7702   -3.5786   -2.5995 C   0  0  0  0  0  0  0  0  0  0  0  0
   -7.2164   -3.3179   -3.0253 C   0  0  0  0  0  0  0  0  0  0  0  0
   -4.6624   -1.3272   -2.4476 C   0  0  0  0  0  0  0  0  0  0  0  0
   -4.2147   -0.2395   -1.7244 C   0  0  0  0  0  0  0  0  0  0  0  0
   -5.6174    2.8465   -0.3919 C   0  0  0  0  0  0  0  0  0  0  0  0
   -5.5684    4.0702   -1.0786 C   0  0  0  0  0  0  0  0  0  0  0  0
   -3.9198    4.5119   -1.5015 S   0  0  0  0  0  0  0  0  0  0  0  0
   -6.7312    4.7941   -1.3690 C   0  0  0  0  0  0  0  0  0  0  0  0
   -6.9069    5.9723   -2.0503 C   0  0  0  0  0  0  0  0  0  0  0  0
   -5.8455    6.7681   -2.6755 C   0  0  0  0  0  0  0  0  0  0  0  0
   -4.6473    6.5330   -2.6524 O   0  0  0  0  0  0  0  0  0  0  0  0
   -6.5154    7.9004   -3.3369 C   0  0  0  0  0  0  0  0  0  0  0  0
   -7.8888    7.8118   -3.1162 C   0  0  0  0  0  0  0  0  0  0  0  0
   -8.7540    8.7758   -3.6503 C   0  0  0  0  0  0  0  0  0  0  0  0
   -8.2251    9.8018   -4.3900 C   0  0  0  0  0  0  0  0  0  0  0  0
   -6.8392    9.9179   -4.6297 C   0  0  0  0  0  0  0  0  0  0  0  0
   -6.3043   10.9763   -5.3924 C   0  0  0  0  0  0  0  0  0  0  0  0
   -4.9576   11.0659   -5.6120 C   0  0  0  0  0  0  0  0  0  0  0  0
   -4.0836   10.1036   -5.0802 C   0  0  0  0  0  0  0  0  0  0  0  0
   -4.5639    9.0627   -4.3351 C   0  0  0  0  0  0  0  0  0  0  0  0
   -5.9480    8.9443   -4.0922 C   0  0  0  0  0  0  0  0  0  0  0  0
   -8.1719    6.6283   -2.3052 C   0  0  0  0  0  0  0  0  0  0  0  0
   -9.4149    6.2424   -1.8715 C   0  0  0  0  0  0  0  0  0  0  0  0
  -10.6128    6.9321   -2.1530 C   0  0  0  0  0  0  0  0  0  0  0  0
  -11.6302    7.4322   -2.3366 N   0  0  0  0  0  0  0  0  0  0  0  0
   -9.6974    5.1117   -1.0770 C   0  0  0  0  0  0  0  0  0  0  0  0
  -10.0193    4.2169   -0.4316 N   0  0  0  0  0  0  0  0  0  0  0  0
    7.5233   -5.3402    0.3427 H   0  0  0  0  0  0  0  0  0  0  0  0
    8.4108  -10.5657    0.7431 H   0  0  0  0  0  0  0  0  0  0  0  0
    7.3370  -12.4245    2.0117 H   0  0  0  0  0  0  0  0  0  0  0  0
    4.8898   -9.6310    4.1367 H   0  0  0  0  0  0  0  0  0  0  0  0
    6.6823   -2.9418    0.1028 H   0  0  0  0  0  0  0  0  0  0  0  0
    5.4491    0.7540   -1.1139 H   0  0  0  0  0  0  0  0  0  0  0  0
    5.8722    0.9496   -3.5134 H   0  0  0  0  0  0  0  0  0  0  0  0
    6.0014   -0.2630   -5.6897 H   0  0  0  0  0  0  0  0  0  0  0  0
    4.9107   -1.6195   -6.0048 H   0  0  0  0  0  0  0  0  0  0  0  0
    4.0590    1.2998   -5.6827 H   0  0  0  0  0  0  0  0  0  0  0  0
    2.9665   -0.0500   -5.9932 H   0  0  0  0  0  0  0  0  0  0  0  0
    4.1594    0.4167   -7.2091 H   0  0  0  0  0  0  0  0  0  0  0  0
    3.5516   -2.5559   -4.2218 H   0  0  0  0  0  0  0  0  0  0  0  0
    3.1441   -2.7699   -1.8177 H   0  0  0  0  0  0  0  0  0  0  0  0
    2.8850    0.5082    1.9928 H   0  0  0  0  0  0  0  0  0  0  0  0
    4.0029    2.1168    3.4361 H   0  0  0  0  0  0  0  0  0  0  0  0
    7.6424    2.2805    3.9378 H   0  0  0  0  0  0  0  0  0  0  0  0
    6.0707    2.8269    4.5387 H   0  0  0  0  0  0  0  0  0  0  0  0
    7.3202    4.7067    3.4988 H   0  0  0  0  0  0  0  0  0  0  0  0
    7.4242    3.8116    1.9794 H   0  0  0  0  0  0  0  0  0  0  0  0
    5.8555    4.3542    2.5753 H   0  0  0  0  0  0  0  0  0  0  0  0
    7.7858    0.8889    1.9040 H   0  0  0  0  0  0  0  0  0  0  0  0
    6.6735   -0.7179    0.4452 H   0  0  0  0  0  0  0  0  0  0  0  0
   -3.2919   -2.6956    2.2252 H   0  0  0  0  0  0  0  0  0  0  0  0
   -1.6640   -3.2759    1.8466 H   0  0  0  0  0  0  0  0  0  0  0  0
   -0.7446   -1.6963    3.6057 H   0  0  0  0  0  0  0  0  0  0  0  0
   -1.8943   -2.8521    4.2824 H   0  0  0  0  0  0  0  0  0  0  0  0
   -2.3981   -1.1829    3.9629 H   0  0  0  0  0  0  0  0  0  0  0  0
    1.8903    2.9948   -1.4244 H   0  0  0  0  0  0  0  0  0  0  0  0
    3.5007    2.3558   -1.8034 H   0  0  0  0  0  0  0  0  0  0  0  0
    2.5061    0.6944   -3.3538 H   0  0  0  0  0  0  0  0  0  0  0  0
    2.0594    2.3430   -3.8245 H   0  0  0  0  0  0  0  0  0  0  0  0
    0.8852    1.3077   -3.0108 H   0  0  0  0  0  0  0  0  0  0  0  0
   -6.2058    0.7884    1.6210 H   0  0  0  0  0  0  0  0  0  0  0  0
   -6.7220    0.8773    4.0082 H   0  0  0  0  0  0  0  0  0  0  0  0
   -6.0229    1.5054    6.2580 H   0  0  0  0  0  0  0  0  0  0  0  0
   -4.3239    1.8515    6.6109 H   0  0  0  0  0  0  0  0  0  0  0  0
   -5.4986   -0.9368    6.1687 H   0  0  0  0  0  0  0  0  0  0  0  0
   -3.8087   -0.5870    6.5349 H   0  0  0  0  0  0  0  0  0  0  0  0
   -5.0600   -0.2436    7.7331 H   0  0  0  0  0  0  0  0  0  0  0  0
   -2.5932    1.4801    4.8804 H   0  0  0  0  0  0  0  0  0  0  0  0
   -2.0690    1.3835    2.5006 H   0  0  0  0  0  0  0  0  0  0  0  0
   -5.0081   -1.2979    1.3749 H   0  0  0  0  0  0  0  0  0  0  0  0
   -5.8019   -3.2187    0.0907 H   0  0  0  0  0  0  0  0  0  0  0  0
   -5.7309   -4.4870   -1.9952 H   0  0  0  0  0  0  0  0  0  0  0  0
   -5.1559   -3.7327   -3.4889 H   0  0  0  0  0  0  0  0  0  0  0  0
   -7.8477   -3.1742   -2.1513 H   0  0  0  0  0  0  0  0  0  0  0  0
   -7.2743   -2.4217   -3.6390 H   0  0  0  0  0  0  0  0  0  0  0  0
   -7.6022   -4.1575   -3.5987 H   0  0  0  0  0  0  0  0  0  0  0  0
   -4.5579   -1.3320   -3.5234 H   0  0  0  0  0  0  0  0  0  0  0  0
   -3.7652    0.5954   -2.2437 H   0  0  0  0  0  0  0  0  0  0  0  0
   -6.5511    2.4253   -0.0657 H   0  0  0  0  0  0  0  0  0  0  0  0
   -7.6266    4.3158   -0.9908 H   0  0  0  0  0  0  0  0  0  0  0  0
   -9.8175    8.7179   -3.4891 H   0  0  0  0  0  0  0  0  0  0  0  0
   -8.8813   10.5513   -4.8086 H   0  0  0  0  0  0  0  0  0  0  0  0
   -6.9795   11.7148   -5.8001 H   0  0  0  0  0  0  0  0  0  0  0  0
   -4.5558   11.8795   -6.1978 H   0  0  0  0  0  0  0  0  0  0  0  0
   -3.0236   10.1935   -5.2658 H   0  0  0  0  0  0  0  0  0  0  0  0
   -3.9016    8.3185   -3.9220 H   0  0  0  0  0  0  0  0  0  0  0  0
  1  2  2  0  0  0  0
  2  3  1  0  0  0  0
  3  4  2  0  0  0  0
  3  5  1  0  0  0  0
  5  6  2  0  0  0  0
  6  7  1  0  0  0  0
  7  8  2  0  0  0  0
  8  9  1  0  0  0  0
  8 10  1  0  0  0  0
 10 11  2  0  0  0  0
 11 12  1  0  0  0  0
 12 13  2  0  0  0  0
 13 14  1  0  0  0  0
 14 15  3  0  0  0  0
 13 16  1  0  0  0  0
 16 17  3  0  0  0  0
  1 18  1  0  0  0  0
 18 19  2  0  0  0  0
 19 20  1  0  0  0  0
 20 21  1  0  0  0  0
 21 22  1  0  0  0  0
 22 23  2  0  0  0  0
 23 24  1  0  0  0  0
 24 25  2  0  0  0  0
 25 26  1  0  0  0  0
 26 27  1  0  0  0  0
 25 28  1  0  0  0  0
 28 29  2  0  0  0  0
 21 30  1  0  0  0  0
 30 31  2  0  0  0  0
 31 32  1  0  0  0  0
 32 33  2  0  0  0  0
 33 34  1  0  0  0  0
 34 35  1  0  0  0  0
 33 36  1  0  0  0  0
 36 37  2  0  0  0  0
 21 38  1  0  0  0  0
 38 39  2  0  0  0  0
 39 40  1  0  0  0  0
 40 41  1  0  0  0  0
 39 42  1  0  0  0  0
 42 43  1  0  0  0  0
 43 44  2  0  0  0  0
 44 45  1  0  0  0  0
 45 46  1  0  0  0  0
 46 47  1  0  0  0  0
 44 48  1  0  0  0  0
 48 49  2  0  0  0  0
 49 50  1  0  0  0  0
 50 51  2  0  0  0  0
 50 52  1  0  0  0  0
 52 53  1  0  0  0  0
 53 54  1  0  0  0  0
 49 55  1  0  0  0  0
 55 56  1  0  0  0  0
 56 57  1  0  0  0  0
 57 58  2  0  0  0  0
 58 59  1  0  0  0  0
 59 60  1  0  0  0  0
 59 61  1  0  0  0  0
 61 62  2  0  0  0  0
 62 63  1  0  0  0  0
 63 64  2  0  0  0  0
 64 65  1  0  0  0  0
 65 66  1  0  0  0  0
 64 67  1  0  0  0  0
 67 68  2  0  0  0  0
 59 69  1  0  0  0  0
 69 70  2  0  0  0  0
 70 71  1  0  0  0  0
 71 72  2  0  0  0  0
 72 73  1  0  0  0  0
 73 74  1  0  0  0  0
 72 75  1  0  0  0  0
 75 76  2  0  0  0  0
 58 77  1  0  0  0  0
 77 78  2  0  0  0  0
 78 79  1  0  0  0  0
 78 80  1  0  0  0  0
 80 81  2  0  0  0  0
 81 82  1  0  0  0  0
 82 83  2  0  0  0  0
 82 84  1  0  0  0  0
 84 85  2  0  0  0  0
 85 86  1  0  0  0  0
 86 87  2  0  0  0  0
 87 88  1  0  0  0  0
 88 89  2  0  0  0  0
 89 90  1  0  0  0  0
 90 91  2  0  0  0  0
 91 92  1  0  0  0  0
 92 93  2  0  0  0  0
 85 94  1  0  0  0  0
 94 95  2  0  0  0  0
 95 96  1  0  0  0  0
 96 97  3  0  0  0  0
 95 98  1  0  0  0  0
 98 99  3  0  0  0  0
 12  2  1  0  0  0  0
 41 18  1  0  0  0  0
 51 43  1  0  0  0  0
 60 56  2  0  0  0  0
 68 61  1  0  0  0  0
 76 69  1  0  0  0  0
 94 81  1  0  0  0  0
 11  5  1  0  0  0  0
 40 20  2  0  0  0  0
 60 48  1  0  0  0  0
 93 84  1  0  0  0  0
 29 22  1  0  0  0  0
 37 30  1  0  0  0  0
 51 38  1  0  0  0  0
 79 57  1  0  0  0  0
 93 88  1  0  0  0  0
  1100  1  0  0  0  0
  6101  1  0  0  0  0
  7102  1  0  0  0  0
 10103  1  0  0  0  0
 19104  1  0  0  0  0
 23105  1  0  0  0  0
 24106  1  0  0  0  0
 26107  1  0  0  0  0
 26108  1  0  0  0  0
 27109  1  0  0  0  0
 27110  1  0  0  0  0
 27111  1  0  0  0  0
 28112  1  0  0  0  0
 29113  1  0  0  0  0
 31114  1  0  0  0  0
 32115  1  0  0  0  0
 34116  1  0  0  0  0
 34117  1  0  0  0  0
 35118  1  0  0  0  0
 35119  1  0  0  0  0
 35120  1  0  0  0  0
 36121  1  0  0  0  0
 37122  1  0  0  0  0
 46123  1  0  0  0  0
 46124  1  0  0  0  0
 47125  1  0  0  0  0
 47126  1  0  0  0  0
 47127  1  0  0  0  0
 53128  1  0  0  0  0
 53129  1  0  0  0  0
 54130  1  0  0  0  0
 54131  1  0  0  0  0
 54132  1  0  0  0  0
 62133  1  0  0  0  0
 63134  1  0  0  0  0
 65135  1  0  0  0  0
 65136  1  0  0  0  0
 66137  1  0  0  0  0
 66138  1  0  0  0  0
 66139  1  0  0  0  0
 67140  1  0  0  0  0
 68141  1  0  0  0  0
 70142  1  0  0  0  0
 71143  1  0  0  0  0
 73144  1  0  0  0  0
 73145  1  0  0  0  0
 74146  1  0  0  0  0
 74147  1  0  0  0  0
 74148  1  0  0  0  0
 75149  1  0  0  0  0
 76150  1  0  0  0  0
 77151  1  0  0  0  0
 80152  1  0  0  0  0
 86153  1  0  0  0  0
 87154  1  0  0  0  0
 89155  1  0  0  0  0
 90156  1  0  0  0  0
 91157  1  0  0  0  0
 92158  1  0  0  0  0
M  END
