
  xtb     01212212563D
 energy: -248.469261189159 gnorm: 0.000185501067 xtb: 6.4.1 (unknown)
157173  0     0  0            999 V2000
    4.8567    4.4163    5.9213 C   0  0  0  0  0  0  0  0  0  0  0  0
    6.0930    4.8456    5.5356 C   0  0  0  0  0  0  0  0  0  0  0  0
    7.1576    5.6724    6.6621 S   0  0  0  0  0  0  0  0  0  0  0  0
    8.4197    5.8176    5.4513 C   0  0  0  0  0  0  0  0  0  0  0  0
    9.8666    6.5284    5.7095 S   0  0  0  0  0  0  0  0  0  0  0  0
    8.0088    5.2655    4.2821 N   0  0  0  0  0  0  0  0  0  0  0  0
    8.8658    5.2121    3.1141 C   0  0  0  0  0  0  0  0  0  0  0  0
    9.8200    4.0266    3.1857 C   0  0  0  0  0  0  0  0  0  0  0  0
    6.7395    4.7124    4.2470 C   0  0  0  0  0  0  0  0  0  0  0  0
    6.2783    4.2026    3.2408 O   0  0  0  0  0  0  0  0  0  0  0  0
    3.8678    3.7322    5.1948 C   0  0  0  0  0  0  0  0  0  0  0  0
    3.9616    3.2478    3.5228 S   0  0  0  0  0  0  0  0  0  0  0  0
    2.3938    2.5226    3.6161 C   0  0  0  0  0  0  0  0  0  0  0  0
    1.7921    1.7851    2.5527 C   0  0  0  0  0  0  0  0  0  0  0  0
    0.5987    1.0660    2.9348 C   0  0  0  0  0  0  0  0  0  0  0  0
   -0.0467    1.1703    4.1749 C   0  0  0  0  0  0  0  0  0  0  0  0
    0.4207    2.1856    5.1979 C   0  0  0  0  0  0  0  0  0  0  0  0
    1.8221    2.6534    4.8781 C   0  0  0  0  0  0  0  0  0  0  0  0
    2.6560    3.3349    5.7539 C   0  0  0  0  0  0  0  0  0  0  0  0
    0.3591    1.5503    6.5755 C   0  0  0  0  0  0  0  0  0  0  0  0
    1.4000    0.7331    6.9985 C   0  0  0  0  0  0  0  0  0  0  0  0
    1.3524    0.1095    8.2309 C   0  0  0  0  0  0  0  0  0  0  0  0
    0.2575    0.2704    9.0696 C   0  0  0  0  0  0  0  0  0  0  0  0
    0.2284   -0.3618   10.4311 C   0  0  0  0  0  0  0  0  0  0  0  0
    0.8129    0.5925   11.4747 C   0  0  0  0  0  0  0  0  0  0  0  0
   -0.7929    1.0665    8.6336 C   0  0  0  0  0  0  0  0  0  0  0  0
   -0.7480    1.6940    7.4022 C   0  0  0  0  0  0  0  0  0  0  0  0
   -0.4243    3.4583    5.0954 C   0  0  0  0  0  0  0  0  0  0  0  0
   -1.1871    3.7364    3.9697 C   0  0  0  0  0  0  0  0  0  0  0  0
   -1.8902    4.9237    3.8699 C   0  0  0  0  0  0  0  0  0  0  0  0
   -1.8465    5.8709    4.8826 C   0  0  0  0  0  0  0  0  0  0  0  0
   -2.6453    7.1386    4.7883 C   0  0  0  0  0  0  0  0  0  0  0  0
   -4.0493    6.9294    5.3592 C   0  0  0  0  0  0  0  0  0  0  0  0
   -1.0774    5.5932    6.0052 C   0  0  0  0  0  0  0  0  0  0  0  0
   -0.3723    4.4100    6.1078 C   0  0  0  0  0  0  0  0  0  0  0  0
   -1.1721    0.3841    4.3885 C   0  0  0  0  0  0  0  0  0  0  0  0
   -1.7039   -0.4824    3.4343 C   0  0  0  0  0  0  0  0  0  0  0  0
   -1.1316   -0.5964    2.1719 C   0  0  0  0  0  0  0  0  0  0  0  0
   -1.6215   -1.4131    1.0553 C   0  0  0  0  0  0  0  0  0  0  0  0
   -0.9449   -1.3542   -0.1915 C   0  0  0  0  0  0  0  0  0  0  0  0
    0.1713   -0.5447   -0.3087 C   0  0  0  0  0  0  0  0  0  0  0  0
    0.9694   -0.2854   -1.4280 C   0  0  0  0  0  0  0  0  0  0  0  0
    1.9402    0.6238   -1.0305 N   0  0  0  0  0  0  0  0  0  0  0  0
    1.7628    0.9248    0.3129 C   0  0  0  0  0  0  0  0  0  0  0  0
    2.3651    1.7348    1.2785 C   0  0  0  0  0  0  0  0  0  0  0  0
    0.6509    0.1975    0.7495 C   0  0  0  0  0  0  0  0  0  0  0  0
    0.0271    0.2030    1.9848 C   0  0  0  0  0  0  0  0  0  0  0  0
    3.0278    1.0935   -1.8501 C   0  0  0  0  0  0  0  0  0  0  0  0
    4.2413    0.1699   -1.7548 C   0  0  0  0  0  0  0  0  0  0  0  0
    0.5677   -0.9191   -2.6054 C   0  0  0  0  0  0  0  0  0  0  0  0
   -0.5482   -1.7606   -2.5585 C   0  0  0  0  0  0  0  0  0  0  0  0
   -1.0855   -2.3650   -3.7310 C   0  0  0  0  0  0  0  0  0  0  0  0
   -2.1480   -3.2582   -3.7334 C   0  0  0  0  0  0  0  0  0  0  0  0
   -2.7750   -3.7849   -2.4661 C   0  0  0  0  0  0  0  0  0  0  0  0
   -2.1906   -5.1631   -2.1395 C   0  0  0  0  0  0  0  0  0  0  0  0
   -1.0037   -5.6044   -2.7093 C   0  0  0  0  0  0  0  0  0  0  0  0
   -0.4804   -6.8414   -2.3787 C   0  0  0  0  0  0  0  0  0  0  0  0
   -1.1180   -7.6701   -1.4671 C   0  0  0  0  0  0  0  0  0  0  0  0
   -0.5230   -8.9937   -1.0817 C   0  0  0  0  0  0  0  0  0  0  0  0
    0.4703   -8.8177    0.0685 C   0  0  0  0  0  0  0  0  0  0  0  0
   -2.2982   -7.2212   -0.8892 C   0  0  0  0  0  0  0  0  0  0  0  0
   -2.8266   -5.9880   -1.2186 C   0  0  0  0  0  0  0  0  0  0  0  0
   -4.2762   -3.8308   -2.7004 C   0  0  0  0  0  0  0  0  0  0  0  0
   -5.0370   -2.6844   -2.5083 C   0  0  0  0  0  0  0  0  0  0  0  0
   -6.3953   -2.6885   -2.7644 C   0  0  0  0  0  0  0  0  0  0  0  0
   -7.0299   -3.8324   -3.2299 C   0  0  0  0  0  0  0  0  0  0  0  0
   -8.4979   -3.8261   -3.5454 C   0  0  0  0  0  0  0  0  0  0  0  0
   -8.7297   -3.4291   -5.0047 C   0  0  0  0  0  0  0  0  0  0  0  0
   -6.2615   -4.9681   -3.4481 C   0  0  0  0  0  0  0  0  0  0  0  0
   -4.9029   -4.9688   -3.1919 C   0  0  0  0  0  0  0  0  0  0  0  0
   -2.4081   -2.9058   -1.2862 C   0  0  0  0  0  0  0  0  0  0  0  0
   -1.3087   -2.0405   -1.3622 C   0  0  0  0  0  0  0  0  0  0  0  0
   -3.0889   -2.9756   -0.0760 C   0  0  0  0  0  0  0  0  0  0  0  0
   -2.7292   -2.2538    1.0606 C   0  0  0  0  0  0  0  0  0  0  0  0
   -2.5186   -3.6417   -5.0206 C   0  0  0  0  0  0  0  0  0  0  0  0
   -1.7388   -3.0871   -6.0210 C   0  0  0  0  0  0  0  0  0  0  0  0
   -0.5437   -2.0110   -5.3368 S   0  0  0  0  0  0  0  0  0  0  0  0
   -1.9235   -3.2607   -7.4079 C   0  0  0  0  0  0  0  0  0  0  0  0
   -1.0835   -2.9417   -8.4322 C   0  0  0  0  0  0  0  0  0  0  0  0
   -1.6334   -2.7418   -9.7978 C   0  0  0  0  0  0  0  0  0  0  0  0
   -2.6789   -3.2124  -10.1958 O   0  0  0  0  0  0  0  0  0  0  0  0
   -0.6244   -1.9304  -10.5130 C   0  0  0  0  0  0  0  0  0  0  0  0
   -0.6344   -1.2596  -11.7406 C   0  0  0  0  0  0  0  0  0  0  0  0
   -1.6578   -1.0501  -12.5846 O   0  0  0  0  0  0  0  0  0  0  0  0
   -2.9993   -1.2030  -12.1680 C   0  0  0  0  0  0  0  0  0  0  0  0
    0.5777   -0.6927  -12.1822 C   0  0  0  0  0  0  0  0  0  0  0  0
    1.7227   -0.7278  -11.4236 C   0  0  0  0  0  0  0  0  0  0  0  0
    1.7255   -1.3306  -10.1691 C   0  0  0  0  0  0  0  0  0  0  0  0
    0.5625   -1.9278   -9.7322 C   0  0  0  0  0  0  0  0  0  0  0  0
    0.3248   -2.6576   -8.4897 C   0  0  0  0  0  0  0  0  0  0  0  0
    1.2863   -3.2124   -7.6822 C   0  0  0  0  0  0  0  0  0  0  0  0
    2.6701   -2.9909   -7.8088 C   0  0  0  0  0  0  0  0  0  0  0  0
    3.8074   -2.8313   -7.8369 N   0  0  0  0  0  0  0  0  0  0  0  0
    0.9898   -4.1543   -6.6755 C   0  0  0  0  0  0  0  0  0  0  0  0
    0.7983   -4.9643   -5.8841 N   0  0  0  0  0  0  0  0  0  0  0  0
    4.5866    4.6219    6.9513 H   0  0  0  0  0  0  0  0  0  0  0  0
    9.4251    6.1491    3.0615 H   0  0  0  0  0  0  0  0  0  0  0  0
    8.2038    5.1189    2.2499 H   0  0  0  0  0  0  0  0  0  0  0  0
    9.2609    3.0959    3.2500 H   0  0  0  0  0  0  0  0  0  0  0  0
   10.4387    4.0032    2.2936 H   0  0  0  0  0  0  0  0  0  0  0  0
   10.4661    4.1151    4.0558 H   0  0  0  0  0  0  0  0  0  0  0  0
    2.4198    3.5302    6.7849 H   0  0  0  0  0  0  0  0  0  0  0  0
    2.2565    0.5832    6.3567 H   0  0  0  0  0  0  0  0  0  0  0  0
    2.1762   -0.5164    8.5435 H   0  0  0  0  0  0  0  0  0  0  0  0
    0.8093   -1.2862   10.4233 H   0  0  0  0  0  0  0  0  0  0  0  0
   -0.8002   -0.6063   10.7043 H   0  0  0  0  0  0  0  0  0  0  0  0
    0.7916    0.1372   12.4620 H   0  0  0  0  0  0  0  0  0  0  0  0
    1.8435    0.8377   11.2275 H   0  0  0  0  0  0  0  0  0  0  0  0
    0.2396    1.5164   11.5057 H   0  0  0  0  0  0  0  0  0  0  0  0
   -1.6615    1.1953    9.2641 H   0  0  0  0  0  0  0  0  0  0  0  0
   -1.5815    2.3053    7.0869 H   0  0  0  0  0  0  0  0  0  0  0  0
   -1.2404    3.0263    3.1584 H   0  0  0  0  0  0  0  0  0  0  0  0
   -2.4782    5.1169    2.9839 H   0  0  0  0  0  0  0  0  0  0  0  0
   -2.7244    7.4488    3.7443 H   0  0  0  0  0  0  0  0  0  0  0  0
   -2.1453    7.9339    5.3445 H   0  0  0  0  0  0  0  0  0  0  0  0
   -4.6293    7.8467    5.2903 H   0  0  0  0  0  0  0  0  0  0  0  0
   -4.5682    6.1475    4.8091 H   0  0  0  0  0  0  0  0  0  0  0  0
   -3.9922    6.6319    6.4040 H   0  0  0  0  0  0  0  0  0  0  0  0
   -1.0243    6.3154    6.8077 H   0  0  0  0  0  0  0  0  0  0  0  0
    0.2165    4.2226    6.9931 H   0  0  0  0  0  0  0  0  0  0  0  0
   -1.6743    0.4542    5.3425 H   0  0  0  0  0  0  0  0  0  0  0  0
   -2.5857   -1.0496    3.6921 H   0  0  0  0  0  0  0  0  0  0  0  0
    3.2540    2.3185    1.0889 H   0  0  0  0  0  0  0  0  0  0  0  0
    3.2975    2.1004   -1.5195 H   0  0  0  0  0  0  0  0  0  0  0  0
    2.6803    1.1488   -2.8855 H   0  0  0  0  0  0  0  0  0  0  0  0
    5.0447    0.5439   -2.3829 H   0  0  0  0  0  0  0  0  0  0  0  0
    4.5951    0.1178   -0.7277 H   0  0  0  0  0  0  0  0  0  0  0  0
    3.9791   -0.8332   -2.0834 H   0  0  0  0  0  0  0  0  0  0  0  0
    1.0706   -0.7774   -3.5517 H   0  0  0  0  0  0  0  0  0  0  0  0
   -0.4752   -5.0002   -3.4301 H   0  0  0  0  0  0  0  0  0  0  0  0
    0.4370   -7.1645   -2.8482 H   0  0  0  0  0  0  0  0  0  0  0  0
   -0.0059   -9.4294   -1.9390 H   0  0  0  0  0  0  0  0  0  0  0  0
   -1.3136   -9.6807   -0.7731 H   0  0  0  0  0  0  0  0  0  0  0  0
   -0.0276   -8.3905    0.9364 H   0  0  0  0  0  0  0  0  0  0  0  0
    1.2748   -8.1481   -0.2269 H   0  0  0  0  0  0  0  0  0  0  0  0
    0.9008   -9.7758    0.3507 H   0  0  0  0  0  0  0  0  0  0  0  0
   -2.8160   -7.8470   -0.1758 H   0  0  0  0  0  0  0  0  0  0  0  0
   -3.7551   -5.6773   -0.7641 H   0  0  0  0  0  0  0  0  0  0  0  0
   -4.5625   -1.7814   -2.1508 H   0  0  0  0  0  0  0  0  0  0  0  0
   -6.9711   -1.7888   -2.5993 H   0  0  0  0  0  0  0  0  0  0  0  0
   -9.0139   -3.1183   -2.8935 H   0  0  0  0  0  0  0  0  0  0  0  0
   -8.9178   -4.8192   -3.3723 H   0  0  0  0  0  0  0  0  0  0  0  0
   -9.7927   -3.4249   -5.2342 H   0  0  0  0  0  0  0  0  0  0  0  0
   -8.2332   -4.1307   -5.6712 H   0  0  0  0  0  0  0  0  0  0  0  0
   -8.3288   -2.4358   -5.1945 H   0  0  0  0  0  0  0  0  0  0  0  0
   -6.7321   -5.8662   -3.8226 H   0  0  0  0  0  0  0  0  0  0  0  0
   -4.3278   -5.8659   -3.3708 H   0  0  0  0  0  0  0  0  0  0  0  0
   -3.9590   -3.6117   -0.0095 H   0  0  0  0  0  0  0  0  0  0  0  0
   -3.3296   -2.3672    1.9508 H   0  0  0  0  0  0  0  0  0  0  0  0
   -3.3161   -4.3302   -5.2354 H   0  0  0  0  0  0  0  0  0  0  0  0
   -2.9073   -3.6116   -7.7051 H   0  0  0  0  0  0  0  0  0  0  0  0
   -3.6004   -0.7892  -12.9762 H   0  0  0  0  0  0  0  0  0  0  0  0
   -3.1861   -0.6428  -11.2472 H   0  0  0  0  0  0  0  0  0  0  0  0
   -3.2634   -2.2486  -12.0046 H   0  0  0  0  0  0  0  0  0  0  0  0
    0.5647   -0.2076  -13.1457 H   0  0  0  0  0  0  0  0  0  0  0  0
    2.6249   -0.2677  -11.7961 H   0  0  0  0  0  0  0  0  0  0  0  0
    2.6156   -1.3240   -9.5627 H   0  0  0  0  0  0  0  0  0  0  0  0
  1  2  2  0  0  0  0
  2  3  1  0  0  0  0
  3  4  1  0  0  0  0
  4  5  2  0  0  0  0
  4  6  1  0  0  0  0
  6  7  1  0  0  0  0
  7  8  1  0  0  0  0
  6  9  1  0  0  0  0
  9 10  2  0  0  0  0
  1 11  1  0  0  0  0
 11 12  1  0  0  0  0
 12 13  1  0  0  0  0
 13 14  1  0  0  0  0
 14 15  2  0  0  0  0
 15 16  1  0  0  0  0
 16 17  1  0  0  0  0
 17 18  1  0  0  0  0
 18 19  1  0  0  0  0
 17 20  1  0  0  0  0
 20 21  2  0  0  0  0
 21 22  1  0  0  0  0
 22 23  2  0  0  0  0
 23 24  1  0  0  0  0
 24 25  1  0  0  0  0
 23 26  1  0  0  0  0
 26 27  2  0  0  0  0
 17 28  1  0  0  0  0
 28 29  2  0  0  0  0
 29 30  1  0  0  0  0
 30 31  2  0  0  0  0
 31 32  1  0  0  0  0
 32 33  1  0  0  0  0
 31 34  1  0  0  0  0
 34 35  2  0  0  0  0
 16 36  2  0  0  0  0
 36 37  1  0  0  0  0
 37 38  2  0  0  0  0
 38 39  1  0  0  0  0
 39 40  1  0  0  0  0
 40 41  2  0  0  0  0
 41 42  1  0  0  0  0
 42 43  1  0  0  0  0
 43 44  1  0  0  0  0
 44 45  2  0  0  0  0
 44 46  1  0  0  0  0
 46 47  2  0  0  0  0
 43 48  1  0  0  0  0
 48 49  1  0  0  0  0
 42 50  2  0  0  0  0
 50 51  1  0  0  0  0
 51 52  1  0  0  0  0
 52 53  2  0  0  0  0
 53 54  1  0  0  0  0
 54 55  1  0  0  0  0
 55 56  2  0  0  0  0
 56 57  1  0  0  0  0
 57 58  2  0  0  0  0
 58 59  1  0  0  0  0
 59 60  1  0  0  0  0
 58 61  1  0  0  0  0
 61 62  2  0  0  0  0
 54 63  1  0  0  0  0
 63 64  2  0  0  0  0
 64 65  1  0  0  0  0
 65 66  2  0  0  0  0
 66 67  1  0  0  0  0
 67 68  1  0  0  0  0
 66 69  1  0  0  0  0
 69 70  2  0  0  0  0
 54 71  1  0  0  0  0
 71 72  1  0  0  0  0
 71 73  2  0  0  0  0
 73 74  1  0  0  0  0
 53 75  1  0  0  0  0
 75 76  2  0  0  0  0
 76 77  1  0  0  0  0
 76 78  1  0  0  0  0
 78 79  2  0  0  0  0
 79 80  1  0  0  0  0
 80 81  2  0  0  0  0
 80 82  1  0  0  0  0
 82 83  2  0  0  0  0
 83 84  1  0  0  0  0
 84 85  1  0  0  0  0
 83 86  1  0  0  0  0
 86 87  2  0  0  0  0
 87 88  1  0  0  0  0
 88 89  2  0  0  0  0
 89 90  1  0  0  0  0
 90 91  2  0  0  0  0
 91 92  1  0  0  0  0
 92 93  3  0  0  0  0
 91 94  1  0  0  0  0
 94 95  3  0  0  0  0
  9  2  1  0  0  0  0
 19 11  2  0  0  0  0
 27 20  1  0  0  0  0
 35 28  1  0  0  0  0
 47 38  1  0  0  0  0
 72 51  2  0  0  0  0
 90 79  1  0  0  0  0
 18 13  2  0  0  0  0
 74 39  2  0  0  0  0
 89 82  1  0  0  0  0
 45 14  1  0  0  0  0
 77 52  1  0  0  0  0
 47 15  1  0  0  0  0
 62 55  1  0  0  0  0
 70 63  1  0  0  0  0
 72 40  1  0  0  0  0
 46 41  1  0  0  0  0
  1 96  1  0  0  0  0
  7 97  1  0  0  0  0
  7 98  1  0  0  0  0
  8 99  1  0  0  0  0
  8100  1  0  0  0  0
  8101  1  0  0  0  0
 19102  1  0  0  0  0
 21103  1  0  0  0  0
 22104  1  0  0  0  0
 24105  1  0  0  0  0
 24106  1  0  0  0  0
 25107  1  0  0  0  0
 25108  1  0  0  0  0
 25109  1  0  0  0  0
 26110  1  0  0  0  0
 27111  1  0  0  0  0
 29112  1  0  0  0  0
 30113  1  0  0  0  0
 32114  1  0  0  0  0
 32115  1  0  0  0  0
 33116  1  0  0  0  0
 33117  1  0  0  0  0
 33118  1  0  0  0  0
 34119  1  0  0  0  0
 35120  1  0  0  0  0
 36121  1  0  0  0  0
 37122  1  0  0  0  0
 45123  1  0  0  0  0
 48124  1  0  0  0  0
 48125  1  0  0  0  0
 49126  1  0  0  0  0
 49127  1  0  0  0  0
 49128  1  0  0  0  0
 50129  1  0  0  0  0
 56130  1  0  0  0  0
 57131  1  0  0  0  0
 59132  1  0  0  0  0
 59133  1  0  0  0  0
 60134  1  0  0  0  0
 60135  1  0  0  0  0
 60136  1  0  0  0  0
 61137  1  0  0  0  0
 62138  1  0  0  0  0
 64139  1  0  0  0  0
 65140  1  0  0  0  0
 67141  1  0  0  0  0
 67142  1  0  0  0  0
 68143  1  0  0  0  0
 68144  1  0  0  0  0
 68145  1  0  0  0  0
 69146  1  0  0  0  0
 70147  1  0  0  0  0
 73148  1  0  0  0  0
 74149  1  0  0  0  0
 75150  1  0  0  0  0
 78151  1  0  0  0  0
 85152  1  0  0  0  0
 85153  1  0  0  0  0
 85154  1  0  0  0  0
 86155  1  0  0  0  0
 87156  1  0  0  0  0
 88157  1  0  0  0  0
M  END
