154

C         -3.39970       -6.83130        6.60640
C         -3.78930       -6.80180        7.91610
S         -3.79610       -8.31190        8.82420
C         -4.30010       -7.50500       10.29420
S         -4.53800       -8.25430       11.72610
N         -4.44880       -6.17740       10.06380
C         -4.87840       -5.26520       11.10560
C         -6.39350       -5.27810       11.26370
C         -4.19950       -5.70800        8.78170
O         -4.31880       -4.52930        8.50250
C         -3.27390       -5.80690        5.65250
S         -2.61990       -6.28750        4.07200
C         -2.70760       -4.66220        3.52460
C         -2.40740       -3.85530        2.43320
S         -1.68230       -3.97450        0.86280
C         -1.83980       -2.25610        0.70330
C         -1.40320       -1.31500       -0.27960
C         -1.76120       -0.03180        0.19120
C         -2.55260       -0.13390        1.49090
C         -1.92260        0.77420        2.52130
C         -2.18100        2.14380        2.50150
C         -1.57140        2.99030        3.39910
C         -0.67240        2.49620        4.34740
O         -0.13620        3.41540        5.18760
C          0.80230        2.99840        6.15990
C          1.24310        4.23200        6.93160
C         -0.39830        1.13350        4.36220
C         -1.01550        0.29140        3.45120
C         -4.03170        0.14240        1.24000
C         -4.61980       -0.29850        0.06250
C         -5.97140       -0.13240       -0.18030
C         -6.78100        0.48180        0.76960
O         -8.12200        0.67970        0.67090
C         -8.80200        0.33650       -0.51990
C         -8.59050        1.35740       -1.63410
C         -6.19430        0.92270        1.95620
C         -4.84590        0.75130        2.18800
C         -2.43450       -1.61540        1.77790
C         -2.76940       -2.52630        2.78680
N         -3.26450       -2.51570        4.06160
C         -3.23940       -3.80620        4.52310
C         -3.55230       -4.44990        5.71250
C         -3.80380       -1.40210        4.79970
C         -5.32970       -1.39920        4.76440
C         -1.34360        1.09850       -0.46890
C         -0.57230        0.91670       -1.61360
C          0.14500        1.85980       -2.41180
C          0.85450        1.22480       -3.41780
C          0.55860       -0.25970       -3.39880
C         -0.28150       -0.36540       -2.12810
C         -0.68680       -1.49640       -1.45990
C          1.84590       -1.05130       -3.26980
C          2.34710       -1.86580       -4.27960
C          3.54620       -2.52860       -4.11870
C          4.29080       -2.39140       -2.94630
O          5.44540       -3.10490       -2.90110
C          6.32960       -2.94970       -1.80800
C          7.13070       -1.65320       -1.88020
C          3.79570       -1.57130       -1.93660
C          2.59050       -0.91560       -2.10580
C         -0.32350       -0.68300       -4.56050
C         -0.86690        0.24730       -5.43990
C         -1.69040       -0.14950       -6.47220
C         -2.00910       -1.49510       -6.65740
O         -2.80330       -1.76610       -7.72670
C         -3.27060       -3.08210       -7.94560
C         -4.41620       -3.46140       -7.01190
C         -1.48710       -2.42810       -5.76700
C         -0.66110       -2.01830       -4.73580
C          1.65730        2.13260       -4.11990
C          1.52770        3.45000       -3.59990
S          0.41110        3.56640       -2.28060
C          2.40700        4.25410       -4.31390
S          3.00640        5.86360       -4.37990
C          4.11400        5.40830       -5.67980
C          3.96830        4.08460       -6.05750
C          3.03800        3.41820       -5.26600
N          2.57760        2.13490       -5.13290
C          3.01010        1.02580       -5.94440
C          2.19630        0.90890       -7.23130
C          4.98380        6.35460       -6.26850
C          5.50950        7.47630       -5.70500
C          6.01780        8.58820       -6.56170
O          6.21510        8.54980       -7.75500
C          6.17400        9.72320       -5.63800
C          6.53680       11.07970       -5.69720
C          6.53340       11.64150       -4.45510
S          6.10620       10.54230       -3.19210
C          5.90340        9.29350       -4.34570
C          5.61170        7.88470       -4.31480
C          5.70620        7.08850       -3.20030
C          5.74890        5.68190       -3.23510
N          5.86050        4.53880       -3.22720
C          5.89080        7.64660       -1.92040
N          6.03170        8.09600       -0.87350
H         -3.12170       -7.81300        6.23840
H         -4.53390       -4.27200       10.80770
H         -4.39600       -5.56690       12.03820
H         -6.87270       -4.99240       10.33010
H         -6.68390       -4.57330       12.03730
H         -6.73370       -6.27030       11.55000
H         -2.87700        2.54860        1.78200
H         -1.77180        4.04990        3.38770
H          1.66640        2.52690        5.67160
H          0.34100        2.26870        6.84030
H          0.38430        4.69880        7.40600
H          1.69640        4.94990        6.25370
H          1.96540        3.95380        7.69350
H          0.29610        0.71240        5.07200
H         -0.77620       -0.76200        3.47430
H         -4.01600       -0.78370       -0.69040
H         -6.37460       -0.49470       -1.11270
H         -8.51810       -0.66980       -0.85190
H         -9.85680        0.31710       -0.23130
H         -9.17840        1.07690       -2.50370
H         -8.90670        2.34090       -1.29590
H         -7.54250        1.41300       -1.91830
H         -6.82420        1.39530        2.69310
H         -4.43080        1.10790        3.11800
H         -3.95180       -3.98770        6.59510
H         -3.40380       -0.48400        4.36660
H         -3.45700       -1.48230        5.83460
H         -5.71780       -2.30910        5.21570
H         -5.68460       -1.33520        3.73840
H         -5.71040       -0.54610        5.31840
H         -1.55730        2.09140       -0.10680
H         -0.42970       -2.48970       -1.79280
H          1.79920       -1.99080       -5.20220
H          3.93360       -3.16500       -4.89860
H          5.78690       -3.02310       -0.85760
H          7.00380       -3.80730       -1.88450
H          7.68780       -1.61610       -2.81290
H          7.82980       -1.60840       -1.04980
H          6.47630       -0.78590       -1.83770
H          4.33260       -1.43300       -1.01190
H          2.22290       -0.28190       -1.31150
H         -0.65390        1.29870       -5.31770
H         -2.10410        0.57300       -7.15810
H         -3.62380       -3.07370       -8.98060
H         -2.44800       -3.80390       -7.86930
H         -4.09360       -3.44630       -5.97360
H         -4.77380       -4.45770       -7.25680
H         -5.23360       -2.75400       -7.12740
H         -1.70980       -3.47920       -5.86150
H         -0.26870       -2.76410       -4.06170
H          4.56140        3.64110       -6.83640
H          2.91900        0.11180       -5.35530
H          4.06620        1.18130       -6.18210
H          2.25150        1.83330       -7.80190
H          1.15380        0.69860       -7.00460
H          2.58870        0.09940       -7.84040
H          5.21670        6.20480       -7.31840
H          6.78810       11.60460       -6.60010
H          6.76860       12.65480       -4.19380
