
  xtb     02012216053D
 energy: -256.747890718531 gnorm: 0.000184095888 xtb: 6.4.1 (unknown)
154169  0     0  0            999 V2000
   -3.3997   -6.8313    6.6064 C   0  0  0  0  0  0  0  0  0  0  0  0
   -3.7893   -6.8018    7.9161 C   0  0  0  0  0  0  0  0  0  0  0  0
   -3.7961   -8.3119    8.8242 S   0  0  0  0  0  0  0  0  0  0  0  0
   -4.3001   -7.5050   10.2942 C   0  0  0  0  0  0  0  0  0  0  0  0
   -4.5380   -8.2543   11.7261 S   0  0  0  0  0  0  0  0  0  0  0  0
   -4.4488   -6.1774   10.0638 N   0  0  0  0  0  0  0  0  0  0  0  0
   -4.8784   -5.2652   11.1056 C   0  0  0  0  0  0  0  0  0  0  0  0
   -6.3935   -5.2781   11.2637 C   0  0  0  0  0  0  0  0  0  0  0  0
   -4.1995   -5.7080    8.7817 C   0  0  0  0  0  0  0  0  0  0  0  0
   -4.3188   -4.5293    8.5025 O   0  0  0  0  0  0  0  0  0  0  0  0
   -3.2739   -5.8069    5.6525 C   0  0  0  0  0  0  0  0  0  0  0  0
   -2.6199   -6.2875    4.0720 S   0  0  0  0  0  0  0  0  0  0  0  0
   -2.7076   -4.6622    3.5246 C   0  0  0  0  0  0  0  0  0  0  0  0
   -2.4074   -3.8553    2.4332 C   0  0  0  0  0  0  0  0  0  0  0  0
   -1.6823   -3.9745    0.8628 S   0  0  0  0  0  0  0  0  0  0  0  0
   -1.8398   -2.2561    0.7033 C   0  0  0  0  0  0  0  0  0  0  0  0
   -1.4032   -1.3150   -0.2796 C   0  0  0  0  0  0  0  0  0  0  0  0
   -1.7612   -0.0318    0.1912 C   0  0  0  0  0  0  0  0  0  0  0  0
   -2.5526   -0.1339    1.4909 C   0  0  0  0  0  0  0  0  0  0  0  0
   -1.9226    0.7742    2.5213 C   0  0  0  0  0  0  0  0  0  0  0  0
   -2.1810    2.1438    2.5015 C   0  0  0  0  0  0  0  0  0  0  0  0
   -1.5714    2.9903    3.3991 C   0  0  0  0  0  0  0  0  0  0  0  0
   -0.6724    2.4962    4.3474 C   0  0  0  0  0  0  0  0  0  0  0  0
   -0.1362    3.4154    5.1876 O   0  0  0  0  0  0  0  0  0  0  0  0
    0.8023    2.9984    6.1599 C   0  0  0  0  0  0  0  0  0  0  0  0
    1.2431    4.2320    6.9316 C   0  0  0  0  0  0  0  0  0  0  0  0
   -0.3983    1.1335    4.3622 C   0  0  0  0  0  0  0  0  0  0  0  0
   -1.0155    0.2914    3.4512 C   0  0  0  0  0  0  0  0  0  0  0  0
   -4.0317    0.1424    1.2400 C   0  0  0  0  0  0  0  0  0  0  0  0
   -4.6198   -0.2985    0.0625 C   0  0  0  0  0  0  0  0  0  0  0  0
   -5.9714   -0.1324   -0.1803 C   0  0  0  0  0  0  0  0  0  0  0  0
   -6.7810    0.4818    0.7696 C   0  0  0  0  0  0  0  0  0  0  0  0
   -8.1220    0.6797    0.6709 O   0  0  0  0  0  0  0  0  0  0  0  0
   -8.8020    0.3365   -0.5199 C   0  0  0  0  0  0  0  0  0  0  0  0
   -8.5905    1.3574   -1.6341 C   0  0  0  0  0  0  0  0  0  0  0  0
   -6.1943    0.9227    1.9562 C   0  0  0  0  0  0  0  0  0  0  0  0
   -4.8459    0.7513    2.1880 C   0  0  0  0  0  0  0  0  0  0  0  0
   -2.4345   -1.6154    1.7779 C   0  0  0  0  0  0  0  0  0  0  0  0
   -2.7694   -2.5263    2.7868 C   0  0  0  0  0  0  0  0  0  0  0  0
   -3.2645   -2.5157    4.0616 N   0  0  0  0  0  0  0  0  0  0  0  0
   -3.2394   -3.8062    4.5231 C   0  0  0  0  0  0  0  0  0  0  0  0
   -3.5523   -4.4499    5.7125 C   0  0  0  0  0  0  0  0  0  0  0  0
   -3.8038   -1.4021    4.7997 C   0  0  0  0  0  0  0  0  0  0  0  0
   -5.3297   -1.3992    4.7644 C   0  0  0  0  0  0  0  0  0  0  0  0
   -1.3436    1.0985   -0.4689 C   0  0  0  0  0  0  0  0  0  0  0  0
   -0.5723    0.9167   -1.6136 C   0  0  0  0  0  0  0  0  0  0  0  0
    0.1450    1.8598   -2.4118 C   0  0  0  0  0  0  0  0  0  0  0  0
    0.8545    1.2248   -3.4178 C   0  0  0  0  0  0  0  0  0  0  0  0
    0.5586   -0.2597   -3.3988 C   0  0  0  0  0  0  0  0  0  0  0  0
   -0.2815   -0.3654   -2.1281 C   0  0  0  0  0  0  0  0  0  0  0  0
   -0.6868   -1.4964   -1.4599 C   0  0  0  0  0  0  0  0  0  0  0  0
    1.8459   -1.0513   -3.2698 C   0  0  0  0  0  0  0  0  0  0  0  0
    2.3471   -1.8658   -4.2796 C   0  0  0  0  0  0  0  0  0  0  0  0
    3.5462   -2.5286   -4.1187 C   0  0  0  0  0  0  0  0  0  0  0  0
    4.2908   -2.3914   -2.9463 C   0  0  0  0  0  0  0  0  0  0  0  0
    5.4454   -3.1049   -2.9011 O   0  0  0  0  0  0  0  0  0  0  0  0
    6.3296   -2.9497   -1.8080 C   0  0  0  0  0  0  0  0  0  0  0  0
    7.1307   -1.6532   -1.8802 C   0  0  0  0  0  0  0  0  0  0  0  0
    3.7957   -1.5713   -1.9366 C   0  0  0  0  0  0  0  0  0  0  0  0
    2.5905   -0.9156   -2.1058 C   0  0  0  0  0  0  0  0  0  0  0  0
   -0.3235   -0.6830   -4.5605 C   0  0  0  0  0  0  0  0  0  0  0  0
   -0.8669    0.2473   -5.4399 C   0  0  0  0  0  0  0  0  0  0  0  0
   -1.6904   -0.1495   -6.4722 C   0  0  0  0  0  0  0  0  0  0  0  0
   -2.0091   -1.4951   -6.6574 C   0  0  0  0  0  0  0  0  0  0  0  0
   -2.8033   -1.7661   -7.7267 O   0  0  0  0  0  0  0  0  0  0  0  0
   -3.2706   -3.0821   -7.9456 C   0  0  0  0  0  0  0  0  0  0  0  0
   -4.4162   -3.4614   -7.0119 C   0  0  0  0  0  0  0  0  0  0  0  0
   -1.4871   -2.4281   -5.7670 C   0  0  0  0  0  0  0  0  0  0  0  0
   -0.6611   -2.0183   -4.7358 C   0  0  0  0  0  0  0  0  0  0  0  0
    1.6573    2.1326   -4.1199 C   0  0  0  0  0  0  0  0  0  0  0  0
    1.5277    3.4500   -3.5999 C   0  0  0  0  0  0  0  0  0  0  0  0
    0.4111    3.5664   -2.2806 S   0  0  0  0  0  0  0  0  0  0  0  0
    2.4070    4.2541   -4.3139 C   0  0  0  0  0  0  0  0  0  0  0  0
    3.0064    5.8636   -4.3799 S   0  0  0  0  0  0  0  0  0  0  0  0
    4.1140    5.4083   -5.6798 C   0  0  0  0  0  0  0  0  0  0  0  0
    3.9683    4.0846   -6.0575 C   0  0  0  0  0  0  0  0  0  0  0  0
    3.0380    3.4182   -5.2660 C   0  0  0  0  0  0  0  0  0  0  0  0
    2.5776    2.1349   -5.1329 N   0  0  0  0  0  0  0  0  0  0  0  0
    3.0101    1.0258   -5.9444 C   0  0  0  0  0  0  0  0  0  0  0  0
    2.1963    0.9089   -7.2313 C   0  0  0  0  0  0  0  0  0  0  0  0
    4.9838    6.3546   -6.2685 C   0  0  0  0  0  0  0  0  0  0  0  0
    5.5095    7.4763   -5.7050 C   0  0  0  0  0  0  0  0  0  0  0  0
    6.0178    8.5882   -6.5617 C   0  0  0  0  0  0  0  0  0  0  0  0
    6.2151    8.5498   -7.7550 O   0  0  0  0  0  0  0  0  0  0  0  0
    6.1740    9.7232   -5.6380 C   0  0  0  0  0  0  0  0  0  0  0  0
    6.5368   11.0797   -5.6972 C   0  0  0  0  0  0  0  0  0  0  0  0
    6.5334   11.6415   -4.4551 C   0  0  0  0  0  0  0  0  0  0  0  0
    6.1062   10.5423   -3.1921 S   0  0  0  0  0  0  0  0  0  0  0  0
    5.9034    9.2935   -4.3457 C   0  0  0  0  0  0  0  0  0  0  0  0
    5.6117    7.8847   -4.3148 C   0  0  0  0  0  0  0  0  0  0  0  0
    5.7062    7.0885   -3.2003 C   0  0  0  0  0  0  0  0  0  0  0  0
    5.7489    5.6819   -3.2351 C   0  0  0  0  0  0  0  0  0  0  0  0
    5.8605    4.5388   -3.2272 N   0  0  0  0  0  0  0  0  0  0  0  0
    5.8908    7.6466   -1.9204 C   0  0  0  0  0  0  0  0  0  0  0  0
    6.0317    8.0960   -0.8735 N   0  0  0  0  0  0  0  0  0  0  0  0
   -3.1217   -7.8130    6.2384 H   0  0  0  0  0  0  0  0  0  0  0  0
   -4.5339   -4.2720   10.8077 H   0  0  0  0  0  0  0  0  0  0  0  0
   -4.3960   -5.5669   12.0382 H   0  0  0  0  0  0  0  0  0  0  0  0
   -6.8727   -4.9924   10.3301 H   0  0  0  0  0  0  0  0  0  0  0  0
   -6.6839   -4.5733   12.0373 H   0  0  0  0  0  0  0  0  0  0  0  0
   -6.7337   -6.2703   11.5500 H   0  0  0  0  0  0  0  0  0  0  0  0
   -2.8770    2.5486    1.7820 H   0  0  0  0  0  0  0  0  0  0  0  0
   -1.7718    4.0499    3.3877 H   0  0  0  0  0  0  0  0  0  0  0  0
    1.6664    2.5269    5.6716 H   0  0  0  0  0  0  0  0  0  0  0  0
    0.3410    2.2687    6.8403 H   0  0  0  0  0  0  0  0  0  0  0  0
    0.3843    4.6988    7.4060 H   0  0  0  0  0  0  0  0  0  0  0  0
    1.6964    4.9499    6.2537 H   0  0  0  0  0  0  0  0  0  0  0  0
    1.9654    3.9538    7.6935 H   0  0  0  0  0  0  0  0  0  0  0  0
    0.2961    0.7124    5.0720 H   0  0  0  0  0  0  0  0  0  0  0  0
   -0.7762   -0.7620    3.4743 H   0  0  0  0  0  0  0  0  0  0  0  0
   -4.0160   -0.7837   -0.6904 H   0  0  0  0  0  0  0  0  0  0  0  0
   -6.3746   -0.4947   -1.1127 H   0  0  0  0  0  0  0  0  0  0  0  0
   -8.5181   -0.6698   -0.8519 H   0  0  0  0  0  0  0  0  0  0  0  0
   -9.8568    0.3171   -0.2313 H   0  0  0  0  0  0  0  0  0  0  0  0
   -9.1784    1.0769   -2.5037 H   0  0  0  0  0  0  0  0  0  0  0  0
   -8.9067    2.3409   -1.2959 H   0  0  0  0  0  0  0  0  0  0  0  0
   -7.5425    1.4130   -1.9183 H   0  0  0  0  0  0  0  0  0  0  0  0
   -6.8242    1.3953    2.6931 H   0  0  0  0  0  0  0  0  0  0  0  0
   -4.4308    1.1079    3.1180 H   0  0  0  0  0  0  0  0  0  0  0  0
   -3.9518   -3.9877    6.5951 H   0  0  0  0  0  0  0  0  0  0  0  0
   -3.4038   -0.4840    4.3666 H   0  0  0  0  0  0  0  0  0  0  0  0
   -3.4570   -1.4823    5.8346 H   0  0  0  0  0  0  0  0  0  0  0  0
   -5.7178   -2.3091    5.2157 H   0  0  0  0  0  0  0  0  0  0  0  0
   -5.6846   -1.3352    3.7384 H   0  0  0  0  0  0  0  0  0  0  0  0
   -5.7104   -0.5461    5.3184 H   0  0  0  0  0  0  0  0  0  0  0  0
   -1.5573    2.0914   -0.1068 H   0  0  0  0  0  0  0  0  0  0  0  0
   -0.4297   -2.4897   -1.7928 H   0  0  0  0  0  0  0  0  0  0  0  0
    1.7992   -1.9908   -5.2022 H   0  0  0  0  0  0  0  0  0  0  0  0
    3.9336   -3.1650   -4.8986 H   0  0  0  0  0  0  0  0  0  0  0  0
    5.7869   -3.0231   -0.8576 H   0  0  0  0  0  0  0  0  0  0  0  0
    7.0038   -3.8073   -1.8845 H   0  0  0  0  0  0  0  0  0  0  0  0
    7.6878   -1.6161   -2.8129 H   0  0  0  0  0  0  0  0  0  0  0  0
    7.8298   -1.6084   -1.0498 H   0  0  0  0  0  0  0  0  0  0  0  0
    6.4763   -0.7859   -1.8377 H   0  0  0  0  0  0  0  0  0  0  0  0
    4.3326   -1.4330   -1.0119 H   0  0  0  0  0  0  0  0  0  0  0  0
    2.2229   -0.2819   -1.3115 H   0  0  0  0  0  0  0  0  0  0  0  0
   -0.6539    1.2987   -5.3177 H   0  0  0  0  0  0  0  0  0  0  0  0
   -2.1041    0.5730   -7.1581 H   0  0  0  0  0  0  0  0  0  0  0  0
   -3.6238   -3.0737   -8.9806 H   0  0  0  0  0  0  0  0  0  0  0  0
   -2.4480   -3.8039   -7.8693 H   0  0  0  0  0  0  0  0  0  0  0  0
   -4.0936   -3.4463   -5.9736 H   0  0  0  0  0  0  0  0  0  0  0  0
   -4.7738   -4.4577   -7.2568 H   0  0  0  0  0  0  0  0  0  0  0  0
   -5.2336   -2.7540   -7.1274 H   0  0  0  0  0  0  0  0  0  0  0  0
   -1.7098   -3.4792   -5.8615 H   0  0  0  0  0  0  0  0  0  0  0  0
   -0.2687   -2.7641   -4.0617 H   0  0  0  0  0  0  0  0  0  0  0  0
    4.5614    3.6411   -6.8364 H   0  0  0  0  0  0  0  0  0  0  0  0
    2.9190    0.1118   -5.3553 H   0  0  0  0  0  0  0  0  0  0  0  0
    4.0662    1.1813   -6.1821 H   0  0  0  0  0  0  0  0  0  0  0  0
    2.2515    1.8333   -7.8019 H   0  0  0  0  0  0  0  0  0  0  0  0
    1.1538    0.6986   -7.0046 H   0  0  0  0  0  0  0  0  0  0  0  0
    2.5887    0.0994   -7.8404 H   0  0  0  0  0  0  0  0  0  0  0  0
    5.2167    6.2048   -7.3184 H   0  0  0  0  0  0  0  0  0  0  0  0
    6.7881   11.6046   -6.6001 H   0  0  0  0  0  0  0  0  0  0  0  0
    6.7686   12.6548   -4.1938 H   0  0  0  0  0  0  0  0  0  0  0  0
  1  2  2  0  0  0  0
  2  3  1  0  0  0  0
  3  4  1  0  0  0  0
  4  5  2  0  0  0  0
  4  6  1  0  0  0  0
  6  7  1  0  0  0  0
  7  8  1  0  0  0  0
  6  9  1  0  0  0  0
  9 10  2  0  0  0  0
  1 11  1  0  0  0  0
 11 12  1  0  0  0  0
 12 13  1  0  0  0  0
 13 14  1  0  0  0  0
 14 15  1  0  0  0  0
 15 16  1  0  0  0  0
 16 17  1  0  0  0  0
 17 18  2  0  0  0  0
 18 19  1  0  0  0  0
 19 20  1  0  0  0  0
 20 21  2  0  0  0  0
 21 22  1  0  0  0  0
 22 23  2  0  0  0  0
 23 24  1  0  0  0  0
 24 25  1  0  0  0  0
 25 26  1  0  0  0  0
 23 27  1  0  0  0  0
 27 28  2  0  0  0  0
 19 29  1  0  0  0  0
 29 30  2  0  0  0  0
 30 31  1  0  0  0  0
 31 32  2  0  0  0  0
 32 33  1  0  0  0  0
 33 34  1  0  0  0  0
 34 35  1  0  0  0  0
 32 36  1  0  0  0  0
 36 37  2  0  0  0  0
 19 38  1  0  0  0  0
 38 39  1  0  0  0  0
 39 40  1  0  0  0  0
 40 41  1  0  0  0  0
 41 42  1  0  0  0  0
 40 43  1  0  0  0  0
 43 44  1  0  0  0  0
 18 45  1  0  0  0  0
 45 46  2  0  0  0  0
 46 47  1  0  0  0  0
 47 48  2  0  0  0  0
 48 49  1  0  0  0  0
 49 50  1  0  0  0  0
 50 51  2  0  0  0  0
 49 52  1  0  0  0  0
 52 53  2  0  0  0  0
 53 54  1  0  0  0  0
 54 55  2  0  0  0  0
 55 56  1  0  0  0  0
 56 57  1  0  0  0  0
 57 58  1  0  0  0  0
 55 59  1  0  0  0  0
 59 60  2  0  0  0  0
 49 61  1  0  0  0  0
 61 62  2  0  0  0  0
 62 63  1  0  0  0  0
 63 64  2  0  0  0  0
 64 65  1  0  0  0  0
 65 66  1  0  0  0  0
 66 67  1  0  0  0  0
 64 68  1  0  0  0  0
 68 69  2  0  0  0  0
 48 70  1  0  0  0  0
 70 71  2  0  0  0  0
 71 72  1  0  0  0  0
 71 73  1  0  0  0  0
 73 74  1  0  0  0  0
 74 75  1  0  0  0  0
 75 76  2  0  0  0  0
 76 77  1  0  0  0  0
 77 78  1  0  0  0  0
 78 79  1  0  0  0  0
 79 80  1  0  0  0  0
 75 81  1  0  0  0  0
 81 82  2  0  0  0  0
 82 83  1  0  0  0  0
 83 84  2  0  0  0  0
 83 85  1  0  0  0  0
 85 86  1  0  0  0  0
 86 87  2  0  0  0  0
 87 88  1  0  0  0  0
 88 89  1  0  0  0  0
 89 90  1  0  0  0  0
 90 91  2  0  0  0  0
 91 92  1  0  0  0  0
 92 93  3  0  0  0  0
 91 94  1  0  0  0  0
 94 95  3  0  0  0  0
  9  2  1  0  0  0  0
 42 11  2  0  0  0  0
 50 46  1  0  0  0  0
 60 52  1  0  0  0  0
 69 61  1  0  0  0  0
 78 70  1  0  0  0  0
 90 82  1  0  0  0  0
 41 13  2  0  0  0  0
 72 47  1  0  0  0  0
 77 73  2  0  0  0  0
 89 85  2  0  0  0  0
 39 14  2  0  0  0  0
 38 16  2  0  0  0  0
 51 17  1  0  0  0  0
 28 20  1  0  0  0  0
 37 29  1  0  0  0  0
  1 96  1  0  0  0  0
  7 97  1  0  0  0  0
  7 98  1  0  0  0  0
  8 99  1  0  0  0  0
  8100  1  0  0  0  0
  8101  1  0  0  0  0
 21102  1  0  0  0  0
 22103  1  0  0  0  0
 25104  1  0  0  0  0
 25105  1  0  0  0  0
 26106  1  0  0  0  0
 26107  1  0  0  0  0
 26108  1  0  0  0  0
 27109  1  0  0  0  0
 28110  1  0  0  0  0
 30111  1  0  0  0  0
 31112  1  0  0  0  0
 34113  1  0  0  0  0
 34114  1  0  0  0  0
 35115  1  0  0  0  0
 35116  1  0  0  0  0
 35117  1  0  0  0  0
 36118  1  0  0  0  0
 37119  1  0  0  0  0
 42120  1  0  0  0  0
 43121  1  0  0  0  0
 43122  1  0  0  0  0
 44123  1  0  0  0  0
 44124  1  0  0  0  0
 44125  1  0  0  0  0
 45126  1  0  0  0  0
 51127  1  0  0  0  0
 53128  1  0  0  0  0
 54129  1  0  0  0  0
 57130  1  0  0  0  0
 57131  1  0  0  0  0
 58132  1  0  0  0  0
 58133  1  0  0  0  0
 58134  1  0  0  0  0
 59135  1  0  0  0  0
 60136  1  0  0  0  0
 62137  1  0  0  0  0
 63138  1  0  0  0  0
 66139  1  0  0  0  0
 66140  1  0  0  0  0
 67141  1  0  0  0  0
 67142  1  0  0  0  0
 67143  1  0  0  0  0
 68144  1  0  0  0  0
 69145  1  0  0  0  0
 76146  1  0  0  0  0
 79147  1  0  0  0  0
 79148  1  0  0  0  0
 80149  1  0  0  0  0
 80150  1  0  0  0  0
 80151  1  0  0  0  0
 81152  1  0  0  0  0
 86153  1  0  0  0  0
 87154  1  0  0  0  0
M  END
