
  xtb     02022201293D
 energy: -173.142952451062 gnorm: 0.000611295573 xtb: 6.4.1 (unknown)
 98109  0     0  0            999 V2000
    4.6917    3.0543   -6.2883 C   0  0  0  0  0  0  0  0  0  0  0  0
    5.8434    3.7231   -6.5360 C   0  0  0  0  0  0  0  0  0  0  0  0
    7.4479    3.4395   -5.8970 S   0  0  0  0  0  0  0  0  0  0  0  0
    8.0698    4.8977   -6.6652 C   0  0  0  0  0  0  0  0  0  0  0  0
    9.6195    5.3909   -6.5486 S   0  0  0  0  0  0  0  0  0  0  0  0
    7.0896    5.5213   -7.3648 N   0  0  0  0  0  0  0  0  0  0  0  0
    7.3182    6.7673   -8.0710 C   0  0  0  0  0  0  0  0  0  0  0  0
    7.2436    7.9591   -7.1250 C   0  0  0  0  0  0  0  0  0  0  0  0
    5.8318    4.9444   -7.3468 C   0  0  0  0  0  0  0  0  0  0  0  0
    4.8735    5.4047   -7.9263 O   0  0  0  0  0  0  0  0  0  0  0  0
    4.4455    1.9070   -5.4906 C   0  0  0  0  0  0  0  0  0  0  0  0
    5.2010    0.7853   -5.1910 C   0  0  0  0  0  0  0  0  0  0  0  0
    6.4783    0.4043   -5.8669 C   0  0  0  0  0  0  0  0  0  0  0  0
    6.4035   -0.9934   -6.4818 C   0  0  0  0  0  0  0  0  0  0  0  0
    4.5435   -0.0303   -4.2526 C   0  0  0  0  0  0  0  0  0  0  0  0
    4.9925   -1.5145   -3.4386 S   0  0  0  0  0  0  0  0  0  0  0  0
    3.5008   -1.4727   -2.5654 C   0  0  0  0  0  0  0  0  0  0  0  0
    2.7999   -2.2268   -1.6090 C   0  0  0  0  0  0  0  0  0  0  0  0
    3.0635   -3.4812   -1.0146 C   0  0  0  0  0  0  0  0  0  0  0  0
    2.0925   -4.0455   -0.1188 C   0  0  0  0  0  0  0  0  0  0  0  0
    2.4441   -5.2455    0.3144 N   0  0  0  0  0  0  0  0  0  0  0  0
    3.8727   -5.6319   -0.3409 S   0  0  0  0  0  0  0  0  0  0  0  0
    4.1000   -4.2820   -1.2050 N   0  0  0  0  0  0  0  0  0  0  0  0
    0.9687   -3.2715    0.2499 C   0  0  0  0  0  0  0  0  0  0  0  0
   -0.0127   -3.4606    1.2328 C   0  0  0  0  0  0  0  0  0  0  0  0
   -0.4901   -4.6567    2.3867 S   0  0  0  0  0  0  0  0  0  0  0  0
   -1.7033   -3.5432    2.9910 C   0  0  0  0  0  0  0  0  0  0  0  0
   -2.6392   -3.6471    4.0115 C   0  0  0  0  0  0  0  0  0  0  0  0
   -2.7544   -4.8569    4.8801 C   0  0  0  0  0  0  0  0  0  0  0  0
   -1.9122   -4.6958    6.1487 C   0  0  0  0  0  0  0  0  0  0  0  0
   -3.3906   -2.4662    4.1399 C   0  0  0  0  0  0  0  0  0  0  0  0
   -2.9143   -1.2458    2.9589 S   0  0  0  0  0  0  0  0  0  0  0  0
   -1.7235   -2.3117    2.3142 C   0  0  0  0  0  0  0  0  0  0  0  0
   -0.7620   -2.2780    1.3005 C   0  0  0  0  0  0  0  0  0  0  0  0
   -0.2993   -1.3816    0.3726 N   0  0  0  0  0  0  0  0  0  0  0  0
    0.7499   -1.9749   -0.2982 C   0  0  0  0  0  0  0  0  0  0  0  0
    1.5956   -1.5200   -1.3396 C   0  0  0  0  0  0  0  0  0  0  0  0
    1.5391   -0.4011   -2.1551 N   0  0  0  0  0  0  0  0  0  0  0  0
    2.6989   -0.3745   -2.8875 C   0  0  0  0  0  0  0  0  0  0  0  0
    3.2890    0.4451   -3.8539 C   0  0  0  0  0  0  0  0  0  0  0  0
    2.8816    1.9061   -4.6683 S   0  0  0  0  0  0  0  0  0  0  0  0
    0.3653    0.2520   -2.6950 C   0  0  0  0  0  0  0  0  0  0  0  0
   -0.0643   -0.3919   -4.0132 C   0  0  0  0  0  0  0  0  0  0  0  0
   -0.6600    0.0168    0.4613 C   0  0  0  0  0  0  0  0  0  0  0  0
   -2.0681    0.2914   -0.0676 C   0  0  0  0  0  0  0  0  0  0  0  0
   -4.3912   -2.2995    5.1033 C   0  0  0  0  0  0  0  0  0  0  0  0
   -5.2097   -1.2324    5.3797 C   0  0  0  0  0  0  0  0  0  0  0  0
   -5.2304    0.0527    4.6763 C   0  0  0  0  0  0  0  0  0  0  0  0
   -4.5287    0.3818    3.7312 O   0  0  0  0  0  0  0  0  0  0  0  0
   -6.2681    0.8656    5.3308 C   0  0  0  0  0  0  0  0  0  0  0  0
   -6.8428    0.1282    6.3646 C   0  0  0  0  0  0  0  0  0  0  0  0
   -7.8619    0.6858    7.1479 C   0  0  0  0  0  0  0  0  0  0  0  0
   -8.2833    1.9615    6.8743 C   0  0  0  0  0  0  0  0  0  0  0  0
   -7.7243    2.7298    5.8308 C   0  0  0  0  0  0  0  0  0  0  0  0
   -8.1681    4.0390    5.5531 C   0  0  0  0  0  0  0  0  0  0  0  0
   -7.6102    4.7631    4.5360 C   0  0  0  0  0  0  0  0  0  0  0  0
   -6.5832    4.2143    3.7510 C   0  0  0  0  0  0  0  0  0  0  0  0
   -6.1258    2.9480    3.9892 C   0  0  0  0  0  0  0  0  0  0  0  0
   -6.6835    2.1768    5.0297 C   0  0  0  0  0  0  0  0  0  0  0  0
   -6.2129   -1.1903    6.4237 C   0  0  0  0  0  0  0  0  0  0  0  0
   -6.5382   -2.1854    7.3103 C   0  0  0  0  0  0  0  0  0  0  0  0
   -5.9438   -3.4630    7.3716 C   0  0  0  0  0  0  0  0  0  0  0  0
   -5.5198   -4.5249    7.4891 N   0  0  0  0  0  0  0  0  0  0  0  0
   -7.5320   -2.0789    8.3059 C   0  0  0  0  0  0  0  0  0  0  0  0
   -8.3223   -2.0746    9.1389 N   0  0  0  0  0  0  0  0  0  0  0  0
    3.8096    3.5384   -6.6983 H   0  0  0  0  0  0  0  0  0  0  0  0
    8.3025    6.7148   -8.5423 H   0  0  0  0  0  0  0  0  0  0  0  0
    6.5386    6.8353   -8.8335 H   0  0  0  0  0  0  0  0  0  0  0  0
    8.0119    7.8827   -6.3592 H   0  0  0  0  0  0  0  0  0  0  0  0
    7.3997    8.8765   -7.6845 H   0  0  0  0  0  0  0  0  0  0  0  0
    6.2672    8.0014   -6.6476 H   0  0  0  0  0  0  0  0  0  0  0  0
    6.6947    1.1207   -6.6574 H   0  0  0  0  0  0  0  0  0  0  0  0
    7.2939    0.4375   -5.1401 H   0  0  0  0  0  0  0  0  0  0  0  0
    5.5705   -1.0567   -7.1787 H   0  0  0  0  0  0  0  0  0  0  0  0
    7.3228   -1.2020   -7.0225 H   0  0  0  0  0  0  0  0  0  0  0  0
    6.2762   -1.7538   -5.7167 H   0  0  0  0  0  0  0  0  0  0  0  0
   -3.7924   -5.0466    5.1565 H   0  0  0  0  0  0  0  0  0  0  0  0
   -2.3877   -5.7172    4.3166 H   0  0  0  0  0  0  0  0  0  0  0  0
   -1.9989   -5.5869    6.7636 H   0  0  0  0  0  0  0  0  0  0  0  0
   -0.8659   -4.5479    5.8914 H   0  0  0  0  0  0  0  0  0  0  0  0
   -2.2521   -3.8419    6.7300 H   0  0  0  0  0  0  0  0  0  0  0  0
    0.6103    1.3060   -2.8585 H   0  0  0  0  0  0  0  0  0  0  0  0
   -0.4532    0.1785   -1.9895 H   0  0  0  0  0  0  0  0  0  0  0  0
   -0.2818   -1.4475   -3.8630 H   0  0  0  0  0  0  0  0  0  0  0  0
   -0.9582    0.1006   -4.3855 H   0  0  0  0  0  0  0  0  0  0  0  0
    0.7167   -0.3015   -4.7632 H   0  0  0  0  0  0  0  0  0  0  0  0
   -0.6286    0.3017    1.5189 H   0  0  0  0  0  0  0  0  0  0  0  0
    0.0948    0.6060   -0.0616 H   0  0  0  0  0  0  0  0  0  0  0  0
   -2.2234    1.3631   -0.1530 H   0  0  0  0  0  0  0  0  0  0  0  0
   -2.2306   -0.1678   -1.0405 H   0  0  0  0  0  0  0  0  0  0  0  0
   -2.8106   -0.1059    0.6183 H   0  0  0  0  0  0  0  0  0  0  0  0
   -4.5252   -3.1700    5.7304 H   0  0  0  0  0  0  0  0  0  0  0  0
   -8.3117    0.1290    7.9527 H   0  0  0  0  0  0  0  0  0  0  0  0
   -9.0688    2.4032    7.4704 H   0  0  0  0  0  0  0  0  0  0  0  0
   -8.9581    4.4586    6.1591 H   0  0  0  0  0  0  0  0  0  0  0  0
   -7.9566    5.7650    4.3291 H   0  0  0  0  0  0  0  0  0  0  0  0
   -6.1557    4.8041    2.9537 H   0  0  0  0  0  0  0  0  0  0  0  0
   -5.3379    2.5166    3.3924 H   0  0  0  0  0  0  0  0  0  0  0  0
  1  2  2  0  0  0  0
  2  3  1  0  0  0  0
  3  4  1  0  0  0  0
  4  5  2  0  0  0  0
  4  6  1  0  0  0  0
  6  7  1  0  0  0  0
  7  8  1  0  0  0  0
  6  9  1  0  0  0  0
  9 10  2  0  0  0  0
  1 11  1  0  0  0  0
 11 12  2  0  0  0  0
 12 13  1  0  0  0  0
 13 14  1  0  0  0  0
 12 15  1  0  0  0  0
 15 16  1  0  0  0  0
 16 17  1  0  0  0  0
 17 18  1  0  0  0  0
 18 19  1  0  0  0  0
 19 20  1  0  0  0  0
 20 21  2  0  0  0  0
 21 22  1  0  0  0  0
 22 23  1  0  0  0  0
 20 24  1  0  0  0  0
 24 25  1  0  0  0  0
 25 26  1  0  0  0  0
 26 27  1  0  0  0  0
 27 28  1  0  0  0  0
 28 29  1  0  0  0  0
 29 30  1  0  0  0  0
 28 31  2  0  0  0  0
 31 32  1  0  0  0  0
 32 33  1  0  0  0  0
 33 34  1  0  0  0  0
 34 35  1  0  0  0  0
 35 36  1  0  0  0  0
 36 37  1  0  0  0  0
 37 38  1  0  0  0  0
 38 39  1  0  0  0  0
 39 40  1  0  0  0  0
 40 41  1  0  0  0  0
 38 42  1  0  0  0  0
 42 43  1  0  0  0  0
 35 44  1  0  0  0  0
 44 45  1  0  0  0  0
 31 46  1  0  0  0  0
 46 47  2  0  0  0  0
 47 48  1  0  0  0  0
 48 49  2  0  0  0  0
 48 50  1  0  0  0  0
 50 51  2  0  0  0  0
 51 52  1  0  0  0  0
 52 53  2  0  0  0  0
 53 54  1  0  0  0  0
 54 55  2  0  0  0  0
 55 56  1  0  0  0  0
 56 57  2  0  0  0  0
 57 58  1  0  0  0  0
 58 59  2  0  0  0  0
 51 60  1  0  0  0  0
 60 61  2  0  0  0  0
 61 62  1  0  0  0  0
 62 63  3  0  0  0  0
 61 64  1  0  0  0  0
 64 65  3  0  0  0  0
  9  2  1  0  0  0  0
 41 11  1  0  0  0  0
 60 47  1  0  0  0  0
 40 15  2  0  0  0  0
 59 50  1  0  0  0  0
 39 17  2  0  0  0  0
 59 54  1  0  0  0  0
 37 18  2  0  0  0  0
 23 19  2  0  0  0  0
 36 24  2  0  0  0  0
 34 25  2  0  0  0  0
 33 27  2  0  0  0  0
  1 66  1  0  0  0  0
  7 67  1  0  0  0  0
  7 68  1  0  0  0  0
  8 69  1  0  0  0  0
  8 70  1  0  0  0  0
  8 71  1  0  0  0  0
 13 72  1  0  0  0  0
 13 73  1  0  0  0  0
 14 74  1  0  0  0  0
 14 75  1  0  0  0  0
 14 76  1  0  0  0  0
 29 77  1  0  0  0  0
 29 78  1  0  0  0  0
 30 79  1  0  0  0  0
 30 80  1  0  0  0  0
 30 81  1  0  0  0  0
 42 82  1  0  0  0  0
 42 83  1  0  0  0  0
 43 84  1  0  0  0  0
 43 85  1  0  0  0  0
 43 86  1  0  0  0  0
 44 87  1  0  0  0  0
 44 88  1  0  0  0  0
 45 89  1  0  0  0  0
 45 90  1  0  0  0  0
 45 91  1  0  0  0  0
 46 92  1  0  0  0  0
 52 93  1  0  0  0  0
 53 94  1  0  0  0  0
 55 95  1  0  0  0  0
 56 96  1  0  0  0  0
 57 97  1  0  0  0  0
 58 98  1  0  0  0  0
M  END
