
  xtb     02012215073D
 energy: -171.820498223101 gnorm: 0.000704266257 xtb: 6.4.1 (unknown)
 92102  0     0  0            999 V2000
    6.5502    2.3838    3.2163 C   0  0  0  0  0  0  0  0  0  0  0  0
    7.5699    2.5251    4.0997 C   0  0  0  0  0  0  0  0  0  0  0  0
    7.5901    2.5684    5.8465 S   0  0  0  0  0  0  0  0  0  0  0  0
    9.3473    2.6472    5.8881 C   0  0  0  0  0  0  0  0  0  0  0  0
   10.2165    2.7184    7.2661 S   0  0  0  0  0  0  0  0  0  0  0  0
    9.8499    2.6564    4.6292 N   0  0  0  0  0  0  0  0  0  0  0  0
   11.2754    2.6992    4.3660 C   0  0  0  0  0  0  0  0  0  0  0  0
   11.8960    1.3111    4.4556 C   0  0  0  0  0  0  0  0  0  0  0  0
    8.9442    2.5861    3.5865 C   0  0  0  0  0  0  0  0  0  0  0  0
    9.2666    2.5807    2.4191 O   0  0  0  0  0  0  0  0  0  0  0  0
    5.1454    2.2573    3.3322 C   0  0  0  0  0  0  0  0  0  0  0  0
    4.2060    2.5462    4.3114 C   0  0  0  0  0  0  0  0  0  0  0  0
    4.4322    3.1927    5.6377 C   0  0  0  0  0  0  0  0  0  0  0  0
    4.3726    2.1635    6.7678 C   0  0  0  0  0  0  0  0  0  0  0  0
    2.9131    2.1948    3.8944 C   0  0  0  0  0  0  0  0  0  0  0  0
    1.3576    2.3259    4.6855 S   0  0  0  0  0  0  0  0  0  0  0  0
    0.6138    1.6467    3.2803 C   0  0  0  0  0  0  0  0  0  0  0  0
   -0.6672    1.3300    2.8037 C   0  0  0  0  0  0  0  0  0  0  0  0
   -1.9454    1.5578    3.3604 C   0  0  0  0  0  0  0  0  0  0  0  0
   -3.1069    1.2480    2.5791 C   0  0  0  0  0  0  0  0  0  0  0  0
   -4.2323    1.5695    3.1974 N   0  0  0  0  0  0  0  0  0  0  0  0
   -3.8627    2.2022    4.6405 S   0  0  0  0  0  0  0  0  0  0  0  0
   -2.2516    2.0921    4.5321 N   0  0  0  0  0  0  0  0  0  0  0  0
   -2.9378    0.6086    1.3308 C   0  0  0  0  0  0  0  0  0  0  0  0
   -3.8716    0.0611    0.4427 C   0  0  0  0  0  0  0  0  0  0  0  0
   -5.5862   -0.0829    0.2732 S   0  0  0  0  0  0  0  0  0  0  0  0
   -5.3295   -1.0628   -1.1595 C   0  0  0  0  0  0  0  0  0  0  0  0
   -6.2078   -1.6827   -2.0344 C   0  0  0  0  0  0  0  0  0  0  0  0
   -7.6894   -1.6514   -1.8518 C   0  0  0  0  0  0  0  0  0  0  0  0
   -8.1681   -2.8938   -1.0948 C   0  0  0  0  0  0  0  0  0  0  0  0
   -5.5180   -2.3768   -3.0484 C   0  0  0  0  0  0  0  0  0  0  0  0
   -3.7664   -2.2267   -2.8815 S   0  0  0  0  0  0  0  0  0  0  0  0
   -3.9706   -1.2538   -1.4753 C   0  0  0  0  0  0  0  0  0  0  0  0
   -3.1463   -0.5994   -0.5584 C   0  0  0  0  0  0  0  0  0  0  0  0
   -1.8033   -0.4596   -0.3278 N   0  0  0  0  0  0  0  0  0  0  0  0
   -1.6437    0.2995    0.8126 C   0  0  0  0  0  0  0  0  0  0  0  0
   -0.4994    0.7804    1.5006 C   0  0  0  0  0  0  0  0  0  0  0  0
    0.8520    0.8016    1.1842 N   0  0  0  0  0  0  0  0  0  0  0  0
    1.5161    1.3322    2.2599 C   0  0  0  0  0  0  0  0  0  0  0  0
    2.8327    1.6546    2.6061 C   0  0  0  0  0  0  0  0  0  0  0  0
    4.3892    1.5883    1.8757 S   0  0  0  0  0  0  0  0  0  0  0  0
    1.4874    0.8905   -0.1140 C   0  0  0  0  0  0  0  0  0  0  0  0
    1.1799    2.2304   -0.7792 C   0  0  0  0  0  0  0  0  0  0  0  0
   -0.8673   -1.3015   -1.0381 C   0  0  0  0  0  0  0  0  0  0  0  0
   -0.5548   -0.7669   -2.4350 C   0  0  0  0  0  0  0  0  0  0  0  0
   -6.1671   -3.0902   -4.0559 C   0  0  0  0  0  0  0  0  0  0  0  0
   -5.6708   -3.8181   -5.1148 C   0  0  0  0  0  0  0  0  0  0  0  0
   -4.2602   -4.0112   -5.4455 C   0  0  0  0  0  0  0  0  0  0  0  0
   -3.2842   -3.5791   -4.8570 O   0  0  0  0  0  0  0  0  0  0  0  0
   -4.2376   -4.8462   -6.6652 C   0  0  0  0  0  0  0  0  0  0  0  0
   -3.1438   -5.3004   -7.3724 C   0  0  0  0  0  0  0  0  0  0  0  0
   -3.3679   -6.0778   -8.5026 C   0  0  0  0  0  0  0  0  0  0  0  0
   -2.0501   -6.6771   -9.4316 Cl  0  0  0  0  0  0  0  0  0  0  0  0
   -4.6794   -6.3708   -8.8814 C   0  0  0  0  0  0  0  0  0  0  0  0
   -4.8888   -7.1200   -9.9705 F   0  0  0  0  0  0  0  0  0  0  0  0
   -5.7826   -5.9165   -8.1743 C   0  0  0  0  0  0  0  0  0  0  0  0
   -5.5569   -5.1413   -7.0481 C   0  0  0  0  0  0  0  0  0  0  0  0
   -6.4754   -4.5137   -6.0977 C   0  0  0  0  0  0  0  0  0  0  0  0
   -7.8439   -4.5926   -6.1593 C   0  0  0  0  0  0  0  0  0  0  0  0
   -8.5489   -5.2943   -7.1600 C   0  0  0  0  0  0  0  0  0  0  0  0
   -9.1823   -5.8460   -7.9421 N   0  0  0  0  0  0  0  0  0  0  0  0
   -8.7484   -4.0008   -5.2536 C   0  0  0  0  0  0  0  0  0  0  0  0
   -9.5526   -3.5550   -4.5644 N   0  0  0  0  0  0  0  0  0  0  0  0
    6.9128    2.3001    2.1934 H   0  0  0  0  0  0  0  0  0  0  0  0
   11.3897    3.1042    3.3578 H   0  0  0  0  0  0  0  0  0  0  0  0
   11.7341    3.3706    5.0958 H   0  0  0  0  0  0  0  0  0  0  0  0
   11.7688    0.9035    5.4557 H   0  0  0  0  0  0  0  0  0  0  0  0
   11.4296    0.6424    3.7357 H   0  0  0  0  0  0  0  0  0  0  0  0
   12.9579    1.3742    4.2377 H   0  0  0  0  0  0  0  0  0  0  0  0
    3.6404    3.9300    5.7929 H   0  0  0  0  0  0  0  0  0  0  0  0
    5.3884    3.7116    5.6480 H   0  0  0  0  0  0  0  0  0  0  0  0
    5.1321    1.3984    6.6286 H   0  0  0  0  0  0  0  0  0  0  0  0
    4.5462    2.6527    7.7218 H   0  0  0  0  0  0  0  0  0  0  0  0
    3.3960    1.6864    6.7927 H   0  0  0  0  0  0  0  0  0  0  0  0
   -7.9428   -0.7618   -1.2717 H   0  0  0  0  0  0  0  0  0  0  0  0
   -8.2041   -1.5920   -2.8117 H   0  0  0  0  0  0  0  0  0  0  0  0
   -9.2449   -2.8496   -0.9608 H   0  0  0  0  0  0  0  0  0  0  0  0
   -7.6950   -2.9464   -0.1170 H   0  0  0  0  0  0  0  0  0  0  0  0
   -7.9272   -3.7987   -1.6476 H   0  0  0  0  0  0  0  0  0  0  0  0
    2.5633    0.8017    0.0571 H   0  0  0  0  0  0  0  0  0  0  0  0
    1.1833    0.0740   -0.7598 H   0  0  0  0  0  0  0  0  0  0  0  0
    1.6816    2.2902   -1.7411 H   0  0  0  0  0  0  0  0  0  0  0  0
    1.5275    3.0506   -0.1555 H   0  0  0  0  0  0  0  0  0  0  0  0
    0.1084    2.3449   -0.9310 H   0  0  0  0  0  0  0  0  0  0  0  0
    0.0281   -1.4243   -0.4272 H   0  0  0  0  0  0  0  0  0  0  0  0
   -1.3298   -2.2891   -1.1433 H   0  0  0  0  0  0  0  0  0  0  0  0
    0.2396   -1.3558   -2.8845 H   0  0  0  0  0  0  0  0  0  0  0  0
   -0.2518    0.2763   -2.4060 H   0  0  0  0  0  0  0  0  0  0  0  0
   -1.4345   -0.8488   -3.0674 H   0  0  0  0  0  0  0  0  0  0  0  0
   -7.2449   -3.0539   -3.9775 H   0  0  0  0  0  0  0  0  0  0  0  0
   -2.1427   -5.0570   -7.0544 H   0  0  0  0  0  0  0  0  0  0  0  0
   -6.7673   -6.1800   -8.5236 H   0  0  0  0  0  0  0  0  0  0  0  0
  1  2  2  0  0  0  0
  2  3  1  0  0  0  0
  3  4  1  0  0  0  0
  4  5  2  0  0  0  0
  4  6  1  0  0  0  0
  6  7  1  0  0  0  0
  7  8  1  0  0  0  0
  6  9  1  0  0  0  0
  9 10  2  0  0  0  0
  1 11  1  0  0  0  0
 11 12  2  0  0  0  0
 12 13  1  0  0  0  0
 13 14  1  0  0  0  0
 12 15  1  0  0  0  0
 15 16  1  0  0  0  0
 16 17  1  0  0  0  0
 17 18  1  0  0  0  0
 18 19  1  0  0  0  0
 19 20  1  0  0  0  0
 20 21  2  0  0  0  0
 21 22  1  0  0  0  0
 22 23  1  0  0  0  0
 20 24  1  0  0  0  0
 24 25  1  0  0  0  0
 25 26  1  0  0  0  0
 26 27  1  0  0  0  0
 27 28  1  0  0  0  0
 28 29  1  0  0  0  0
 29 30  1  0  0  0  0
 28 31  2  0  0  0  0
 31 32  1  0  0  0  0
 32 33  1  0  0  0  0
 33 34  1  0  0  0  0
 34 35  1  0  0  0  0
 35 36  1  0  0  0  0
 36 37  1  0  0  0  0
 37 38  1  0  0  0  0
 38 39  1  0  0  0  0
 39 40  1  0  0  0  0
 40 41  1  0  0  0  0
 38 42  1  0  0  0  0
 42 43  1  0  0  0  0
 35 44  1  0  0  0  0
 44 45  1  0  0  0  0
 31 46  1  0  0  0  0
 46 47  2  0  0  0  0
 47 48  1  0  0  0  0
 48 49  2  0  0  0  0
 48 50  1  0  0  0  0
 50 51  2  0  0  0  0
 51 52  1  0  0  0  0
 52 53  1  0  0  0  0
 52 54  2  0  0  0  0
 54 55  1  0  0  0  0
 54 56  1  0  0  0  0
 56 57  2  0  0  0  0
 57 58  1  0  0  0  0
 58 59  2  0  0  0  0
 59 60  1  0  0  0  0
 60 61  3  0  0  0  0
 59 62  1  0  0  0  0
 62 63  3  0  0  0  0
  9  2  1  0  0  0  0
 41 11  1  0  0  0  0
 58 47  1  0  0  0  0
 40 15  2  0  0  0  0
 57 50  1  0  0  0  0
 39 17  2  0  0  0  0
 37 18  2  0  0  0  0
 23 19  2  0  0  0  0
 36 24  2  0  0  0  0
 34 25  2  0  0  0  0
 33 27  2  0  0  0  0
  1 64  1  0  0  0  0
  7 65  1  0  0  0  0
  7 66  1  0  0  0  0
  8 67  1  0  0  0  0
  8 68  1  0  0  0  0
  8 69  1  0  0  0  0
 13 70  1  0  0  0  0
 13 71  1  0  0  0  0
 14 72  1  0  0  0  0
 14 73  1  0  0  0  0
 14 74  1  0  0  0  0
 29 75  1  0  0  0  0
 29 76  1  0  0  0  0
 30 77  1  0  0  0  0
 30 78  1  0  0  0  0
 30 79  1  0  0  0  0
 42 80  1  0  0  0  0
 42 81  1  0  0  0  0
 43 82  1  0  0  0  0
 43 83  1  0  0  0  0
 43 84  1  0  0  0  0
 44 85  1  0  0  0  0
 44 86  1  0  0  0  0
 45 87  1  0  0  0  0
 45 88  1  0  0  0  0
 45 89  1  0  0  0  0
 46 90  1  0  0  0  0
 51 91  1  0  0  0  0
 56 92  1  0  0  0  0
M  END
