92

C          6.55020        2.38380        3.21630
C          7.56990        2.52510        4.09970
S          7.59010        2.56840        5.84650
C          9.34730        2.64720        5.88810
S         10.21650        2.71840        7.26610
N          9.84990        2.65640        4.62920
C         11.27540        2.69920        4.36600
C         11.89600        1.31110        4.45560
C          8.94420        2.58610        3.58650
O          9.26660        2.58070        2.41910
C          5.14540        2.25730        3.33220
C          4.20600        2.54620        4.31140
C          4.43220        3.19270        5.63770
C          4.37260        2.16350        6.76780
C          2.91310        2.19480        3.89440
S          1.35760        2.32590        4.68550
C          0.61380        1.64670        3.28030
C         -0.66720        1.33000        2.80370
C         -1.94540        1.55780        3.36040
C         -3.10690        1.24800        2.57910
N         -4.23230        1.56950        3.19740
S         -3.86270        2.20220        4.64050
N         -2.25160        2.09210        4.53210
C         -2.93780        0.60860        1.33080
C         -3.87160        0.06110        0.44270
S         -5.58620       -0.08290        0.27320
C         -5.32950       -1.06280       -1.15950
C         -6.20780       -1.68270       -2.03440
C         -7.68940       -1.65140       -1.85180
C         -8.16810       -2.89380       -1.09480
C         -5.51800       -2.37680       -3.04840
S         -3.76640       -2.22670       -2.88150
C         -3.97060       -1.25380       -1.47530
C         -3.14630       -0.59940       -0.55840
N         -1.80330       -0.45960       -0.32780
C         -1.64370        0.29950        0.81260
C         -0.49940        0.78040        1.50060
N          0.85200        0.80160        1.18420
C          1.51610        1.33220        2.25990
C          2.83270        1.65460        2.60610
S          4.38920        1.58830        1.87570
C          1.48740        0.89050       -0.11400
C          1.17990        2.23040       -0.77920
C         -0.86730       -1.30150       -1.03810
C         -0.55480       -0.76690       -2.43500
C         -6.16710       -3.09020       -4.05590
C         -5.67080       -3.81810       -5.11480
C         -4.26020       -4.01120       -5.44550
O         -3.28420       -3.57910       -4.85700
C         -4.23760       -4.84620       -6.66520
C         -3.14380       -5.30040       -7.37240
C         -3.36790       -6.07780       -8.50260
Cl        -2.05010       -6.67710       -9.43160
C         -4.67940       -6.37080       -8.88140
F         -4.88880       -7.12000       -9.97050
C         -5.78260       -5.91650       -8.17430
C         -5.55690       -5.14130       -7.04810
C         -6.47540       -4.51370       -6.09770
C         -7.84390       -4.59260       -6.15930
C         -8.54890       -5.29430       -7.16000
N         -9.18230       -5.84600       -7.94210
C         -8.74840       -4.00080       -5.25360
N         -9.55260       -3.55500       -4.56440
H          6.91280        2.30010        2.19340
H         11.38970        3.10420        3.35780
H         11.73410        3.37060        5.09580
H         11.76880        0.90350        5.45570
H         11.42960        0.64240        3.73570
H         12.95790        1.37420        4.23770
H          3.64040        3.93000        5.79290
H          5.38840        3.71160        5.64800
H          5.13210        1.39840        6.62860
H          4.54620        2.65270        7.72180
H          3.39600        1.68640        6.79270
H         -7.94280       -0.76180       -1.27170
H         -8.20410       -1.59200       -2.81170
H         -9.24490       -2.84960       -0.96080
H         -7.69500       -2.94640       -0.11700
H         -7.92720       -3.79870       -1.64760
H          2.56330        0.80170        0.05710
H          1.18330        0.07400       -0.75980
H          1.68160        2.29020       -1.74110
H          1.52750        3.05060       -0.15550
H          0.10840        2.34490       -0.93100
H          0.02810       -1.42430       -0.42720
H         -1.32980       -2.28910       -1.14330
H          0.23960       -1.35580       -2.88450
H         -0.25180        0.27630       -2.40600
H         -1.43450       -0.84880       -3.06740
H         -7.24490       -3.05390       -3.97750
H         -2.14270       -5.05700       -7.05440
H         -6.76730       -6.18000       -8.52360
