
  xtb     02012223093D
 energy: -179.401869234564 gnorm: 0.000277497542 xtb: 6.4.1 (unknown)
 95105  0     0  0            999 V2000
   -0.1168    6.5802   -5.7093 C   0  0  0  0  0  0  0  0  0  0  0  0
   -0.8428    7.4951   -5.0037 C   0  0  0  0  0  0  0  0  0  0  0  0
   -1.1920    9.0801   -5.6788 S   0  0  0  0  0  0  0  0  0  0  0  0
   -2.0899    9.5551   -4.2479 C   0  0  0  0  0  0  0  0  0  0  0  0
   -2.8141   11.0041   -4.0521 S   0  0  0  0  0  0  0  0  0  0  0  0
   -2.0975    8.5403   -3.3454 N   0  0  0  0  0  0  0  0  0  0  0  0
   -2.7497    8.6626   -2.0560 C   0  0  0  0  0  0  0  0  0  0  0  0
   -1.8552    9.3746   -1.0493 C   0  0  0  0  0  0  0  0  0  0  0  0
   -1.4311    7.3787   -3.6864 C   0  0  0  0  0  0  0  0  0  0  0  0
   -1.3863    6.4110   -2.9448 O   0  0  0  0  0  0  0  0  0  0  0  0
    0.2754    5.2738   -5.3736 C   0  0  0  0  0  0  0  0  0  0  0  0
    1.0307    4.4470   -6.2150 C   0  0  0  0  0  0  0  0  0  0  0  0
    1.5747    4.8249   -7.5549 C   0  0  0  0  0  0  0  0  0  0  0  0
    2.8816    5.6093   -7.4126 C   0  0  0  0  0  0  0  0  0  0  0  0
    1.2719    3.2098   -5.6256 C   0  0  0  0  0  0  0  0  0  0  0  0
    2.1386    1.7892   -6.1768 S   0  0  0  0  0  0  0  0  0  0  0  0
    1.7394    1.0055   -4.6869 C   0  0  0  0  0  0  0  0  0  0  0  0
    1.9911   -0.2019   -4.0229 C   0  0  0  0  0  0  0  0  0  0  0  0
    2.8157   -1.2966   -4.3660 C   0  0  0  0  0  0  0  0  0  0  0  0
    3.0089   -2.3447   -3.4071 C   0  0  0  0  0  0  0  0  0  0  0  0
    3.8530   -3.2708   -3.8328 N   0  0  0  0  0  0  0  0  0  0  0  0
    4.3574   -2.8626   -5.3158 S   0  0  0  0  0  0  0  0  0  0  0  0
    3.5195   -1.4863   -5.4708 N   0  0  0  0  0  0  0  0  0  0  0  0
    2.2744   -2.3106   -2.2005 C   0  0  0  0  0  0  0  0  0  0  0  0
    2.1756   -3.2402   -1.1577 C   0  0  0  0  0  0  0  0  0  0  0  0
    2.8602   -4.7563   -0.6866 S   0  0  0  0  0  0  0  0  0  0  0  0
    1.8093   -4.7566    0.7194 C   0  0  0  0  0  0  0  0  0  0  0  0
    1.6511   -5.6498    1.7664 C   0  0  0  0  0  0  0  0  0  0  0  0
    2.4029   -6.9370    1.8540 C   0  0  0  0  0  0  0  0  0  0  0  0
    1.5745   -8.0913    1.2824 C   0  0  0  0  0  0  0  0  0  0  0  0
    0.6681   -5.2069    2.6758 C   0  0  0  0  0  0  0  0  0  0  0  0
   -0.0403   -3.6633    2.1870 S   0  0  0  0  0  0  0  0  0  0  0  0
    0.9735   -3.6253    0.7964 C   0  0  0  0  0  0  0  0  0  0  0  0
    1.1958   -2.7630   -0.2775 C   0  0  0  0  0  0  0  0  0  0  0  0
    0.7077   -1.5593   -0.7200 N   0  0  0  0  0  0  0  0  0  0  0  0
    1.3657   -1.2522   -1.8991 C   0  0  0  0  0  0  0  0  0  0  0  0
    1.3211   -0.1289   -2.7649 C   0  0  0  0  0  0  0  0  0  0  0  0
    0.7300    1.1147   -2.6609 N   0  0  0  0  0  0  0  0  0  0  0  0
    0.9740    1.7963   -3.8215 C   0  0  0  0  0  0  0  0  0  0  0  0
    0.7088    3.0647   -4.3483 C   0  0  0  0  0  0  0  0  0  0  0  0
   -0.1303    4.4855   -3.8517 S   0  0  0  0  0  0  0  0  0  0  0  0
    0.2362    1.8291   -1.5051 C   0  0  0  0  0  0  0  0  0  0  0  0
   -1.2785    2.0259   -1.5498 C   0  0  0  0  0  0  0  0  0  0  0  0
   -0.6093   -1.1594   -0.2684 C   0  0  0  0  0  0  0  0  0  0  0  0
   -1.6921   -1.7445   -1.1725 C   0  0  0  0  0  0  0  0  0  0  0  0
    0.3241   -5.9161    3.8246 C   0  0  0  0  0  0  0  0  0  0  0  0
   -0.5904   -5.6408    4.8197 C   0  0  0  0  0  0  0  0  0  0  0  0
   -1.4605   -4.4694    4.8906 C   0  0  0  0  0  0  0  0  0  0  0  0
   -1.5508   -3.5486    4.0974 O   0  0  0  0  0  0  0  0  0  0  0  0
   -2.2350   -4.6112    6.1427 C   0  0  0  0  0  0  0  0  0  0  0  0
   -3.1852   -3.7611    6.6666 C   0  0  0  0  0  0  0  0  0  0  0  0
   -3.7722   -4.1195    7.8768 C   0  0  0  0  0  0  0  0  0  0  0  0
   -4.8363   -3.2320    8.4611 C   0  0  0  0  0  0  0  0  0  0  0  0
   -4.6008   -1.9306    8.2362 F   0  0  0  0  0  0  0  0  0  0  0  0
   -4.9691   -3.3742    9.7869 F   0  0  0  0  0  0  0  0  0  0  0  0
   -6.0483   -3.4902    7.9310 F   0  0  0  0  0  0  0  0  0  0  0  0
   -3.4162   -5.2954    8.5266 C   0  0  0  0  0  0  0  0  0  0  0  0
   -2.4575   -6.1450    7.9908 C   0  0  0  0  0  0  0  0  0  0  0  0
   -1.8609   -5.8016    6.7880 C   0  0  0  0  0  0  0  0  0  0  0  0
   -0.8358   -6.4695    5.9791 C   0  0  0  0  0  0  0  0  0  0  0  0
   -0.2433   -7.6654    6.2997 C   0  0  0  0  0  0  0  0  0  0  0  0
   -0.5446   -8.4142    7.4566 C   0  0  0  0  0  0  0  0  0  0  0  0
   -0.7393   -9.0747    8.3753 N   0  0  0  0  0  0  0  0  0  0  0  0
    0.7411   -8.3295    5.5389 C   0  0  0  0  0  0  0  0  0  0  0  0
    1.5431   -8.9340    4.9800 N   0  0  0  0  0  0  0  0  0  0  0  0
    0.2105    6.9106   -6.6875 H   0  0  0  0  0  0  0  0  0  0  0  0
   -2.9664    7.6449   -1.7224 H   0  0  0  0  0  0  0  0  0  0  0  0
   -3.6795    9.2179   -2.1992 H   0  0  0  0  0  0  0  0  0  0  0  0
   -0.9260    8.8255   -0.9148 H   0  0  0  0  0  0  0  0  0  0  0  0
   -1.6282   10.3811   -1.3922 H   0  0  0  0  0  0  0  0  0  0  0  0
   -2.3655    9.4395   -0.0930 H   0  0  0  0  0  0  0  0  0  0  0  0
    1.7689    3.9078   -8.1144 H   0  0  0  0  0  0  0  0  0  0  0  0
    0.8468    5.4162   -8.1130 H   0  0  0  0  0  0  0  0  0  0  0  0
    3.6231    5.0104   -6.8897 H   0  0  0  0  0  0  0  0  0  0  0  0
    2.7224    6.5274   -6.8517 H   0  0  0  0  0  0  0  0  0  0  0  0
    3.2722    5.8640   -8.3943 H   0  0  0  0  0  0  0  0  0  0  0  0
    2.6759   -7.1641    2.8855 H   0  0  0  0  0  0  0  0  0  0  0  0
    3.3206   -6.8353    1.2714 H   0  0  0  0  0  0  0  0  0  0  0  0
    0.6556   -8.2244    1.8483 H   0  0  0  0  0  0  0  0  0  0  0  0
    2.1460   -9.0134    1.3340 H   0  0  0  0  0  0  0  0  0  0  0  0
    1.3188   -7.8954    0.2437 H   0  0  0  0  0  0  0  0  0  0  0  0
    0.7109    2.8164   -1.5038 H   0  0  0  0  0  0  0  0  0  0  0  0
    0.5638    1.3083   -0.6042 H   0  0  0  0  0  0  0  0  0  0  0  0
   -1.5370    2.7236   -2.3415 H   0  0  0  0  0  0  0  0  0  0  0  0
   -1.7984    1.0901   -1.7362 H   0  0  0  0  0  0  0  0  0  0  0  0
   -1.6228    2.4421   -0.6073 H   0  0  0  0  0  0  0  0  0  0  0  0
   -0.7257   -1.5498    0.7456 H   0  0  0  0  0  0  0  0  0  0  0  0
   -0.7017   -0.0797   -0.2240 H   0  0  0  0  0  0  0  0  0  0  0  0
   -2.6737   -1.4571   -0.8064 H   0  0  0  0  0  0  0  0  0  0  0  0
   -1.6307   -2.8302   -1.1813 H   0  0  0  0  0  0  0  0  0  0  0  0
   -1.5753   -1.3856   -2.1935 H   0  0  0  0  0  0  0  0  0  0  0  0
    0.8833   -6.8338    3.9441 H   0  0  0  0  0  0  0  0  0  0  0  0
   -3.4541   -2.8501    6.1544 H   0  0  0  0  0  0  0  0  0  0  0  0
   -3.8882   -5.5486    9.4636 H   0  0  0  0  0  0  0  0  0  0  0  0
   -2.1979   -7.0482    8.5171 H   0  0  0  0  0  0  0  0  0  0  0  0
  1  2  2  0  0  0  0
  2  3  1  0  0  0  0
  3  4  1  0  0  0  0
  4  5  2  0  0  0  0
  4  6  1  0  0  0  0
  6  7  1  0  0  0  0
  7  8  1  0  0  0  0
  6  9  1  0  0  0  0
  9 10  2  0  0  0  0
  1 11  1  0  0  0  0
 11 12  2  0  0  0  0
 12 13  1  0  0  0  0
 13 14  1  0  0  0  0
 12 15  1  0  0  0  0
 15 16  1  0  0  0  0
 16 17  1  0  0  0  0
 17 18  1  0  0  0  0
 18 19  1  0  0  0  0
 19 20  1  0  0  0  0
 20 21  2  0  0  0  0
 21 22  1  0  0  0  0
 22 23  1  0  0  0  0
 20 24  1  0  0  0  0
 24 25  1  0  0  0  0
 25 26  1  0  0  0  0
 26 27  1  0  0  0  0
 27 28  1  0  0  0  0
 28 29  1  0  0  0  0
 29 30  1  0  0  0  0
 28 31  2  0  0  0  0
 31 32  1  0  0  0  0
 32 33  1  0  0  0  0
 33 34  1  0  0  0  0
 34 35  1  0  0  0  0
 35 36  1  0  0  0  0
 36 37  1  0  0  0  0
 37 38  1  0  0  0  0
 38 39  1  0  0  0  0
 39 40  1  0  0  0  0
 40 41  1  0  0  0  0
 38 42  1  0  0  0  0
 42 43  1  0  0  0  0
 35 44  1  0  0  0  0
 44 45  1  0  0  0  0
 31 46  1  0  0  0  0
 46 47  2  0  0  0  0
 47 48  1  0  0  0  0
 48 49  2  0  0  0  0
 48 50  1  0  0  0  0
 50 51  2  0  0  0  0
 51 52  1  0  0  0  0
 52 53  1  0  0  0  0
 53 54  1  0  0  0  0
 53 55  1  0  0  0  0
 53 56  1  0  0  0  0
 52 57  2  0  0  0  0
 57 58  1  0  0  0  0
 58 59  2  0  0  0  0
 59 60  1  0  0  0  0
 60 61  2  0  0  0  0
 61 62  1  0  0  0  0
 62 63  3  0  0  0  0
 61 64  1  0  0  0  0
 64 65  3  0  0  0  0
  9  2  1  0  0  0  0
 41 11  1  0  0  0  0
 60 47  1  0  0  0  0
 40 15  2  0  0  0  0
 59 50  1  0  0  0  0
 39 17  2  0  0  0  0
 37 18  2  0  0  0  0
 23 19  2  0  0  0  0
 36 24  2  0  0  0  0
 34 25  2  0  0  0  0
 33 27  2  0  0  0  0
  1 66  1  0  0  0  0
  7 67  1  0  0  0  0
  7 68  1  0  0  0  0
  8 69  1  0  0  0  0
  8 70  1  0  0  0  0
  8 71  1  0  0  0  0
 13 72  1  0  0  0  0
 13 73  1  0  0  0  0
 14 74  1  0  0  0  0
 14 75  1  0  0  0  0
 14 76  1  0  0  0  0
 29 77  1  0  0  0  0
 29 78  1  0  0  0  0
 30 79  1  0  0  0  0
 30 80  1  0  0  0  0
 30 81  1  0  0  0  0
 42 82  1  0  0  0  0
 42 83  1  0  0  0  0
 43 84  1  0  0  0  0
 43 85  1  0  0  0  0
 43 86  1  0  0  0  0
 44 87  1  0  0  0  0
 44 88  1  0  0  0  0
 45 89  1  0  0  0  0
 45 90  1  0  0  0  0
 45 91  1  0  0  0  0
 46 92  1  0  0  0  0
 51 93  1  0  0  0  0
 57 94  1  0  0  0  0
 58 95  1  0  0  0  0
M  END
