95

C         -0.11680        6.58020       -5.70930
C         -0.84280        7.49510       -5.00370
S         -1.19200        9.08010       -5.67880
C         -2.08990        9.55510       -4.24790
S         -2.81410       11.00410       -4.05210
N         -2.09750        8.54030       -3.34540
C         -2.74970        8.66260       -2.05600
C         -1.85520        9.37460       -1.04930
C         -1.43110        7.37870       -3.68640
O         -1.38630        6.41100       -2.94480
C          0.27540        5.27380       -5.37360
C          1.03070        4.44700       -6.21500
C          1.57470        4.82490       -7.55490
C          2.88160        5.60930       -7.41260
C          1.27190        3.20980       -5.62560
S          2.13860        1.78920       -6.17680
C          1.73940        1.00550       -4.68690
C          1.99110       -0.20190       -4.02290
C          2.81570       -1.29660       -4.36600
C          3.00890       -2.34470       -3.40710
N          3.85300       -3.27080       -3.83280
S          4.35740       -2.86260       -5.31580
N          3.51950       -1.48630       -5.47080
C          2.27440       -2.31060       -2.20050
C          2.17560       -3.24020       -1.15770
S          2.86020       -4.75630       -0.68660
C          1.80930       -4.75660        0.71940
C          1.65110       -5.64980        1.76640
C          2.40290       -6.93700        1.85400
C          1.57450       -8.09130        1.28240
C          0.66810       -5.20690        2.67580
S         -0.04030       -3.66330        2.18700
C          0.97350       -3.62530        0.79640
C          1.19580       -2.76300       -0.27750
N          0.70770       -1.55930       -0.72000
C          1.36570       -1.25220       -1.89910
C          1.32110       -0.12890       -2.76490
N          0.73000        1.11470       -2.66090
C          0.97400        1.79630       -3.82150
C          0.70880        3.06470       -4.34830
S         -0.13030        4.48550       -3.85170
C          0.23620        1.82910       -1.50510
C         -1.27850        2.02590       -1.54980
C         -0.60930       -1.15940       -0.26840
C         -1.69210       -1.74450       -1.17250
C          0.32410       -5.91610        3.82460
C         -0.59040       -5.64080        4.81970
C         -1.46050       -4.46940        4.89060
O         -1.55080       -3.54860        4.09740
C         -2.23500       -4.61120        6.14270
C         -3.18520       -3.76110        6.66660
C         -3.77220       -4.11950        7.87680
C         -4.83630       -3.23200        8.46110
F         -4.60080       -1.93060        8.23620
F         -4.96910       -3.37420        9.78690
F         -6.04830       -3.49020        7.93100
C         -3.41620       -5.29540        8.52660
C         -2.45750       -6.14500        7.99080
C         -1.86090       -5.80160        6.78800
C         -0.83580       -6.46950        5.97910
C         -0.24330       -7.66540        6.29970
C         -0.54460       -8.41420        7.45660
N         -0.73930       -9.07470        8.37530
C          0.74110       -8.32950        5.53890
N          1.54310       -8.93400        4.98000
H          0.21050        6.91060       -6.68750
H         -2.96640        7.64490       -1.72240
H         -3.67950        9.21790       -2.19920
H         -0.92600        8.82550       -0.91480
H         -1.62820       10.38110       -1.39220
H         -2.36550        9.43950       -0.09300
H          1.76890        3.90780       -8.11440
H          0.84680        5.41620       -8.11300
H          3.62310        5.01040       -6.88970
H          2.72240        6.52740       -6.85170
H          3.27220        5.86400       -8.39430
H          2.67590       -7.16410        2.88550
H          3.32060       -6.83530        1.27140
H          0.65560       -8.22440        1.84830
H          2.14600       -9.01340        1.33400
H          1.31880       -7.89540        0.24370
H          0.71090        2.81640       -1.50380
H          0.56380        1.30830       -0.60420
H         -1.53700        2.72360       -2.34150
H         -1.79840        1.09010       -1.73620
H         -1.62280        2.44210       -0.60730
H         -0.72570       -1.54980        0.74560
H         -0.70170       -0.07970       -0.22400
H         -2.67370       -1.45710       -0.80640
H         -1.63070       -2.83020       -1.18130
H         -1.57530       -1.38560       -2.19350
H          0.88330       -6.83380        3.94410
H         -3.45410       -2.85010        6.15440
H         -3.88820       -5.54860        9.46360
H         -2.19790       -7.04820        8.51710
