119

C          1.80270       -6.07270        7.53800
C          2.62010       -5.61590        8.52080
S          3.11860       -3.96690        8.80240
C          4.14370       -4.45800       10.15210
S          5.05040       -3.41880       11.02130
N          4.07170       -5.79780       10.34060
C          4.80160       -6.46930       11.39870
C          4.05840       -6.38020       12.72530
C          3.24540       -6.51510        9.49020
O          3.09640       -7.71490        9.55360
C          1.18740       -5.32640        6.51350
C          0.45300       -5.84890        5.46040
C          0.04370       -4.86230        4.57150
S         -0.81620       -4.88240        3.05710
C         -0.60610       -3.16700        2.93520
C         -0.88140       -2.17610        1.94170
C         -1.47260       -2.28440        0.68560
C         -1.48910       -1.15640       -0.09990
C         -2.00620       -1.00190       -1.52840
C         -3.52180       -1.08880       -1.45450
C         -4.13850       -2.31920       -1.25100
C         -5.51340       -2.40960       -1.13740
C         -6.29670       -1.27050       -1.21480
C         -5.69150       -0.04070       -1.39810
C         -4.31430        0.05040       -1.51350
C         -1.36170       -2.01730       -2.45370
C          0.00890       -2.22930       -2.34650
C          0.65260       -3.12240       -3.18230
C         -0.06390       -3.81570       -4.14350
C         -1.42500       -3.60210       -4.26560
C         -2.07130       -2.70510       -3.43030
C         -1.52080        0.39420       -1.85650
C         -0.96690        0.97720       -0.72640
C         -0.93370        0.05600        0.36490
C         -0.38530        0.17830        1.63860
C         -0.35130       -0.95390        2.41800
C          0.24680       -1.12500        3.80440
C          1.73340       -0.83270        3.89750
C          2.53940       -0.77390        2.77000
C          3.90220       -0.56550        2.89780
C          4.47370       -0.43010        4.15070
C          3.67580       -0.50490        5.28000
C          2.31380       -0.70510        5.15440
C         -0.55410       -0.27330        4.77460
C         -0.24520        1.07360        4.92080
C         -0.98380        1.87240        5.77410
C         -2.04080        1.33620        6.49000
C         -2.35740       -0.00240        6.34260
C         -1.62150       -0.80260        5.48580
C          0.05910       -2.60350        4.00950
C          0.44500       -3.56470        4.94080
S          1.34190       -3.57690        6.40980
S         -0.36250        2.58420       -0.93840
C         -0.83360        2.49450       -2.60370
C         -0.76180        3.26020       -3.75990
C         -1.33220        2.47170       -4.79710
N         -1.73790        1.26290       -4.29250
C         -2.37480        0.23350       -5.07530
C         -3.89440        0.37920       -5.08000
C         -1.44540        1.25760       -2.95620
C         -1.30000        3.07250       -6.04360
C         -0.70120        4.32750       -5.99790
S         -0.19940        4.76850       -4.34840
C         -0.40420        5.26830       -6.99110
C         -0.53900        5.23410       -8.36070
C         -1.02560        4.13420       -9.21250
O         -1.51180        3.06560       -8.89630
C         -0.80630        4.57980      -10.60690
C         -1.07010        3.88500      -11.76930
C         -0.77590        4.49590      -12.98190
Cl        -1.07650        3.68650      -14.47010
C         -0.22970        5.78080      -12.98390
F          0.05460        6.36390      -14.15530
C          0.03350        6.48460      -11.81870
C         -0.26040        5.87230      -10.61020
C         -0.11610        6.32170       -9.22620
C          0.31830        7.56990       -8.85920
C          0.40770        8.08120       -7.54670
N          0.50880        8.59750       -6.52540
C          0.72800        8.56170       -9.77610
N          1.08430        9.41090      -10.46150
H          1.63150       -7.14290        7.53190
H          4.90450       -7.51160       11.08760
H          5.78580       -6.00200       11.48030
H          3.94340       -5.34130       13.02490
H          4.62150       -6.90370       13.49210
H          3.07560       -6.83740       12.63800
H          0.25200       -6.89850        5.34870
H         -1.85670       -3.23310        0.34570
H         -3.54190       -3.21660       -1.18890
H         -5.97390       -3.37450       -0.98490
H         -7.37020       -1.34110       -1.12650
H         -6.29020        0.85660       -1.45080
H         -3.85980        1.02170       -1.64240
H          0.57270       -1.69020       -1.59870
H          1.71640       -3.27780       -3.08220
H          0.43650       -4.51660       -4.79430
H         -1.99250       -4.13280       -5.01570
H         -3.13490       -2.55100       -3.54100
H          0.03060        1.11660        1.97060
H          2.10440       -0.88930        1.78790
H          4.51860       -0.51300        2.01240
H          5.53710       -0.27020        4.24710
H          4.11290       -0.40980        6.26250
H          1.69410       -0.75700        6.03790
H          0.58720        1.49460        4.37620
H         -0.73090        2.91670        5.88200
H         -2.61420        1.95900        7.16000
H         -3.18030       -0.42940        6.89660
H         -1.88110       -1.84550        5.37650
H         -2.08700       -0.73820       -4.66920
H         -1.99170        0.31330       -6.09580
H         -4.29350        0.26540       -4.07460
H         -4.33290       -0.38370       -5.71690
H         -4.17890        1.35660       -5.46270
H         -1.67090        2.65120       -6.95900
H          0.04590        6.16890       -6.59070
H         -1.49220        2.89340      -11.73290
H          0.45660        7.47240      -11.89500
