94

C          4.27360        3.17470        0.58820
C          5.50480        3.50650        1.00590
S          6.96050        3.14110        0.08940
C          7.98500        3.87530        1.31690
S          9.60850        3.96030        1.22020
N          7.22840        4.36240        2.33640
C          7.82480        4.98800        3.50260
C          8.27460        3.94360        4.51620
C          5.85990        4.20790        2.25230
O          5.09480        4.61570        3.09690
C          3.02230        3.39710        1.35410
C          1.86650        3.75790        0.47890
C          0.90500        2.83160        0.41310
S         -0.57060        2.73790       -0.51030
C         -1.02490        1.11190        0.25470
C         -1.49080        0.06620       -0.72280
C         -2.16640        0.52600       -1.89420
C         -2.95150        1.64950       -2.00810
C         -3.43030        1.88990       -3.31000
C         -4.28610        3.07360       -3.64120
C         -3.41780        4.31580       -3.84730
C         -2.97190        0.96810       -4.21370
C         -3.27740        0.84190       -5.66620
C         -4.49180       -0.06460       -5.88630
S         -1.96940       -0.22230       -3.45620
C         -1.30270       -1.24610       -0.35820
C         -0.52460       -1.59110        0.81560
C          0.21440       -0.68310        1.52210
C          1.06790       -1.05820        2.62550
C          1.89180       -2.13870        2.75280
C          2.54190       -2.22060        4.00610
C          3.46390       -3.35260        4.33980
C          2.67240       -4.62950        4.62570
C          2.19750       -1.19480        4.84080
S          1.06700       -0.11620        4.08960
C          2.61270       -0.93130        6.24830
C          1.63690       -1.56290        7.24390
C          0.15740        0.68020        1.07800
C          1.10520        1.63820        1.20070
S          2.58450        1.74800        2.11150
S         -0.56980       -3.31080        1.18850
C         -1.62620       -3.58830       -0.16880
C         -2.27400       -4.72480       -0.63830
C         -3.05960       -4.44780       -1.74610
S         -2.97410       -2.75370       -2.18850
C         -1.88570       -2.43040       -0.89770
C         -3.83640       -5.36880       -2.47590
C         -4.57840       -5.11760       -3.58550
S         -4.75760       -3.58380       -4.39720
C         -5.79780       -4.29980       -5.62930
S         -6.42840       -3.45700       -6.87490
N         -5.97250       -5.62100       -5.39030
C         -6.80950       -6.45470       -6.23120
C         -8.27870       -6.32280       -5.85110
C         -5.33780       -6.15580       -4.27780
O         -5.41410       -7.32180       -3.96060
H          4.16230        2.65200       -0.35300
H          8.67430        5.58730        3.16760
H          7.05630        5.63320        3.93430
H          9.03310        3.29670        4.08210
H          7.42930        3.33790        4.83480
H          8.69640        4.44020        5.38500
H          3.18030        4.09300        2.18010
H          1.87450        4.69060       -0.05370
H         -1.86590        1.34980        0.92560
H         -3.22530        2.26100       -1.16630
H         -4.87140        2.87900       -4.54030
H         -4.97990        3.25150       -2.81710
H         -4.03940        5.18300       -4.05680
H         -2.73540        4.16720       -4.68110
H         -2.82700        4.51530       -2.95610
H         -2.41500        0.41480       -6.18150
H         -3.47280        1.82940       -6.08830
H         -5.36850        0.34110       -5.38730
H         -4.70770       -0.15890       -6.94700
H         -4.29900       -1.05630       -5.48410
H          2.06490       -2.84140        1.95720
H          4.13110       -3.52710        3.49240
H          4.07560       -3.10080        5.20680
H          2.01300       -4.48560        5.47860
H          3.34800       -5.45290        4.84510
H          2.06220       -4.89800        3.76650
H          3.61490       -1.33110        6.41590
H          2.64540        0.14740        6.41500
H          1.94480       -1.34520        8.26340
H          0.63580       -1.16710        7.08970
H          1.60530       -2.64180        7.11300
H         -2.18550       -5.70270       -0.20270
H         -3.84190       -6.39430       -2.12610
H         -6.46740       -7.48180       -6.08330
H         -6.65500       -6.15230       -7.26980
H         -8.42740       -6.61410       -4.81390
H         -8.87710       -6.96970       -6.48560
H         -8.61310       -5.29670       -5.98480
