105

C         -9.78030       -2.52030       -2.47060
C        -10.75610       -2.27730       -3.38910
S        -12.37840       -2.88970       -3.08490
C        -12.99080       -2.20600       -4.57880
S        -14.53570       -2.33790       -5.08830
N        -11.99260       -1.56850       -5.23870
C        -12.22020       -0.88910       -6.49960
C        -12.77390        0.51300       -6.27940
C        -10.73280       -1.55500       -4.65780
O         -9.79060       -1.00600       -5.18980
C         -8.41660       -2.15190       -2.43720
S         -7.51550       -2.63940       -1.00000
C         -6.07880       -1.89320       -1.59640
C         -4.84040       -1.82870       -0.94800
S         -4.51550       -2.52890        0.62350
C         -2.90820       -1.92190        0.54090
C         -1.76190       -1.87170        1.34620
C         -1.55680       -2.30590        2.67340
C         -0.31240       -1.99670        3.31160
N         -0.27280       -2.40450        4.57030
S         -1.68220       -3.12120        4.92000
N         -2.39670       -2.93750        3.47840
C          0.70500       -1.38740        2.54650
C          2.04560       -1.13090        2.85870
S          3.09060       -1.23530        4.21980
C          4.41680       -0.68790        3.21710
C          5.71640       -0.47510        3.69020
C          6.75990       -0.03100        2.85220
C          6.43430        0.15180        1.48590
N          7.18970        0.51270        0.44880
N          6.37060        0.51160       -0.56810
C          6.81590        0.80510       -1.89940
C          7.29660       -0.46400       -2.59700
N          5.12910        0.18050       -0.31340
C          5.10790       -0.05890        1.00260
C          4.05830       -0.45590        1.87180
C          2.67590       -0.69160        1.69150
N          1.75220       -0.63430        0.67980
C          0.52630       -1.03060        1.17930
C         -0.77360       -1.16080        0.60990
N         -1.33390       -0.76090       -0.59710
C         -2.62780       -1.22400       -0.63410
C         -3.73240       -1.16380       -1.51440
C         -3.92720       -0.59570       -2.79920
C         -5.19040       -0.66600       -3.45890
C         -6.30050       -1.30860       -2.85880
C         -7.61370       -1.45980       -3.31810
N         -5.06430       -0.05570       -4.63760
N         -3.82110        0.33840       -4.67170
C         -3.29140        1.07960       -5.77930
C         -3.30180        2.57560       -5.47930
N         -3.09260        0.05370       -3.61920
C         -1.00460        0.40470       -1.38990
C         -1.39720        1.68440       -0.65160
C          2.15110       -0.36400       -0.67990
C          2.28690        1.13690       -0.94380
C          7.96870        0.16090        3.52680
C          7.88720       -0.12850        4.87350
S          6.26460       -0.67180        5.31220
C          8.82160       -0.07550        5.93010
C         10.10670        0.38330        5.98820
C         10.92620        1.03310        4.92510
O         10.64830        1.21470        3.75900
C         12.17770        1.42310        5.59060
C         13.37480        2.07630        5.25300
C         14.20880        2.15070        6.32920
S         13.56650        1.43330        7.76310
C         12.13530        1.01890        6.91510
C         10.89650        0.35760        7.21790
C         10.59430       -0.18120        8.44300
C          9.41780       -0.86640        8.80190
N          8.49620       -1.44120        9.17600
C         11.51680       -0.09220        9.50740
N         12.26010       -0.02420       10.37900
H        -10.10130       -3.08930       -1.60470
H        -12.92140       -1.48880       -7.08430
H        -11.25240       -0.84200       -7.00450
H        -12.92090        0.99990       -7.23890
H        -12.07840        1.10450       -5.68850
H        -13.72940        0.46460       -5.76280
H          7.63120        1.52640       -1.81890
H          5.97480        1.24530       -2.43890
H          6.48760       -1.18760       -2.66400
H          8.11930       -0.90610       -2.04080
H          7.63900       -0.22690       -3.60000
H         -7.96190       -1.07320       -4.25730
H         -2.27040        0.73460       -5.95800
H         -3.91970        0.85570       -6.64260
H         -2.88810        3.12340       -6.32100
H         -2.70460        2.78500       -4.59510
H         -4.31940        2.91660       -5.30580
H         -1.57180        0.32840       -2.32020
H          0.04950        0.42530       -1.63530
H         -0.88100        1.75360        0.30460
H         -1.14230        2.55280       -1.25340
H         -2.46810        1.69690       -0.46190
H          1.44410       -0.84950       -1.35440
H          3.13190       -0.82150       -0.83360
H          2.39220        1.32040       -2.00960
H          1.43180        1.69110       -0.56760
H          3.17770        1.50650       -0.44520
H          8.86630        0.50540        3.04770
H          8.41760       -0.45350        6.86270
H         13.60290        2.46620        4.27840
H         15.18540        2.59210        6.37120
