
  xtb     01262218093D
 energy: -152.567792970377 gnorm: 0.000239251016 xtb: 6.4.1 (unknown)
 96104  0     0  0            999 V2000
    1.8840    1.3554    8.1977 C   0  0  0  0  0  0  0  0  0  0  0  0
    0.8335    1.8794    8.8937 C   0  0  0  0  0  0  0  0  0  0  0  0
    1.0351    2.4580   10.5405 S   0  0  0  0  0  0  0  0  0  0  0  0
   -0.6356    2.9896   10.6185 C   0  0  0  0  0  0  0  0  0  0  0  0
   -1.3114    3.7169   11.9142 S   0  0  0  0  0  0  0  0  0  0  0  0
   -1.2661    2.7166    9.4483 N   0  0  0  0  0  0  0  0  0  0  0  0
   -2.6653    3.0313    9.2365 C   0  0  0  0  0  0  0  0  0  0  0  0
   -3.5691    1.9475    9.8099 C   0  0  0  0  0  0  0  0  0  0  0  0
   -0.5298    2.0917    8.4566 C   0  0  0  0  0  0  0  0  0  0  0  0
   -1.0110    1.7937    7.3770 O   0  0  0  0  0  0  0  0  0  0  0  0
    1.9510    0.8754    6.8799 C   0  0  0  0  0  0  0  0  0  0  0  0
    3.1446    0.4432    6.2903 C   0  0  0  0  0  0  0  0  0  0  0  0
    2.9766    0.0534    4.9783 C   0  0  0  0  0  0  0  0  0  0  0  0
    3.8497   -0.4370    3.8575 C   0  0  0  0  0  0  0  0  0  0  0  0
    4.9582    0.5761    3.5181 C   0  0  0  0  0  0  0  0  0  0  0  0
    4.4150    1.9583    3.1767 C   0  0  0  0  0  0  0  0  0  0  0  0
    4.4813   -1.8034    4.1861 C   0  0  0  0  0  0  0  0  0  0  0  0
    3.4489   -2.8691    4.5333 C   0  0  0  0  0  0  0  0  0  0  0  0
    2.8363   -0.5559    2.7374 C   0  0  0  0  0  0  0  0  0  0  0  0
    1.5524   -0.2217    3.1764 C   0  0  0  0  0  0  0  0  0  0  0  0
    1.6523    0.1615    4.5510 C   0  0  0  0  0  0  0  0  0  0  0  0
    0.6042    0.7650    5.7603 S   0  0  0  0  0  0  0  0  0  0  0  0
    0.4390   -0.2848    2.3084 C   0  0  0  0  0  0  0  0  0  0  0  0
   -0.8755   -0.0137    2.7277 C   0  0  0  0  0  0  0  0  0  0  0  0
   -1.9407   -0.1065    1.8627 C   0  0  0  0  0  0  0  0  0  0  0  0
   -1.7231   -0.4456    0.5286 C   0  0  0  0  0  0  0  0  0  0  0  0
   -2.7239   -0.5676   -0.6095 C   0  0  0  0  0  0  0  0  0  0  0  0
   -3.6911   -1.7687   -0.4665 C   0  0  0  0  0  0  0  0  0  0  0  0
   -4.2053   -2.0735    0.9353 C   0  0  0  0  0  0  0  0  0  0  0  0
   -3.4424    0.7639   -0.9241 C   0  0  0  0  0  0  0  0  0  0  0  0
   -4.5451    1.2036    0.0291 C   0  0  0  0  0  0  0  0  0  0  0  0
   -1.7917   -0.8543   -1.7625 C   0  0  0  0  0  0  0  0  0  0  0  0
   -1.9090   -1.0420   -3.1212 C   0  0  0  0  0  0  0  0  0  0  0  0
   -0.6703   -1.2423   -3.7494 C   0  0  0  0  0  0  0  0  0  0  0  0
    0.6461   -1.2190   -2.5863 S   0  0  0  0  0  0  0  0  0  0  0  0
   -0.4697   -0.9342   -1.3230 C   0  0  0  0  0  0  0  0  0  0  0  0
   -0.4176   -0.6892    0.0832 C   0  0  0  0  0  0  0  0  0  0  0  0
    0.6942   -0.6498    0.9563 C   0  0  0  0  0  0  0  0  0  0  0  0
    2.0018   -0.9589    0.5370 C   0  0  0  0  0  0  0  0  0  0  0  0
    3.0590   -0.9286    1.4160 C   0  0  0  0  0  0  0  0  0  0  0  0
   -0.5572   -1.4007   -5.1356 C   0  0  0  0  0  0  0  0  0  0  0  0
    0.5540   -1.5051   -5.9351 C   0  0  0  0  0  0  0  0  0  0  0  0
    1.9498   -1.4600   -5.4810 C   0  0  0  0  0  0  0  0  0  0  0  0
    2.3576   -1.4272   -4.3322 O   0  0  0  0  0  0  0  0  0  0  0  0
    2.7740   -1.4575   -6.6998 C   0  0  0  0  0  0  0  0  0  0  0  0
    4.1471   -1.3798   -6.8252 C   0  0  0  0  0  0  0  0  0  0  0  0
    4.6915   -1.3742   -8.0998 C   0  0  0  0  0  0  0  0  0  0  0  0
    3.8830   -1.4446   -9.2317 C   0  0  0  0  0  0  0  0  0  0  0  0
    4.4917   -1.4039  -10.5975 C   0  0  0  0  0  0  0  0  0  0  0  0
    2.4972   -1.5275   -9.0947 C   0  0  0  0  0  0  0  0  0  0  0  0
    1.9397   -1.5352   -7.8285 C   0  0  0  0  0  0  0  0  0  0  0  0
    0.5480   -1.6037   -7.3805 C   0  0  0  0  0  0  0  0  0  0  0  0
   -0.5387   -1.7550   -8.2034 C   0  0  0  0  0  0  0  0  0  0  0  0
   -1.8828   -1.8520   -7.7881 C   0  0  0  0  0  0  0  0  0  0  0  0
   -3.0009   -1.9434   -7.5388 N   0  0  0  0  0  0  0  0  0  0  0  0
   -0.4606   -1.8539   -9.6082 C   0  0  0  0  0  0  0  0  0  0  0  0
   -0.4732   -1.9396  -10.7533 N   0  0  0  0  0  0  0  0  0  0  0  0
    2.8271    1.3172    8.7320 H   0  0  0  0  0  0  0  0  0  0  0  0
   -2.8035    3.1118    8.1556 H   0  0  0  0  0  0  0  0  0  0  0  0
   -2.8709    3.9918    9.7150 H   0  0  0  0  0  0  0  0  0  0  0  0
   -3.4174    1.8592   10.8830 H   0  0  0  0  0  0  0  0  0  0  0  0
   -4.6076    2.2054    9.6249 H   0  0  0  0  0  0  0  0  0  0  0  0
   -3.3554    0.9906    9.3392 H   0  0  0  0  0  0  0  0  0  0  0  0
    4.0769    0.4419    6.8270 H   0  0  0  0  0  0  0  0  0  0  0  0
    5.5325    0.1937    2.6720 H   0  0  0  0  0  0  0  0  0  0  0  0
    5.6326    0.6511    4.3738 H   0  0  0  0  0  0  0  0  0  0  0  0
    3.8605    2.3731    4.0152 H   0  0  0  0  0  0  0  0  0  0  0  0
    3.7504    1.9086    2.3172 H   0  0  0  0  0  0  0  0  0  0  0  0
    5.2345    2.6327    2.9401 H   0  0  0  0  0  0  0  0  0  0  0  0
    5.1666   -1.6739    5.0265 H   0  0  0  0  0  0  0  0  0  0  0  0
    5.0653   -2.1325    3.3244 H   0  0  0  0  0  0  0  0  0  0  0  0
    2.8662   -2.5736    5.4027 H   0  0  0  0  0  0  0  0  0  0  0  0
    3.9462   -3.8099    4.7572 H   0  0  0  0  0  0  0  0  0  0  0  0
    2.7665   -3.0296    3.7018 H   0  0  0  0  0  0  0  0  0  0  0  0
   -1.0423    0.2648    3.7576 H   0  0  0  0  0  0  0  0  0  0  0  0
   -2.9340    0.0900    2.2303 H   0  0  0  0  0  0  0  0  0  0  0  0
   -3.1673   -2.6590   -0.8247 H   0  0  0  0  0  0  0  0  0  0  0  0
   -4.5352   -1.5979   -1.1376 H   0  0  0  0  0  0  0  0  0  0  0  0
   -4.7465   -1.2360    1.3633 H   0  0  0  0  0  0  0  0  0  0  0  0
   -4.8836   -2.9232    0.8853 H   0  0  0  0  0  0  0  0  0  0  0  0
   -3.3848   -2.3349    1.5988 H   0  0  0  0  0  0  0  0  0  0  0  0
   -2.6797    1.5461   -0.9697 H   0  0  0  0  0  0  0  0  0  0  0  0
   -3.8731    0.6685   -1.9241 H   0  0  0  0  0  0  0  0  0  0  0  0
   -4.9634    2.1435   -0.3259 H   0  0  0  0  0  0  0  0  0  0  0  0
   -5.3489    0.4738    0.0649 H   0  0  0  0  0  0  0  0  0  0  0  0
   -4.1641    1.3678    1.0321 H   0  0  0  0  0  0  0  0  0  0  0  0
   -2.8288   -1.0313   -3.6792 H   0  0  0  0  0  0  0  0  0  0  0  0
    2.1657   -1.2320   -0.4944 H   0  0  0  0  0  0  0  0  0  0  0  0
    4.0526   -1.1836    1.0793 H   0  0  0  0  0  0  0  0  0  0  0  0
   -1.5173   -1.4038   -5.6380 H   0  0  0  0  0  0  0  0  0  0  0  0
    4.7692   -1.3232   -5.9452 H   0  0  0  0  0  0  0  0  0  0  0  0
    5.7631   -1.3120   -8.2226 H   0  0  0  0  0  0  0  0  0  0  0  0
    3.8617   -1.9178  -11.3190 H   0  0  0  0  0  0  0  0  0  0  0  0
    4.5965   -0.3677  -10.9215 H   0  0  0  0  0  0  0  0  0  0  0  0
    5.4803   -1.8567  -10.5980 H   0  0  0  0  0  0  0  0  0  0  0  0
    1.8835   -1.5795   -9.9794 H   0  0  0  0  0  0  0  0  0  0  0  0
  1  2  2  0  0  0  0
  2  3  1  0  0  0  0
  3  4  1  0  0  0  0
  4  5  2  0  0  0  0
  4  6  1  0  0  0  0
  6  7  1  0  0  0  0
  7  8  1  0  0  0  0
  6  9  1  0  0  0  0
  9 10  2  0  0  0  0
  1 11  1  0  0  0  0
 11 12  2  0  0  0  0
 12 13  1  0  0  0  0
 13 14  1  0  0  0  0
 14 15  1  0  0  0  0
 15 16  1  0  0  0  0
 14 17  1  0  0  0  0
 17 18  1  0  0  0  0
 14 19  1  0  0  0  0
 19 20  2  0  0  0  0
 20 21  1  0  0  0  0
 21 22  1  0  0  0  0
 20 23  1  0  0  0  0
 23 24  2  0  0  0  0
 24 25  1  0  0  0  0
 25 26  2  0  0  0  0
 26 27  1  0  0  0  0
 27 28  1  0  0  0  0
 28 29  1  0  0  0  0
 27 30  1  0  0  0  0
 30 31  1  0  0  0  0
 27 32  1  0  0  0  0
 32 33  1  0  0  0  0
 33 34  2  0  0  0  0
 34 35  1  0  0  0  0
 35 36  1  0  0  0  0
 36 37  1  0  0  0  0
 37 38  2  0  0  0  0
 38 39  1  0  0  0  0
 39 40  2  0  0  0  0
 34 41  1  0  0  0  0
 41 42  2  0  0  0  0
 42 43  1  0  0  0  0
 43 44  2  0  0  0  0
 43 45  1  0  0  0  0
 45 46  2  0  0  0  0
 46 47  1  0  0  0  0
 47 48  2  0  0  0  0
 48 49  1  0  0  0  0
 48 50  1  0  0  0  0
 50 51  2  0  0  0  0
 51 52  1  0  0  0  0
 52 53  2  0  0  0  0
 53 54  1  0  0  0  0
 54 55  3  0  0  0  0
 53 56  1  0  0  0  0
 56 57  3  0  0  0  0
  9  2  1  0  0  0  0
 22 11  1  0  0  0  0
 38 23  1  0  0  0  0
 52 42  1  0  0  0  0
 21 13  2  0  0  0  0
 37 26  1  0  0  0  0
 51 45  1  0  0  0  0
 40 19  1  0  0  0  0
 36 32  2  0  0  0  0
  1 58  1  0  0  0  0
  7 59  1  0  0  0  0
  7 60  1  0  0  0  0
  8 61  1  0  0  0  0
  8 62  1  0  0  0  0
  8 63  1  0  0  0  0
 12 64  1  0  0  0  0
 15 65  1  0  0  0  0
 15 66  1  0  0  0  0
 16 67  1  0  0  0  0
 16 68  1  0  0  0  0
 16 69  1  0  0  0  0
 17 70  1  0  0  0  0
 17 71  1  0  0  0  0
 18 72  1  0  0  0  0
 18 73  1  0  0  0  0
 18 74  1  0  0  0  0
 24 75  1  0  0  0  0
 25 76  1  0  0  0  0
 28 77  1  0  0  0  0
 28 78  1  0  0  0  0
 29 79  1  0  0  0  0
 29 80  1  0  0  0  0
 29 81  1  0  0  0  0
 30 82  1  0  0  0  0
 30 83  1  0  0  0  0
 31 84  1  0  0  0  0
 31 85  1  0  0  0  0
 31 86  1  0  0  0  0
 33 87  1  0  0  0  0
 39 88  1  0  0  0  0
 40 89  1  0  0  0  0
 41 90  1  0  0  0  0
 46 91  1  0  0  0  0
 47 92  1  0  0  0  0
 49 93  1  0  0  0  0
 49 94  1  0  0  0  0
 49 95  1  0  0  0  0
 50 96  1  0  0  0  0
M  END
