96

C          1.88400        1.35540        8.19770
C          0.83350        1.87940        8.89370
S          1.03510        2.45800       10.54050
C         -0.63560        2.98960       10.61850
S         -1.31140        3.71690       11.91420
N         -1.26610        2.71660        9.44830
C         -2.66530        3.03130        9.23650
C         -3.56910        1.94750        9.80990
C         -0.52980        2.09170        8.45660
O         -1.01100        1.79370        7.37700
C          1.95100        0.87540        6.87990
C          3.14460        0.44320        6.29030
C          2.97660        0.05340        4.97830
C          3.84970       -0.43700        3.85750
C          4.95820        0.57610        3.51810
C          4.41500        1.95830        3.17670
C          4.48130       -1.80340        4.18610
C          3.44890       -2.86910        4.53330
C          2.83630       -0.55590        2.73740
C          1.55240       -0.22170        3.17640
C          1.65230        0.16150        4.55100
S          0.60420        0.76500        5.76030
C          0.43900       -0.28480        2.30840
C         -0.87550       -0.01370        2.72770
C         -1.94070       -0.10650        1.86270
C         -1.72310       -0.44560        0.52860
C         -2.72390       -0.56760       -0.60950
C         -3.69110       -1.76870       -0.46650
C         -4.20530       -2.07350        0.93530
C         -3.44240        0.76390       -0.92410
C         -4.54510        1.20360        0.02910
C         -1.79170       -0.85430       -1.76250
C         -1.90900       -1.04200       -3.12120
C         -0.67030       -1.24230       -3.74940
S          0.64610       -1.21900       -2.58630
C         -0.46970       -0.93420       -1.32300
C         -0.41760       -0.68920        0.08320
C          0.69420       -0.64980        0.95630
C          2.00180       -0.95890        0.53700
C          3.05900       -0.92860        1.41600
C         -0.55720       -1.40070       -5.13560
C          0.55400       -1.50510       -5.93510
C          1.94980       -1.46000       -5.48100
O          2.35760       -1.42720       -4.33220
C          2.77400       -1.45750       -6.69980
C          4.14710       -1.37980       -6.82520
C          4.69150       -1.37420       -8.09980
C          3.88300       -1.44460       -9.23170
C          4.49170       -1.40390      -10.59750
C          2.49720       -1.52750       -9.09470
C          1.93970       -1.53520       -7.82850
C          0.54800       -1.60370       -7.38050
C         -0.53870       -1.75500       -8.20340
C         -1.88280       -1.85200       -7.78810
N         -3.00090       -1.94340       -7.53880
C         -0.46060       -1.85390       -9.60820
N         -0.47320       -1.93960      -10.75330
H          2.82710        1.31720        8.73200
H         -2.80350        3.11180        8.15560
H         -2.87090        3.99180        9.71500
H         -3.41740        1.85920       10.88300
H         -4.60760        2.20540        9.62490
H         -3.35540        0.99060        9.33920
H          4.07690        0.44190        6.82700
H          5.53250        0.19370        2.67200
H          5.63260        0.65110        4.37380
H          3.86050        2.37310        4.01520
H          3.75040        1.90860        2.31720
H          5.23450        2.63270        2.94010
H          5.16660       -1.67390        5.02650
H          5.06530       -2.13250        3.32440
H          2.86620       -2.57360        5.40270
H          3.94620       -3.80990        4.75720
H          2.76650       -3.02960        3.70180
H         -1.04230        0.26480        3.75760
H         -2.93400        0.09000        2.23030
H         -3.16730       -2.65900       -0.82470
H         -4.53520       -1.59790       -1.13760
H         -4.74650       -1.23600        1.36330
H         -4.88360       -2.92320        0.88530
H         -3.38480       -2.33490        1.59880
H         -2.67970        1.54610       -0.96970
H         -3.87310        0.66850       -1.92410
H         -4.96340        2.14350       -0.32590
H         -5.34890        0.47380        0.06490
H         -4.16410        1.36780        1.03210
H         -2.82880       -1.03130       -3.67920
H          2.16570       -1.23200       -0.49440
H          4.05260       -1.18360        1.07930
H         -1.51730       -1.40380       -5.63800
H          4.76920       -1.32320       -5.94520
H          5.76310       -1.31200       -8.22260
H          3.86170       -1.91780      -11.31900
H          4.59650       -0.36770      -10.92150
H          5.48030       -1.85670      -10.59800
H          1.88350       -1.57950       -9.97940
