
  xtb     02112207453D
 energy: -213.633047548892 gnorm: 0.000948857912 xtb: 6.4.1 (unknown)
117131  0     0  0            999 V2000
    6.9161    0.4728    4.0497 C   0  0  0  0  0  0  0  0  0  0  0  0
    7.1965   -0.7654    4.5623 C   0  0  0  0  0  0  0  0  0  0  0  0
    6.3881   -1.9863    4.4007 C   0  0  0  0  0  0  0  0  0  0  0  0
    5.3570   -2.1186    3.7654 O   0  0  0  0  0  0  0  0  0  0  0  0
    7.0862   -3.0190    5.1739 C   0  0  0  0  0  0  0  0  0  0  0  0
    8.2268   -2.4645    5.7413 C   0  0  0  0  0  0  0  0  0  0  0  0
    9.1537   -3.5795    6.6771 S   0  0  0  0  0  0  0  0  0  0  0  0
    7.9988   -4.8242    6.3135 C   0  0  0  0  0  0  0  0  0  0  0  0
    7.8895   -6.1844    6.6571 C   0  0  0  0  0  0  0  0  0  0  0  0
    6.7769   -6.7383    6.1059 C   0  0  0  0  0  0  0  0  0  0  0  0
    5.8321   -5.6369    5.1628 S   0  0  0  0  0  0  0  0  0  0  0  0
    6.9510   -4.3730    5.4999 C   0  0  0  0  0  0  0  0  0  0  0  0
    8.3547   -1.0781    5.3858 C   0  0  0  0  0  0  0  0  0  0  0  0
    9.4029   -0.2707    5.7548 C   0  0  0  0  0  0  0  0  0  0  0  0
   10.4442   -0.7721    6.5631 C   0  0  0  0  0  0  0  0  0  0  0  0
   11.2940   -1.1725    7.2226 N   0  0  0  0  0  0  0  0  0  0  0  0
    9.5899    1.0738    5.3845 C   0  0  0  0  0  0  0  0  0  0  0  0
    9.8204    2.1667    5.1148 N   0  0  0  0  0  0  0  0  0  0  0  0
    5.8660    0.9030    3.2274 C   0  0  0  0  0  0  0  0  0  0  0  0
    5.7717    2.2323    2.7846 C   0  0  0  0  0  0  0  0  0  0  0  0
    6.7278    3.2929    3.1375 C   0  0  0  0  0  0  0  0  0  0  0  0
    6.3057    4.2850    4.0169 C   0  0  0  0  0  0  0  0  0  0  0  0
    7.1648    5.2978    4.3962 C   0  0  0  0  0  0  0  0  0  0  0  0
    8.4528    5.3284    3.8904 C   0  0  0  0  0  0  0  0  0  0  0  0
    8.8669    4.3560    2.9995 C   0  0  0  0  0  0  0  0  0  0  0  0
    8.0205    3.3275    2.6092 C   0  0  0  0  0  0  0  0  0  0  0  0
    8.4738    2.3393    1.5717 C   0  0  0  0  0  0  0  0  0  0  0  0
    8.0222    2.7923    0.1813 C   0  0  0  0  0  0  0  0  0  0  0  0
    4.6424    2.4316    2.0000 C   0  0  0  0  0  0  0  0  0  0  0  0
    4.0126    3.8351    1.1604 S   0  0  0  0  0  0  0  0  0  0  0  0
    2.7151    2.8557    0.5656 C   0  0  0  0  0  0  0  0  0  0  0  0
    1.5973    2.9710   -0.2767 C   0  0  0  0  0  0  0  0  0  0  0  0
    1.1317    3.9996   -1.1294 C   0  0  0  0  0  0  0  0  0  0  0  0
    0.0396    3.7272   -2.0277 C   0  0  0  0  0  0  0  0  0  0  0  0
   -0.2256    4.7519   -2.8211 N   0  0  0  0  0  0  0  0  0  0  0  0
    0.7952    5.9575   -2.4684 S   0  0  0  0  0  0  0  0  0  0  0  0
    1.6216    5.2178   -1.2899 N   0  0  0  0  0  0  0  0  0  0  0  0
   -0.6464    2.4939   -1.9268 C   0  0  0  0  0  0  0  0  0  0  0  0
   -1.7996    1.9813   -2.5419 C   0  0  0  0  0  0  0  0  0  0  0  0
   -2.9053    2.4033   -3.8046 S   0  0  0  0  0  0  0  0  0  0  0  0
   -3.7927    0.9284   -3.4734 C   0  0  0  0  0  0  0  0  0  0  0  0
   -4.9109    0.3539   -4.0588 C   0  0  0  0  0  0  0  0  0  0  0  0
   -5.6605    0.9593   -5.1703 C   0  0  0  0  0  0  0  0  0  0  0  0
   -5.6091    0.4330   -6.4632 C   0  0  0  0  0  0  0  0  0  0  0  0
   -4.7152   -0.7245   -6.8074 C   0  0  0  0  0  0  0  0  0  0  0  0
   -3.2999   -0.2251   -7.1070 C   0  0  0  0  0  0  0  0  0  0  0  0
   -6.3446    1.0578   -7.4608 C   0  0  0  0  0  0  0  0  0  0  0  0
   -7.1151    2.1737   -7.1932 C   0  0  0  0  0  0  0  0  0  0  0  0
   -7.1486    2.6992   -5.9131 C   0  0  0  0  0  0  0  0  0  0  0  0
   -6.4197    2.0951   -4.9072 C   0  0  0  0  0  0  0  0  0  0  0  0
   -5.2558   -0.8623   -3.4394 C   0  0  0  0  0  0  0  0  0  0  0  0
   -4.1459   -1.2823   -2.1350 S   0  0  0  0  0  0  0  0  0  0  0  0
   -3.2472    0.1602   -2.4276 C   0  0  0  0  0  0  0  0  0  0  0  0
   -2.1045    0.7675   -1.9053 C   0  0  0  0  0  0  0  0  0  0  0  0
   -1.1697    0.4972   -0.9362 N   0  0  0  0  0  0  0  0  0  0  0  0
   -0.2497    1.5252   -0.9652 C   0  0  0  0  0  0  0  0  0  0  0  0
    0.9678    1.6969   -0.2734 C   0  0  0  0  0  0  0  0  0  0  0  0
    1.7101    0.8160    0.4871 N   0  0  0  0  0  0  0  0  0  0  0  0
    2.7680    1.5230    1.0018 C   0  0  0  0  0  0  0  0  0  0  0  0
    3.8736    1.2692    1.8168 C   0  0  0  0  0  0  0  0  0  0  0  0
    4.5379   -0.0932    2.6396 S   0  0  0  0  0  0  0  0  0  0  0  0
    1.8149   -0.6177    0.2990 C   0  0  0  0  0  0  0  0  0  0  0  0
    2.9931   -0.9692   -0.6085 C   0  0  0  0  0  0  0  0  0  0  0  0
   -1.5137   -0.3197    0.2114 C   0  0  0  0  0  0  0  0  0  0  0  0
   -2.7403    0.2338    0.9356 C   0  0  0  0  0  0  0  0  0  0  0  0
   -6.3661   -1.6044   -3.8503 C   0  0  0  0  0  0  0  0  0  0  0  0
   -6.8724   -2.7917   -3.3770 C   0  0  0  0  0  0  0  0  0  0  0  0
   -6.3688   -3.5419   -2.2244 C   0  0  0  0  0  0  0  0  0  0  0  0
   -5.3897   -3.2925   -1.5407 O   0  0  0  0  0  0  0  0  0  0  0  0
   -7.2949   -4.6733   -2.0380 C   0  0  0  0  0  0  0  0  0  0  0  0
   -7.2762   -5.6631   -1.0745 C   0  0  0  0  0  0  0  0  0  0  0  0
   -8.2710   -6.6277   -1.0965 C   0  0  0  0  0  0  0  0  0  0  0  0
   -9.2564   -6.5805   -2.0756 C   0  0  0  0  0  0  0  0  0  0  0  0
  -10.4875   -7.7856   -2.0847 Cl  0  0  0  0  0  0  0  0  0  0  0  0
   -9.2845   -5.5898   -3.0534 C   0  0  0  0  0  0  0  0  0  0  0  0
   -8.2895   -4.6282   -3.0305 C   0  0  0  0  0  0  0  0  0  0  0  0
   -8.0305   -3.4807   -3.9041 C   0  0  0  0  0  0  0  0  0  0  0  0
   -8.7424   -3.1731   -5.0347 C   0  0  0  0  0  0  0  0  0  0  0  0
   -8.4549   -2.1259   -5.9355 C   0  0  0  0  0  0  0  0  0  0  0  0
   -8.2859   -1.3195   -6.7366 N   0  0  0  0  0  0  0  0  0  0  0  0
   -9.8669   -3.8984   -5.4827 C   0  0  0  0  0  0  0  0  0  0  0  0
  -10.7884   -4.4390   -5.9031 N   0  0  0  0  0  0  0  0  0  0  0  0
    7.6069    1.2702    4.3013 H   0  0  0  0  0  0  0  0  0  0  0  0
    8.5924   -6.7150    7.2715 H   0  0  0  0  0  0  0  0  0  0  0  0
    6.4414   -7.7524    6.1973 H   0  0  0  0  0  0  0  0  0  0  0  0
    5.3000    4.2458    4.4102 H   0  0  0  0  0  0  0  0  0  0  0  0
    6.8297    6.0573    5.0864 H   0  0  0  0  0  0  0  0  0  0  0  0
    9.1335    6.1115    4.1876 H   0  0  0  0  0  0  0  0  0  0  0  0
    9.8699    4.3868    2.6010 H   0  0  0  0  0  0  0  0  0  0  0  0
    8.0672    1.3469    1.7737 H   0  0  0  0  0  0  0  0  0  0  0  0
    9.5625    2.2679    1.5940 H   0  0  0  0  0  0  0  0  0  0  0  0
    6.9373    2.8559    0.1354 H   0  0  0  0  0  0  0  0  0  0  0  0
    8.4302    3.7741   -0.0473 H   0  0  0  0  0  0  0  0  0  0  0  0
    8.3612    2.0891   -0.5760 H   0  0  0  0  0  0  0  0  0  0  0  0
   -5.1131   -1.2371   -7.6845 H   0  0  0  0  0  0  0  0  0  0  0  0
   -4.6745   -1.4431   -5.9871 H   0  0  0  0  0  0  0  0  0  0  0  0
   -3.3154    0.4817   -7.9332 H   0  0  0  0  0  0  0  0  0  0  0  0
   -2.6521   -1.0574   -7.3727 H   0  0  0  0  0  0  0  0  0  0  0  0
   -2.8808    0.2769   -6.2376 H   0  0  0  0  0  0  0  0  0  0  0  0
   -6.3161    0.6533   -8.4613 H   0  0  0  0  0  0  0  0  0  0  0  0
   -7.6870    2.6356   -7.9836 H   0  0  0  0  0  0  0  0  0  0  0  0
   -7.7413    3.5751   -5.6963 H   0  0  0  0  0  0  0  0  0  0  0  0
   -6.4419    2.4923   -3.9024 H   0  0  0  0  0  0  0  0  0  0  0  0
    1.9496   -1.0874    1.2779 H   0  0  0  0  0  0  0  0  0  0  0  0
    0.9033   -0.9883   -0.1647 H   0  0  0  0  0  0  0  0  0  0  0  0
    3.0176   -2.0433   -0.7684 H   0  0  0  0  0  0  0  0  0  0  0  0
    3.9345   -0.6677   -0.1587 H   0  0  0  0  0  0  0  0  0  0  0  0
    2.8878   -0.4730   -1.5711 H   0  0  0  0  0  0  0  0  0  0  0  0
   -0.6777   -0.3229    0.9086 H   0  0  0  0  0  0  0  0  0  0  0  0
   -1.7168   -1.3392   -0.1304 H   0  0  0  0  0  0  0  0  0  0  0  0
   -2.9317   -0.3595    1.8251 H   0  0  0  0  0  0  0  0  0  0  0  0
   -3.6201    0.1924    0.3004 H   0  0  0  0  0  0  0  0  0  0  0  0
   -2.5680    1.2662    1.2331 H   0  0  0  0  0  0  0  0  0  0  0  0
   -6.8998   -1.1399   -4.6719 H   0  0  0  0  0  0  0  0  0  0  0  0
   -6.5003   -5.6754   -0.3249 H   0  0  0  0  0  0  0  0  0  0  0  0
   -8.2897   -7.4155   -0.3602 H   0  0  0  0  0  0  0  0  0  0  0  0
  -10.0676   -5.5910   -3.7931 H   0  0  0  0  0  0  0  0  0  0  0  0
  1  2  2  0  0  0  0
  2  3  1  0  0  0  0
  3  4  2  0  0  0  0
  3  5  1  0  0  0  0
  5  6  2  0  0  0  0
  6  7  1  0  0  0  0
  7  8  1  0  0  0  0
  8  9  1  0  0  0  0
  9 10  2  0  0  0  0
 10 11  1  0  0  0  0
 11 12  1  0  0  0  0
  6 13  1  0  0  0  0
 13 14  2  0  0  0  0
 14 15  1  0  0  0  0
 15 16  3  0  0  0  0
 14 17  1  0  0  0  0
 17 18  3  0  0  0  0
  1 19  1  0  0  0  0
 19 20  2  0  0  0  0
 20 21  1  0  0  0  0
 21 22  2  0  0  0  0
 22 23  1  0  0  0  0
 23 24  2  0  0  0  0
 24 25  1  0  0  0  0
 25 26  2  0  0  0  0
 26 27  1  0  0  0  0
 27 28  1  0  0  0  0
 20 29  1  0  0  0  0
 29 30  1  0  0  0  0
 30 31  1  0  0  0  0
 31 32  1  0  0  0  0
 32 33  1  0  0  0  0
 33 34  1  0  0  0  0
 34 35  2  0  0  0  0
 35 36  1  0  0  0  0
 36 37  1  0  0  0  0
 34 38  1  0  0  0  0
 38 39  1  0  0  0  0
 39 40  1  0  0  0  0
 40 41  1  0  0  0  0
 41 42  1  0  0  0  0
 42 43  1  0  0  0  0
 43 44  2  0  0  0  0
 44 45  1  0  0  0  0
 45 46  1  0  0  0  0
 44 47  1  0  0  0  0
 47 48  2  0  0  0  0
 48 49  1  0  0  0  0
 49 50  2  0  0  0  0
 42 51  2  0  0  0  0
 51 52  1  0  0  0  0
 52 53  1  0  0  0  0
 53 54  1  0  0  0  0
 54 55  1  0  0  0  0
 55 56  1  0  0  0  0
 56 57  1  0  0  0  0
 57 58  1  0  0  0  0
 58 59  1  0  0  0  0
 59 60  1  0  0  0  0
 60 61  1  0  0  0  0
 58 62  1  0  0  0  0
 62 63  1  0  0  0  0
 55 64  1  0  0  0  0
 64 65  1  0  0  0  0
 51 66  1  0  0  0  0
 66 67  2  0  0  0  0
 67 68  1  0  0  0  0
 68 69  2  0  0  0  0
 68 70  1  0  0  0  0
 70 71  2  0  0  0  0
 71 72  1  0  0  0  0
 72 73  2  0  0  0  0
 73 74  1  0  0  0  0
 73 75  1  0  0  0  0
 75 76  2  0  0  0  0
 76 77  1  0  0  0  0
 77 78  2  0  0  0  0
 78 79  1  0  0  0  0
 79 80  3  0  0  0  0
 78 81  1  0  0  0  0
 81 82  3  0  0  0  0
 13  2  1  0  0  0  0
 61 19  1  0  0  0  0
 77 67  1  0  0  0  0
 12  5  1  0  0  0  0
 26 21  1  0  0  0  0
 60 29  2  0  0  0  0
 76 70  1  0  0  0  0
 12  8  2  0  0  0  0
 59 31  2  0  0  0  0
 57 32  2  0  0  0  0
 37 33  2  0  0  0  0
 56 38  2  0  0  0  0
 54 39  2  0  0  0  0
 53 41  2  0  0  0  0
 50 43  1  0  0  0  0
  1 83  1  0  0  0  0
  9 84  1  0  0  0  0
 10 85  1  0  0  0  0
 22 86  1  0  0  0  0
 23 87  1  0  0  0  0
 24 88  1  0  0  0  0
 25 89  1  0  0  0  0
 27 90  1  0  0  0  0
 27 91  1  0  0  0  0
 28 92  1  0  0  0  0
 28 93  1  0  0  0  0
 28 94  1  0  0  0  0
 45 95  1  0  0  0  0
 45 96  1  0  0  0  0
 46 97  1  0  0  0  0
 46 98  1  0  0  0  0
 46 99  1  0  0  0  0
 47100  1  0  0  0  0
 48101  1  0  0  0  0
 49102  1  0  0  0  0
 50103  1  0  0  0  0
 62104  1  0  0  0  0
 62105  1  0  0  0  0
 63106  1  0  0  0  0
 63107  1  0  0  0  0
 63108  1  0  0  0  0
 64109  1  0  0  0  0
 64110  1  0  0  0  0
 65111  1  0  0  0  0
 65112  1  0  0  0  0
 65113  1  0  0  0  0
 66114  1  0  0  0  0
 71115  1  0  0  0  0
 72116  1  0  0  0  0
 75117  1  0  0  0  0
M  END
