117

C          6.91610        0.47280        4.04970
C          7.19650       -0.76540        4.56230
C          6.38810       -1.98630        4.40070
O          5.35700       -2.11860        3.76540
C          7.08620       -3.01900        5.17390
C          8.22680       -2.46450        5.74130
S          9.15370       -3.57950        6.67710
C          7.99880       -4.82420        6.31350
C          7.88950       -6.18440        6.65710
C          6.77690       -6.73830        6.10590
S          5.83210       -5.63690        5.16280
C          6.95100       -4.37300        5.49990
C          8.35470       -1.07810        5.38580
C          9.40290       -0.27070        5.75480
C         10.44420       -0.77210        6.56310
N         11.29400       -1.17250        7.22260
C          9.58990        1.07380        5.38450
N          9.82040        2.16670        5.11480
C          5.86600        0.90300        3.22740
C          5.77170        2.23230        2.78460
C          6.72780        3.29290        3.13750
C          6.30570        4.28500        4.01690
C          7.16480        5.29780        4.39620
C          8.45280        5.32840        3.89040
C          8.86690        4.35600        2.99950
C          8.02050        3.32750        2.60920
C          8.47380        2.33930        1.57170
C          8.02220        2.79230        0.18130
C          4.64240        2.43160        2.00000
S          4.01260        3.83510        1.16040
C          2.71510        2.85570        0.56560
C          1.59730        2.97100       -0.27670
C          1.13170        3.99960       -1.12940
C          0.03960        3.72720       -2.02770
N         -0.22560        4.75190       -2.82110
S          0.79520        5.95750       -2.46840
N          1.62160        5.21780       -1.28990
C         -0.64640        2.49390       -1.92680
C         -1.79960        1.98130       -2.54190
S         -2.90530        2.40330       -3.80460
C         -3.79270        0.92840       -3.47340
C         -4.91090        0.35390       -4.05880
C         -5.66050        0.95930       -5.17030
C         -5.60910        0.43300       -6.46320
C         -4.71520       -0.72450       -6.80740
C         -3.29990       -0.22510       -7.10700
C         -6.34460        1.05780       -7.46080
C         -7.11510        2.17370       -7.19320
C         -7.14860        2.69920       -5.91310
C         -6.41970        2.09510       -4.90720
C         -5.25580       -0.86230       -3.43940
S         -4.14590       -1.28230       -2.13500
C         -3.24720        0.16020       -2.42760
C         -2.10450        0.76750       -1.90530
N         -1.16970        0.49720       -0.93620
C         -0.24970        1.52520       -0.96520
C          0.96780        1.69690       -0.27340
N          1.71010        0.81600        0.48710
C          2.76800        1.52300        1.00180
C          3.87360        1.26920        1.81680
S          4.53790       -0.09320        2.63960
C          1.81490       -0.61770        0.29900
C          2.99310       -0.96920       -0.60850
C         -1.51370       -0.31970        0.21140
C         -2.74030        0.23380        0.93560
C         -6.36610       -1.60440       -3.85030
C         -6.87240       -2.79170       -3.37700
C         -6.36880       -3.54190       -2.22440
O         -5.38970       -3.29250       -1.54070
C         -7.29490       -4.67330       -2.03800
C         -7.27620       -5.66310       -1.07450
C         -8.27100       -6.62770       -1.09650
C         -9.25640       -6.58050       -2.07560
Cl       -10.48750       -7.78560       -2.08470
C         -9.28450       -5.58980       -3.05340
C         -8.28950       -4.62820       -3.03050
C         -8.03050       -3.48070       -3.90410
C         -8.74240       -3.17310       -5.03470
C         -8.45490       -2.12590       -5.93550
N         -8.28590       -1.31950       -6.73660
C         -9.86690       -3.89840       -5.48270
N        -10.78840       -4.43900       -5.90310
H          7.60690        1.27020        4.30130
H          8.59240       -6.71500        7.27150
H          6.44140       -7.75240        6.19730
H          5.30000        4.24580        4.41020
H          6.82970        6.05730        5.08640
H          9.13350        6.11150        4.18760
H          9.86990        4.38680        2.60100
H          8.06720        1.34690        1.77370
H          9.56250        2.26790        1.59400
H          6.93730        2.85590        0.13540
H          8.43020        3.77410       -0.04730
H          8.36120        2.08910       -0.57600
H         -5.11310       -1.23710       -7.68450
H         -4.67450       -1.44310       -5.98710
H         -3.31540        0.48170       -7.93320
H         -2.65210       -1.05740       -7.37270
H         -2.88080        0.27690       -6.23760
H         -6.31610        0.65330       -8.46130
H         -7.68700        2.63560       -7.98360
H         -7.74130        3.57510       -5.69630
H         -6.44190        2.49230       -3.90240
H          1.94960       -1.08740        1.27790
H          0.90330       -0.98830       -0.16470
H          3.01760       -2.04330       -0.76840
H          3.93450       -0.66770       -0.15870
H          2.88780       -0.47300       -1.57110
H         -0.67770       -0.32290        0.90860
H         -1.71680       -1.33920       -0.13040
H         -2.93170       -0.35950        1.82510
H         -3.62010        0.19240        0.30040
H         -2.56800        1.26620        1.23310
H         -6.89980       -1.13990       -4.67190
H         -6.50030       -5.67540       -0.32490
H         -8.28970       -7.41550       -0.36020
H        -10.06760       -5.59100       -3.79310
