
  xtb     01262216453D
 energy: -209.359984708142 gnorm: 0.000405898087 xtb: 6.4.1 (unknown)
119132  0     0  0            999 V2000
   -0.4743    7.1403   -3.9722 C   0  0  0  0  0  0  0  0  0  0  0  0
    0.7083    7.7919   -3.7470 C   0  0  0  0  0  0  0  0  0  0  0  0
    1.7768    7.3796   -2.8208 C   0  0  0  0  0  0  0  0  0  0  0  0
    1.8049    6.3912   -2.1089 O   0  0  0  0  0  0  0  0  0  0  0  0
    2.8061    8.4190   -2.9296 C   0  0  0  0  0  0  0  0  0  0  0  0
    2.3873    9.3752   -3.8469 C   0  0  0  0  0  0  0  0  0  0  0  0
    3.5151   10.6605   -4.0792 S   0  0  0  0  0  0  0  0  0  0  0  0
    4.5809    9.9159   -2.9281 C   0  0  0  0  0  0  0  0  0  0  0  0
    5.8487   10.2475   -2.4155 C   0  0  0  0  0  0  0  0  0  0  0  0
    6.2701    9.3171   -1.5182 C   0  0  0  0  0  0  0  0  0  0  0  0
    5.1525    8.0196   -1.2679 S   0  0  0  0  0  0  0  0  0  0  0  0
    4.0644    8.7253   -2.3997 C   0  0  0  0  0  0  0  0  0  0  0  0
    1.1021    9.0351   -4.3920 C   0  0  0  0  0  0  0  0  0  0  0  0
    0.4382    9.7658   -5.3474 C   0  0  0  0  0  0  0  0  0  0  0  0
    0.9920   10.9627   -5.8469 C   0  0  0  0  0  0  0  0  0  0  0  0
    1.4327   11.9404   -6.2560 N   0  0  0  0  0  0  0  0  0  0  0  0
   -0.7970    9.4378   -5.9365 C   0  0  0  0  0  0  0  0  0  0  0  0
   -1.7928    9.2293   -6.4709 N   0  0  0  0  0  0  0  0  0  0  0  0
   -0.9579    5.9274   -3.4648 C   0  0  0  0  0  0  0  0  0  0  0  0
   -2.1970    5.4013   -3.8654 C   0  0  0  0  0  0  0  0  0  0  0  0
   -3.1389    6.1416   -4.7177 C   0  0  0  0  0  0  0  0  0  0  0  0
   -3.7454    7.2793   -4.1914 C   0  0  0  0  0  0  0  0  0  0  0  0
   -4.6370    8.0145   -4.9469 C   0  0  0  0  0  0  0  0  0  0  0  0
   -4.9240    7.6195   -6.2417 C   0  0  0  0  0  0  0  0  0  0  0  0
   -4.3167    6.4954   -6.7693 C   0  0  0  0  0  0  0  0  0  0  0  0
   -3.4213    5.7398   -6.0246 C   0  0  0  0  0  0  0  0  0  0  0  0
   -2.7060    4.5816   -6.6594 C   0  0  0  0  0  0  0  0  0  0  0  0
   -1.3254    5.0183   -7.1553 C   0  0  0  0  0  0  0  0  0  0  0  0
   -2.4236    4.1466   -3.3098 C   0  0  0  0  0  0  0  0  0  0  0  0
   -3.7568    3.0127   -3.4276 S   0  0  0  0  0  0  0  0  0  0  0  0
   -2.9082    1.9562   -2.3507 C   0  0  0  0  0  0  0  0  0  0  0  0
   -3.0917    0.7241   -1.7080 C   0  0  0  0  0  0  0  0  0  0  0  0
   -4.2011   -0.1502   -1.6830 C   0  0  0  0  0  0  0  0  0  0  0  0
   -4.1619   -1.2958   -0.8220 C   0  0  0  0  0  0  0  0  0  0  0  0
   -5.2867   -1.9926   -0.8550 N   0  0  0  0  0  0  0  0  0  0  0  0
   -6.3060   -1.2719   -1.8864 S   0  0  0  0  0  0  0  0  0  0  0  0
   -5.3514   -0.0420   -2.3286 N   0  0  0  0  0  0  0  0  0  0  0  0
   -2.9713   -1.5768   -0.1156 C   0  0  0  0  0  0  0  0  0  0  0  0
   -2.6089   -2.6735    0.6752 C   0  0  0  0  0  0  0  0  0  0  0  0
   -3.3069   -4.1388    1.2774 S   0  0  0  0  0  0  0  0  0  0  0  0
   -1.7517   -4.5417    1.9838 C   0  0  0  0  0  0  0  0  0  0  0  0
   -1.3191   -5.6168    2.7407 C   0  0  0  0  0  0  0  0  0  0  0  0
   -2.1627   -6.7734    3.0841 C   0  0  0  0  0  0  0  0  0  0  0  0
   -2.6498   -6.9693    4.3792 C   0  0  0  0  0  0  0  0  0  0  0  0
   -2.4159   -5.9567    5.4646 C   0  0  0  0  0  0  0  0  0  0  0  0
   -3.4444   -4.8283    5.3587 C   0  0  0  0  0  0  0  0  0  0  0  0
   -3.4326   -8.0886    4.6298 C   0  0  0  0  0  0  0  0  0  0  0  0
   -3.7316   -8.9955    3.6292 C   0  0  0  0  0  0  0  0  0  0  0  0
   -3.2592   -8.7863    2.3451 C   0  0  0  0  0  0  0  0  0  0  0  0
   -2.4802   -7.6771    2.0755 C   0  0  0  0  0  0  0  0  0  0  0  0
    0.0368   -5.4887    3.1107 C   0  0  0  0  0  0  0  0  0  0  0  0
    0.7454   -3.9973    2.5051 S   0  0  0  0  0  0  0  0  0  0  0  0
   -0.7529   -3.5737    1.7593 C   0  0  0  0  0  0  0  0  0  0  0  0
   -1.2582   -2.5085    1.0103 C   0  0  0  0  0  0  0  0  0  0  0  0
   -0.7827   -1.3468    0.4624 N   0  0  0  0  0  0  0  0  0  0  0  0
   -1.8199   -0.7378   -0.2134 C   0  0  0  0  0  0  0  0  0  0  0  0
   -1.9236    0.4861   -0.9249 C   0  0  0  0  0  0  0  0  0  0  0  0
   -1.0697    1.5679   -1.0715 N   0  0  0  0  0  0  0  0  0  0  0  0
   -1.6706    2.4538   -1.9283 C   0  0  0  0  0  0  0  0  0  0  0  0
   -1.3834    3.7096   -2.4713 C   0  0  0  0  0  0  0  0  0  0  0  0
   -0.0963    4.8532   -2.3701 S   0  0  0  0  0  0  0  0  0  0  0  0
   -0.0697    2.0880   -0.1622 C   0  0  0  0  0  0  0  0  0  0  0  0
   -0.7240    2.6536    1.0965 C   0  0  0  0  0  0  0  0  0  0  0  0
    0.6448   -1.1298    0.3885 C   0  0  0  0  0  0  0  0  0  0  0  0
    1.2166   -0.5812    1.6950 C   0  0  0  0  0  0  0  0  0  0  0  0
    0.6710   -6.4863    3.8510 C   0  0  0  0  0  0  0  0  0  0  0  0
    1.9365   -6.6041    4.4027 C   0  0  0  0  0  0  0  0  0  0  0  0
    2.9244   -5.5432    4.2599 C   0  0  0  0  0  0  0  0  0  0  0  0
    2.7214   -4.5239    3.6017 O   0  0  0  0  0  0  0  0  0  0  0  0
    4.1280   -5.6882    4.9000 N   0  0  0  0  0  0  0  0  0  0  0  0
    5.0997   -4.6088    4.7606 C   0  0  0  0  0  0  0  0  0  0  0  0
    5.9180   -4.7671    3.4858 C   0  0  0  0  0  0  0  0  0  0  0  0
    4.5183   -6.8002    5.6415 C   0  0  0  0  0  0  0  0  0  0  0  0
    5.6125   -6.8448    6.1624 O   0  0  0  0  0  0  0  0  0  0  0  0
    3.5194   -7.8620    5.7305 C   0  0  0  0  0  0  0  0  0  0  0  0
    2.2855   -7.7775    5.1461 C   0  0  0  0  0  0  0  0  0  0  0  0
    1.3153   -8.9097    5.2914 C   0  0  0  0  0  0  0  0  0  0  0  0
    3.9086   -8.9982    6.4717 C   0  0  0  0  0  0  0  0  0  0  0  0
    4.2175   -9.9269    7.0701 N   0  0  0  0  0  0  0  0  0  0  0  0
   -1.1620    7.6100   -4.6664 H   0  0  0  0  0  0  0  0  0  0  0  0
    6.4093   11.1193   -2.6961 H   0  0  0  0  0  0  0  0  0  0  0  0
    7.1927    9.3105   -0.9723 H   0  0  0  0  0  0  0  0  0  0  0  0
   -3.5134    7.5774   -3.1783 H   0  0  0  0  0  0  0  0  0  0  0  0
   -5.0994    8.8955   -4.5284 H   0  0  0  0  0  0  0  0  0  0  0  0
   -5.6128    8.1929   -6.8429 H   0  0  0  0  0  0  0  0  0  0  0  0
   -4.5327    6.1976   -7.7851 H   0  0  0  0  0  0  0  0  0  0  0  0
   -2.5924    3.7619   -5.9490 H   0  0  0  0  0  0  0  0  0  0  0  0
   -3.2908    4.2162   -7.5052 H   0  0  0  0  0  0  0  0  0  0  0  0
   -0.6965    5.3229   -6.3214 H   0  0  0  0  0  0  0  0  0  0  0  0
   -1.4196    5.8616   -7.8357 H   0  0  0  0  0  0  0  0  0  0  0  0
   -0.8338    4.2007   -7.6774 H   0  0  0  0  0  0  0  0  0  0  0  0
   -2.5111   -6.4382    6.4399 H   0  0  0  0  0  0  0  0  0  0  0  0
   -1.4122   -5.5343    5.3909 H   0  0  0  0  0  0  0  0  0  0  0  0
   -3.2907   -4.1004    6.1516 H   0  0  0  0  0  0  0  0  0  0  0  0
   -3.3571   -4.3221    4.4003 H   0  0  0  0  0  0  0  0  0  0  0  0
   -4.4526   -5.2272    5.4420 H   0  0  0  0  0  0  0  0  0  0  0  0
   -3.8147   -8.2475    5.6281 H   0  0  0  0  0  0  0  0  0  0  0  0
   -4.3384   -9.8607    3.8501 H   0  0  0  0  0  0  0  0  0  0  0  0
   -3.4959   -9.4834    1.5558 H   0  0  0  0  0  0  0  0  0  0  0  0
   -2.1031   -7.5050    1.0779 H   0  0  0  0  0  0  0  0  0  0  0  0
    0.4544    2.8860   -0.6940 H   0  0  0  0  0  0  0  0  0  0  0  0
    0.6575    1.3289    0.1032 H   0  0  0  0  0  0  0  0  0  0  0  0
   -1.4127    3.4539    0.8365 H   0  0  0  0  0  0  0  0  0  0  0  0
   -1.2798    1.8787    1.6214 H   0  0  0  0  0  0  0  0  0  0  0  0
    0.0372    3.0549    1.7596 H   0  0  0  0  0  0  0  0  0  0  0  0
    1.1123   -2.1003    0.1894 H   0  0  0  0  0  0  0  0  0  0  0  0
    0.8576   -0.4843   -0.4647 H   0  0  0  0  0  0  0  0  0  0  0  0
    1.1688   -1.3433    2.4678 H   0  0  0  0  0  0  0  0  0  0  0  0
    0.6643    0.2890    2.0390 H   0  0  0  0  0  0  0  0  0  0  0  0
    2.2584   -0.3075    1.5535 H   0  0  0  0  0  0  0  0  0  0  0  0
    0.0063   -7.3222    4.0349 H   0  0  0  0  0  0  0  0  0  0  0  0
    5.7493   -4.6508    5.6365 H   0  0  0  0  0  0  0  0  0  0  0  0
    4.5475   -3.6671    4.7438 H   0  0  0  0  0  0  0  0  0  0  0  0
    6.6372   -3.9565    3.4105 H   0  0  0  0  0  0  0  0  0  0  0  0
    6.4563   -5.7119    3.5013 H   0  0  0  0  0  0  0  0  0  0  0  0
    5.2661   -4.7402    2.6157 H   0  0  0  0  0  0  0  0  0  0  0  0
    1.0250   -9.2966    4.3151 H   0  0  0  0  0  0  0  0  0  0  0  0
    0.4151   -8.5812    5.8106 H   0  0  0  0  0  0  0  0  0  0  0  0
    1.7642   -9.7180    5.8628 H   0  0  0  0  0  0  0  0  0  0  0  0
  1  2  2  0  0  0  0
  2  3  1  0  0  0  0
  3  4  2  0  0  0  0
  3  5  1  0  0  0  0
  5  6  2  0  0  0  0
  6  7  1  0  0  0  0
  7  8  1  0  0  0  0
  8  9  1  0  0  0  0
  9 10  2  0  0  0  0
 10 11  1  0  0  0  0
 11 12  1  0  0  0  0
  6 13  1  0  0  0  0
 13 14  2  0  0  0  0
 14 15  1  0  0  0  0
 15 16  3  0  0  0  0
 14 17  1  0  0  0  0
 17 18  3  0  0  0  0
  1 19  1  0  0  0  0
 19 20  2  0  0  0  0
 20 21  1  0  0  0  0
 21 22  2  0  0  0  0
 22 23  1  0  0  0  0
 23 24  2  0  0  0  0
 24 25  1  0  0  0  0
 25 26  2  0  0  0  0
 26 27  1  0  0  0  0
 27 28  1  0  0  0  0
 20 29  1  0  0  0  0
 29 30  1  0  0  0  0
 30 31  1  0  0  0  0
 31 32  1  0  0  0  0
 32 33  1  0  0  0  0
 33 34  1  0  0  0  0
 34 35  2  0  0  0  0
 35 36  1  0  0  0  0
 36 37  1  0  0  0  0
 34 38  1  0  0  0  0
 38 39  1  0  0  0  0
 39 40  1  0  0  0  0
 40 41  1  0  0  0  0
 41 42  1  0  0  0  0
 42 43  1  0  0  0  0
 43 44  2  0  0  0  0
 44 45  1  0  0  0  0
 45 46  1  0  0  0  0
 44 47  1  0  0  0  0
 47 48  2  0  0  0  0
 48 49  1  0  0  0  0
 49 50  2  0  0  0  0
 42 51  2  0  0  0  0
 51 52  1  0  0  0  0
 52 53  1  0  0  0  0
 53 54  1  0  0  0  0
 54 55  1  0  0  0  0
 55 56  1  0  0  0  0
 56 57  1  0  0  0  0
 57 58  1  0  0  0  0
 58 59  1  0  0  0  0
 59 60  1  0  0  0  0
 60 61  1  0  0  0  0
 58 62  1  0  0  0  0
 62 63  1  0  0  0  0
 55 64  1  0  0  0  0
 64 65  1  0  0  0  0
 51 66  1  0  0  0  0
 66 67  2  0  0  0  0
 67 68  1  0  0  0  0
 68 69  2  0  0  0  0
 68 70  1  0  0  0  0
 70 71  1  0  0  0  0
 71 72  1  0  0  0  0
 70 73  1  0  0  0  0
 73 74  2  0  0  0  0
 73 75  1  0  0  0  0
 75 76  2  0  0  0  0
 76 77  1  0  0  0  0
 75 78  1  0  0  0  0
 78 79  3  0  0  0  0
 13  2  1  0  0  0  0
 61 19  1  0  0  0  0
 76 67  1  0  0  0  0
 12  5  1  0  0  0  0
 26 21  1  0  0  0  0
 60 29  2  0  0  0  0
 12  8  2  0  0  0  0
 59 31  2  0  0  0  0
 57 32  2  0  0  0  0
 37 33  2  0  0  0  0
 56 38  2  0  0  0  0
 54 39  2  0  0  0  0
 53 41  2  0  0  0  0
 50 43  1  0  0  0  0
  1 80  1  0  0  0  0
  9 81  1  0  0  0  0
 10 82  1  0  0  0  0
 22 83  1  0  0  0  0
 23 84  1  0  0  0  0
 24 85  1  0  0  0  0
 25 86  1  0  0  0  0
 27 87  1  0  0  0  0
 27 88  1  0  0  0  0
 28 89  1  0  0  0  0
 28 90  1  0  0  0  0
 28 91  1  0  0  0  0
 45 92  1  0  0  0  0
 45 93  1  0  0  0  0
 46 94  1  0  0  0  0
 46 95  1  0  0  0  0
 46 96  1  0  0  0  0
 47 97  1  0  0  0  0
 48 98  1  0  0  0  0
 49 99  1  0  0  0  0
 50100  1  0  0  0  0
 62101  1  0  0  0  0
 62102  1  0  0  0  0
 63103  1  0  0  0  0
 63104  1  0  0  0  0
 63105  1  0  0  0  0
 64106  1  0  0  0  0
 64107  1  0  0  0  0
 65108  1  0  0  0  0
 65109  1  0  0  0  0
 65110  1  0  0  0  0
 66111  1  0  0  0  0
 71112  1  0  0  0  0
 71113  1  0  0  0  0
 72114  1  0  0  0  0
 72115  1  0  0  0  0
 72116  1  0  0  0  0
 77117  1  0  0  0  0
 77118  1  0  0  0  0
 77119  1  0  0  0  0
M  END
