
  xtb     01212212473D
 energy: -207.519875888751 gnorm: 0.000958683921 xtb: 6.4.1 (unknown)
114128  0     0  0            999 V2000
   -2.4973   -0.1573    7.3275 C   0  0  0  0  0  0  0  0  0  0  0  0
   -1.6093    0.5612    8.0824 C   0  0  0  0  0  0  0  0  0  0  0  0
   -0.3523    1.1709    7.6157 C   0  0  0  0  0  0  0  0  0  0  0  0
    0.0869    1.1944    6.4794 O   0  0  0  0  0  0  0  0  0  0  0  0
    0.2675    1.7470    8.8146 C   0  0  0  0  0  0  0  0  0  0  0  0
   -0.5632    1.5198    9.9050 C   0  0  0  0  0  0  0  0  0  0  0  0
    0.0458    2.1506   11.3912 S   0  0  0  0  0  0  0  0  0  0  0  0
    1.4500    2.7331   10.5526 C   0  0  0  0  0  0  0  0  0  0  0  0
    2.6044    3.4318   10.9520 C   0  0  0  0  0  0  0  0  0  0  0  0
    3.4268    3.6593    9.8938 C   0  0  0  0  0  0  0  0  0  0  0  0
    2.8325    3.0394    8.3911 S   0  0  0  0  0  0  0  0  0  0  0  0
    1.4243    2.4437    9.1818 C   0  0  0  0  0  0  0  0  0  0  0  0
   -1.7469    0.8080    9.5094 C   0  0  0  0  0  0  0  0  0  0  0  0
   -2.7799    0.4795   10.3532 C   0  0  0  0  0  0  0  0  0  0  0  0
   -2.7214    0.8137   11.7220 C   0  0  0  0  0  0  0  0  0  0  0  0
   -2.6822    1.0826   12.8372 N   0  0  0  0  0  0  0  0  0  0  0  0
   -3.9748   -0.1705    9.9933 C   0  0  0  0  0  0  0  0  0  0  0  0
   -4.9791   -0.6849    9.7763 N   0  0  0  0  0  0  0  0  0  0  0  0
   -2.4930   -0.4665    5.9614 C   0  0  0  0  0  0  0  0  0  0  0  0
   -3.5066   -1.2426    5.3768 C   0  0  0  0  0  0  0  0  0  0  0  0
   -4.6415   -1.8091    6.1226 C   0  0  0  0  0  0  0  0  0  0  0  0
   -4.6405   -3.1766    6.3774 C   0  0  0  0  0  0  0  0  0  0  0  0
   -5.6706   -3.7568    7.0917 C   0  0  0  0  0  0  0  0  0  0  0  0
   -6.7135   -2.9711    7.5505 C   0  0  0  0  0  0  0  0  0  0  0  0
   -6.7264   -1.6156    7.2803 C   0  0  0  0  0  0  0  0  0  0  0  0
   -5.6991   -1.0130    6.5676 C   0  0  0  0  0  0  0  0  0  0  0  0
   -5.7836    0.4456    6.2170 C   0  0  0  0  0  0  0  0  0  0  0  0
   -6.3957    0.6173    4.8248 C   0  0  0  0  0  0  0  0  0  0  0  0
   -3.2810   -1.4449    4.0214 C   0  0  0  0  0  0  0  0  0  0  0  0
   -4.1797   -2.3085    2.7890 S   0  0  0  0  0  0  0  0  0  0  0  0
   -2.9848   -1.8246    1.6346 C   0  0  0  0  0  0  0  0  0  0  0  0
   -2.6903   -2.0013    0.2783 C   0  0  0  0  0  0  0  0  0  0  0  0
   -3.3526   -2.7754   -0.6992 C   0  0  0  0  0  0  0  0  0  0  0  0
   -2.7872   -2.8581   -2.0104 C   0  0  0  0  0  0  0  0  0  0  0  0
   -3.4852   -3.6426   -2.8163 N   0  0  0  0  0  0  0  0  0  0  0  0
   -4.7507   -4.2254   -1.9909 S   0  0  0  0  0  0  0  0  0  0  0  0
   -4.4539   -3.4991   -0.5746 N   0  0  0  0  0  0  0  0  0  0  0  0
   -1.6287   -2.1043   -2.2987 C   0  0  0  0  0  0  0  0  0  0  0  0
   -0.9406   -1.9422   -3.5057 C   0  0  0  0  0  0  0  0  0  0  0  0
   -1.0165   -2.5006   -5.1420 S   0  0  0  0  0  0  0  0  0  0  0  0
    0.3463   -1.4624   -5.5194 C   0  0  0  0  0  0  0  0  0  0  0  0
    1.0351   -1.2052   -6.6966 C   0  0  0  0  0  0  0  0  0  0  0  0
    0.7206   -1.7710   -8.0167 C   0  0  0  0  0  0  0  0  0  0  0  0
    0.9697   -3.1102   -8.3221 C   0  0  0  0  0  0  0  0  0  0  0  0
    1.6491   -4.0238   -7.3425 C   0  0  0  0  0  0  0  0  0  0  0  0
    3.1636   -3.8051   -7.3753 C   0  0  0  0  0  0  0  0  0  0  0  0
    0.6597   -3.5658   -9.5962 C   0  0  0  0  0  0  0  0  0  0  0  0
    0.1124   -2.7263  -10.5482 C   0  0  0  0  0  0  0  0  0  0  0  0
   -0.1316   -1.3997  -10.2392 C   0  0  0  0  0  0  0  0  0  0  0  0
    0.1762   -0.9251   -8.9796 C   0  0  0  0  0  0  0  0  0  0  0  0
    2.0647   -0.2660   -6.5004 C   0  0  0  0  0  0  0  0  0  0  0  0
    2.1407    0.3042   -4.8368 S   0  0  0  0  0  0  0  0  0  0  0  0
    0.8230   -0.7279   -4.4169 C   0  0  0  0  0  0  0  0  0  0  0  0
    0.0800   -1.0146   -3.2686 C   0  0  0  0  0  0  0  0  0  0  0  0
    0.0447   -0.6078   -1.9630 N   0  0  0  0  0  0  0  0  0  0  0  0
   -0.9845   -1.2757   -1.3268 C   0  0  0  0  0  0  0  0  0  0  0  0
   -1.4850   -1.2811    0.0071 C   0  0  0  0  0  0  0  0  0  0  0  0
   -1.0559   -0.7212    1.1961 N   0  0  0  0  0  0  0  0  0  0  0  0
   -1.9607   -1.0368    2.1718 C   0  0  0  0  0  0  0  0  0  0  0  0
   -2.1174   -0.8160    3.5436 C   0  0  0  0  0  0  0  0  0  0  0  0
   -1.2694    0.0197    4.7932 S   0  0  0  0  0  0  0  0  0  0  0  0
    0.1443   -0.0139    1.5785 C   0  0  0  0  0  0  0  0  0  0  0  0
   -0.1019    1.4886    1.7167 C   0  0  0  0  0  0  0  0  0  0  0  0
    0.9414    0.4469   -1.5503 C   0  0  0  0  0  0  0  0  0  0  0  0
    2.3445   -0.0839   -1.2566 C   0  0  0  0  0  0  0  0  0  0  0  0
    2.9439    0.0779   -7.5299 C   0  0  0  0  0  0  0  0  0  0  0  0
    4.0030    0.9522   -7.5520 C   0  0  0  0  0  0  0  0  0  0  0  0
    4.4111    1.8402   -6.4539 C   0  0  0  0  0  0  0  0  0  0  0  0
    3.9352    1.8974   -5.3326 O   0  0  0  0  0  0  0  0  0  0  0  0
    5.5092    2.6500   -6.9955 C   0  0  0  0  0  0  0  0  0  0  0  0
    6.3205    3.6503   -6.5703 C   0  0  0  0  0  0  0  0  0  0  0  0
    7.4183    4.1174   -7.8175 S   0  0  0  0  0  0  0  0  0  0  0  0
    6.7785    2.9535   -8.9199 C   0  0  0  0  0  0  0  0  0  0  0  0
    5.7686    2.2462   -8.3458 C   0  0  0  0  0  0  0  0  0  0  0  0
    4.8585    1.1735   -8.7015 C   0  0  0  0  0  0  0  0  0  0  0  0
    4.8749    0.5056   -9.9000 C   0  0  0  0  0  0  0  0  0  0  0  0
    5.7878    0.8598  -10.9141 C   0  0  0  0  0  0  0  0  0  0  0  0
    6.5248    1.1395  -11.7488 N   0  0  0  0  0  0  0  0  0  0  0  0
    4.0549   -0.5808  -10.2606 C   0  0  0  0  0  0  0  0  0  0  0  0
    3.4337   -1.4807  -10.6152 N   0  0  0  0  0  0  0  0  0  0  0  0
   -3.3529   -0.5723    7.8490 H   0  0  0  0  0  0  0  0  0  0  0  0
    2.8086    3.7432   11.9592 H   0  0  0  0  0  0  0  0  0  0  0  0
    4.3716    4.1660    9.9010 H   0  0  0  0  0  0  0  0  0  0  0  0
   -3.8166   -3.7779    6.0203 H   0  0  0  0  0  0  0  0  0  0  0  0
   -5.6553   -4.8175    7.2923 H   0  0  0  0  0  0  0  0  0  0  0  0
   -7.5176   -3.4149    8.1176 H   0  0  0  0  0  0  0  0  0  0  0  0
   -7.5446   -1.0063    7.6339 H   0  0  0  0  0  0  0  0  0  0  0  0
   -4.7943    0.9065    6.2325 H   0  0  0  0  0  0  0  0  0  0  0  0
   -6.4058    0.9580    6.9525 H   0  0  0  0  0  0  0  0  0  0  0  0
   -6.4676    1.6718    4.5686 H   0  0  0  0  0  0  0  0  0  0  0  0
   -5.7843    0.1189    4.0759 H   0  0  0  0  0  0  0  0  0  0  0  0
   -7.3919    0.1826    4.7944 H   0  0  0  0  0  0  0  0  0  0  0  0
    1.2787   -3.8488   -6.3314 H   0  0  0  0  0  0  0  0  0  0  0  0
    1.4319   -5.0600   -7.6069 H   0  0  0  0  0  0  0  0  0  0  0  0
    3.4150   -2.8034   -7.0329 H   0  0  0  0  0  0  0  0  0  0  0  0
    3.6649   -4.5250   -6.7325 H   0  0  0  0  0  0  0  0  0  0  0  0
    3.5380   -3.9202   -8.3899 H   0  0  0  0  0  0  0  0  0  0  0  0
    0.8616   -4.5973   -9.8454 H   0  0  0  0  0  0  0  0  0  0  0  0
   -0.1150   -3.1036  -11.5335 H   0  0  0  0  0  0  0  0  0  0  0  0
   -0.5530   -0.7342  -10.9774 H   0  0  0  0  0  0  0  0  0  0  0  0
   -0.0085    0.1097   -8.7262 H   0  0  0  0  0  0  0  0  0  0  0  0
    0.4496   -0.4026    2.5557 H   0  0  0  0  0  0  0  0  0  0  0  0
    0.9404   -0.2340    0.8737 H   0  0  0  0  0  0  0  0  0  0  0  0
    0.8394    2.0006    1.8942 H   0  0  0  0  0  0  0  0  0  0  0  0
   -0.7582    1.6811    2.5609 H   0  0  0  0  0  0  0  0  0  0  0  0
   -0.5692    1.9021    0.8249 H   0  0  0  0  0  0  0  0  0  0  0  0
    1.0096    1.1557   -2.3822 H   0  0  0  0  0  0  0  0  0  0  0  0
    0.5196    0.9761   -0.7012 H   0  0  0  0  0  0  0  0  0  0  0  0
    2.3204   -0.9111   -0.5496 H   0  0  0  0  0  0  0  0  0  0  0  0
    2.8070   -0.4380   -2.1737 H   0  0  0  0  0  0  0  0  0  0  0  0
    2.9610    0.7125   -0.8498 H   0  0  0  0  0  0  0  0  0  0  0  0
    2.7355   -0.4497   -8.4538 H   0  0  0  0  0  0  0  0  0  0  0  0
    6.3488    4.1403   -5.6179 H   0  0  0  0  0  0  0  0  0  0  0  0
    7.1920    2.8795   -9.9056 H   0  0  0  0  0  0  0  0  0  0  0  0
  1  2  2  0  0  0  0
  2  3  1  0  0  0  0
  3  4  2  0  0  0  0
  3  5  1  0  0  0  0
  5  6  2  0  0  0  0
  6  7  1  0  0  0  0
  7  8  1  0  0  0  0
  8  9  1  0  0  0  0
  9 10  2  0  0  0  0
 10 11  1  0  0  0  0
 11 12  1  0  0  0  0
  6 13  1  0  0  0  0
 13 14  2  0  0  0  0
 14 15  1  0  0  0  0
 15 16  3  0  0  0  0
 14 17  1  0  0  0  0
 17 18  3  0  0  0  0
  1 19  1  0  0  0  0
 19 20  2  0  0  0  0
 20 21  1  0  0  0  0
 21 22  2  0  0  0  0
 22 23  1  0  0  0  0
 23 24  2  0  0  0  0
 24 25  1  0  0  0  0
 25 26  2  0  0  0  0
 26 27  1  0  0  0  0
 27 28  1  0  0  0  0
 20 29  1  0  0  0  0
 29 30  1  0  0  0  0
 30 31  1  0  0  0  0
 31 32  1  0  0  0  0
 32 33  1  0  0  0  0
 33 34  1  0  0  0  0
 34 35  2  0  0  0  0
 35 36  1  0  0  0  0
 36 37  1  0  0  0  0
 34 38  1  0  0  0  0
 38 39  1  0  0  0  0
 39 40  1  0  0  0  0
 40 41  1  0  0  0  0
 41 42  1  0  0  0  0
 42 43  1  0  0  0  0
 43 44  2  0  0  0  0
 44 45  1  0  0  0  0
 45 46  1  0  0  0  0
 44 47  1  0  0  0  0
 47 48  2  0  0  0  0
 48 49  1  0  0  0  0
 49 50  2  0  0  0  0
 42 51  2  0  0  0  0
 51 52  1  0  0  0  0
 52 53  1  0  0  0  0
 53 54  1  0  0  0  0
 54 55  1  0  0  0  0
 55 56  1  0  0  0  0
 56 57  1  0  0  0  0
 57 58  1  0  0  0  0
 58 59  1  0  0  0  0
 59 60  1  0  0  0  0
 60 61  1  0  0  0  0
 58 62  1  0  0  0  0
 62 63  1  0  0  0  0
 55 64  1  0  0  0  0
 64 65  1  0  0  0  0
 51 66  1  0  0  0  0
 66 67  2  0  0  0  0
 67 68  1  0  0  0  0
 68 69  2  0  0  0  0
 68 70  1  0  0  0  0
 70 71  2  0  0  0  0
 71 72  1  0  0  0  0
 72 73  1  0  0  0  0
 73 74  2  0  0  0  0
 74 75  1  0  0  0  0
 75 76  2  0  0  0  0
 76 77  1  0  0  0  0
 77 78  3  0  0  0  0
 76 79  1  0  0  0  0
 79 80  3  0  0  0  0
 13  2  1  0  0  0  0
 61 19  1  0  0  0  0
 75 67  1  0  0  0  0
 12  5  1  0  0  0  0
 26 21  1  0  0  0  0
 60 29  2  0  0  0  0
 74 70  1  0  0  0  0
 12  8  2  0  0  0  0
 59 31  2  0  0  0  0
 57 32  2  0  0  0  0
 37 33  2  0  0  0  0
 56 38  2  0  0  0  0
 54 39  2  0  0  0  0
 53 41  2  0  0  0  0
 50 43  1  0  0  0  0
  1 81  1  0  0  0  0
  9 82  1  0  0  0  0
 10 83  1  0  0  0  0
 22 84  1  0  0  0  0
 23 85  1  0  0  0  0
 24 86  1  0  0  0  0
 25 87  1  0  0  0  0
 27 88  1  0  0  0  0
 27 89  1  0  0  0  0
 28 90  1  0  0  0  0
 28 91  1  0  0  0  0
 28 92  1  0  0  0  0
 45 93  1  0  0  0  0
 45 94  1  0  0  0  0
 46 95  1  0  0  0  0
 46 96  1  0  0  0  0
 46 97  1  0  0  0  0
 47 98  1  0  0  0  0
 48 99  1  0  0  0  0
 49100  1  0  0  0  0
 50101  1  0  0  0  0
 62102  1  0  0  0  0
 62103  1  0  0  0  0
 63104  1  0  0  0  0
 63105  1  0  0  0  0
 63106  1  0  0  0  0
 64107  1  0  0  0  0
 64108  1  0  0  0  0
 65109  1  0  0  0  0
 65110  1  0  0  0  0
 65111  1  0  0  0  0
 66112  1  0  0  0  0
 71113  1  0  0  0  0
 73114  1  0  0  0  0
M  END
