108

C          3.97980       -4.67420        5.38630
C          3.81690       -6.00460        5.12270
C          2.87980       -6.55640        4.10410
O          2.01290       -5.97140        3.49100
C          3.31000       -7.95050        3.92140
C          4.37710       -8.22010        4.76810
S          4.98910       -9.82880        4.63260
C          3.80680      -10.15960        3.40420
C          3.49980      -11.28940        2.62380
C          2.46240      -11.03320        1.78300
S          1.82730       -9.42850        1.91140
C          2.98220       -9.05950        3.13340
C          4.71780       -7.06360        5.54680
C          5.68380       -7.01900        6.52240
C          5.96320       -5.90000        7.32720
N          6.22240       -5.02250        8.02190
C          6.47680       -8.14810        6.80820
N          7.12890       -9.06370        7.04100
C          3.11010       -3.61930        5.01250
C          3.55370       -2.40130        4.46450
C          2.40700       -1.73490        4.06040
C          1.29620       -2.51280        4.44760
N          1.73020       -3.66260        5.00620
C          0.89130       -4.55760        5.76330
C          0.52140       -3.93940        7.10960
C          0.14230       -1.79870        4.07440
C         -1.23300       -2.01110        4.31840
C         -2.18650       -1.04740        3.84240
N         -3.42710       -1.34240        4.19360
S         -3.40860       -2.71760        5.04660
N         -1.81040       -2.99010        4.99930
C         -1.73660        0.00260        3.01200
C         -2.43970        0.91060        2.20960
S         -4.07390        1.36590        1.86500
C         -3.48240        2.39250        0.56990
C         -4.13260        3.15150       -0.39430
C         -5.62010        3.27380       -0.46340
C         -6.21410        2.21000       -1.39080
C         -3.22310        3.69460       -1.31770
S         -1.55150        3.29900       -0.91510
C         -2.08260        2.38900        0.44750
C         -1.49390        1.55840        1.40460
N         -0.23430        1.13490        1.72900
C         -0.35200        0.17300        2.71370
C          0.59990       -0.64210        3.37530
N          1.98830       -0.60190        3.40860
C          2.87280        0.53890        3.30770
C          2.37000        1.72650        4.12410
C          0.87990        1.45070        0.86400
C          1.37450        0.22260        0.10560
C         -3.62230        4.39780       -2.45970
C         -2.90050        4.80260       -3.55500
C         -1.46990        4.58430       -3.78150
O         -0.63780        4.19720       -2.97700
C         -1.21780        4.92370       -5.19160
C         -0.02120        4.77280       -5.88850
C         -0.10280        5.11560       -7.21670
C         -1.28460        5.58320       -7.80600
C         -2.46740        5.75240       -7.12510
C         -2.40920        5.40140       -5.77310
C         -3.45640        5.40200       -4.75170
C         -4.72160        5.90800       -4.91210
C         -5.72150        5.93840       -3.91830
N         -6.58640        6.00230       -3.16410
C         -5.19760        6.50190       -6.09920
N         -5.65280        6.99630       -7.03030
C         -0.65300        5.69620       -9.17150
C         -0.99520        4.57800      -10.17920
C          0.10320        4.67340      -11.21350
C          1.22300        4.23210      -10.65490
C          0.90010        3.83140       -9.23360
C         -0.53560        3.32480       -9.42270
C          0.66530        5.17650       -8.51340
H          4.91300       -4.35620        5.83650
H          4.01730      -12.22850        2.68250
H          2.01810      -11.70460        1.07500
H          4.58160       -2.13030        4.32440
H          1.41950       -5.49650        5.92150
H         -0.01320       -4.74480        5.18170
H          1.41700       -3.70200        7.68060
H         -0.05560       -3.03180        6.95700
H         -0.08260       -4.63920        7.67950
H         -5.91350        4.26600       -0.80960
H         -6.02040        3.13010        0.54220
H         -5.82910        2.32130       -2.40210
H         -5.96320        1.21440       -1.03220
H         -7.29570        2.30790       -1.42000
H          3.83460        0.21050        3.70810
H          3.03710        0.81670        2.26420
H          3.07090        2.55320        4.04430
H          1.39490        2.06090        3.77870
H          2.28140        1.44660        5.17140
H          1.68270        1.91950        1.43460
H          0.51760        2.19210        0.14790
H          2.20420        0.49960       -0.53890
H          1.70130       -0.56040        0.78530
H          0.57480       -0.17560       -0.51420
H         -4.68760        4.58110       -2.49970
H          0.86540        4.40640       -5.39510
H         -3.36750        6.11240       -7.59430
H         -0.65740        6.68830       -9.61860
H         -2.01720        4.59460      -10.54760
H         -0.03110        5.08950      -12.19460
H          2.21100        4.20600      -11.07590
H          1.60490        3.16720       -8.74020
H         -1.07030        3.14660       -8.49140
H         -0.57810        2.43110      -10.04310
H          1.54130        5.82240       -8.52050
