114

C         -7.48200        6.51780       -0.14590
C         -8.66170        6.89910        0.43520
C         -9.63260        6.01630        1.10950
O         -9.60090        4.80400        1.19630
C        -10.65470        6.91690        1.66000
C        -10.34010        8.22380        1.31040
S        -11.46530        9.39420        1.89750
C        -12.38270        8.12020        2.63880
C        -13.55890        8.08660        3.40980
C        -13.87300        6.81160        3.76300
S        -12.76330        5.62060        3.17580
C        -11.82600        6.85220        2.42230
C         -9.12750        8.27270        0.54170
C         -8.57370        9.42300        0.03130
C         -9.18670       10.67450        0.24360
N         -9.67550       11.70010        0.40920
C         -7.39600        9.50610       -0.73180
N         -6.44270        9.64550       -1.35890
C         -6.89400        5.25260       -0.28650
S         -7.60390        3.70970        0.19280
C         -6.19060        2.89320       -0.34960
C         -5.62370        1.62170       -0.41290
S         -6.02890       -0.00310        0.06310
C         -4.45540       -0.49530       -0.45450
C         -3.68770       -1.67200       -0.45670
C         -3.99410       -3.00290       -0.09430
C         -2.98240       -4.01360       -0.23080
N         -3.42320       -5.21660        0.10080
S         -4.97400       -5.09060        0.54890
N         -5.14320       -3.49540        0.33980
C         -1.67490       -3.62760       -0.60370
C         -0.46060       -4.32770       -0.60820
S          0.13320       -5.92770       -0.32040
C          1.76920       -5.32470       -0.52260
C          3.01200       -5.93570       -0.42200
C          3.17850       -7.38190       -0.08630
C          3.38460       -7.57280        1.41890
C          4.05490       -5.01060       -0.60290
S          3.45190       -3.38560       -0.93510
C          1.82880       -3.95100       -0.81190
C          0.54960       -3.39330       -0.87260
N          0.00040       -2.15690       -1.08030
C         -1.36660       -2.27280       -0.92210
C         -2.41490       -1.32380       -0.97320
N         -2.43090        0.01370       -1.35820
C         -3.66530        0.52510       -1.00180
C         -4.32580        1.76390       -0.96630
N         -4.08710        3.09230       -1.23250
C         -5.21590        3.78410       -0.86550
C         -5.61780        5.10560       -0.83850
C         -2.88050        3.74000       -1.68210
C         -2.95060        4.11360       -3.16260
C         -1.72120        0.56030       -2.50150
C         -1.59900       -0.44200       -3.64620
C          0.83480       -0.97670       -1.08780
C          0.61000       -0.11310        0.14980
C          5.40630       -5.35450       -0.49520
C          6.53760       -4.57720       -0.53850
C          6.58620       -3.12500       -0.71920
O          5.65470       -2.37120       -0.95360
C          7.99640       -2.73290       -0.56460
C          8.51680       -1.44240       -0.61100
C          9.87370       -1.37970       -0.40370
C         10.65580       -2.51870       -0.17270
C         10.15510       -3.79880       -0.13410
C          8.77530       -3.88540       -0.33790
C          7.89350       -5.05290       -0.35070
C          8.30540       -6.35590       -0.22310
C          7.47040       -7.49170       -0.25350
N          6.86440       -8.46840       -0.26830
C          9.64700       -6.75710       -0.05540
N         10.71280       -7.16180        0.08390
C         11.92410       -1.71550       -0.02690
C         12.46430       -1.47550        1.40470
C         11.27410       -1.53980        2.32930
C         10.53280       -0.46190        2.11080
C         11.20860        0.35090        1.03420
C         12.68150        0.04520        1.34900
C         11.05210       -0.44630       -0.28470
H         -6.87050        7.31510       -0.55230
H        -14.13170        8.95280        3.68380
H        -14.71050        6.48690        4.34830
H          4.02190       -7.81480       -0.62620
H          2.27120       -7.90810       -0.38980
H          2.53380       -7.17850        1.96980
H          4.28310       -7.05920        1.75330
H          3.48780       -8.63020        1.64510
H         -5.04400        5.94830       -1.18070
H         -2.03180        3.08310       -1.48250
H         -2.74840        4.65000       -1.08780
H         -3.76810        4.80900       -3.33350
H         -3.12040        3.23580       -3.78250
H         -2.02170        4.58480       -3.47130
H         -0.73880        0.93960       -2.20520
H         -2.31140        1.40450       -2.85750
H         -1.00260       -1.30620       -3.36910
H         -1.13240        0.04090       -4.50130
H         -2.58640       -0.79120       -3.94050
H          0.67700       -0.40380       -2.00310
H          1.86950       -1.32740       -1.10000
H         -0.42030        0.22810        0.21250
H          1.26720        0.75160        0.11720
H          0.83600       -0.68450        1.04680
H          5.56410       -6.40920       -0.31650
H          7.87670       -0.59280       -0.79130
H         10.77270       -4.66270        0.04490
H         12.71710       -1.94250       -0.73660
H         13.31590       -2.09390        1.67510
H         11.07010       -2.36500        2.98620
H          9.58530       -0.20690        2.54830
H         10.91720        1.39600        0.96760
H         13.00300        0.46000        2.30320
H         13.36720        0.35720        0.56240
H         11.27610        0.15630       -1.16280
