
  xtb     01212212483D
 energy: -195.158029792522 gnorm: 0.000774959713 xtb: 6.4.1 (unknown)
103115  0     0  0            999 V2000
    3.1486   -7.3772    1.3118 C   0  0  0  0  0  0  0  0  0  0  0  0
    4.3860   -7.2398    0.7372 C   0  0  0  0  0  0  0  0  0  0  0  0
    4.8596   -6.0811   -0.0343 C   0  0  0  0  0  0  0  0  0  0  0  0
    4.2489   -5.0572   -0.2914 O   0  0  0  0  0  0  0  0  0  0  0  0
    6.2297   -6.4167   -0.4393 C   0  0  0  0  0  0  0  0  0  0  0  0
    6.5459   -7.6779    0.0492 C   0  0  0  0  0  0  0  0  0  0  0  0
    8.1416   -8.2013   -0.3476 S   0  0  0  0  0  0  0  0  0  0  0  0
    8.4089   -6.7052   -1.1874 C   0  0  0  0  0  0  0  0  0  0  0  0
    9.5003   -6.1636   -1.8917 C   0  0  0  0  0  0  0  0  0  0  0  0
    9.2049   -4.9267   -2.3718 C   0  0  0  0  0  0  0  0  0  0  0  0
    7.6064   -4.3836   -1.9891 S   0  0  0  0  0  0  0  0  0  0  0  0
    7.2964   -5.8544   -1.1499 C   0  0  0  0  0  0  0  0  0  0  0  0
    5.4449   -8.2329    0.7892 C   0  0  0  0  0  0  0  0  0  0  0  0
    5.4626   -9.4580    1.4113 C   0  0  0  0  0  0  0  0  0  0  0  0
    6.6031  -10.2837    1.3388 C   0  0  0  0  0  0  0  0  0  0  0  0
    7.5258  -10.9642    1.2832 N   0  0  0  0  0  0  0  0  0  0  0  0
    4.4193  -10.0205    2.1690 C   0  0  0  0  0  0  0  0  0  0  0  0
    3.6192  -10.5422    2.8078 N   0  0  0  0  0  0  0  0  0  0  0  0
    2.0714   -6.4899    1.3561 C   0  0  0  0  0  0  0  0  0  0  0  0
    0.8744   -6.8296    2.0303 C   0  0  0  0  0  0  0  0  0  0  0  0
    0.7809   -8.0535    2.5589 O   0  0  0  0  0  0  0  0  0  0  0  0
   -0.2941   -8.3751    3.4286 C   0  0  0  0  0  0  0  0  0  0  0  0
   -0.0985   -7.7845    4.8187 C   0  0  0  0  0  0  0  0  0  0  0  0
   -0.0545   -5.7853    1.9991 C   0  0  0  0  0  0  0  0  0  0  0  0
   -1.6726   -5.5531    2.6576 S   0  0  0  0  0  0  0  0  0  0  0  0
   -1.6871   -3.9561    2.0054 C   0  0  0  0  0  0  0  0  0  0  0  0
   -2.5021   -2.8166    2.0166 C   0  0  0  0  0  0  0  0  0  0  0  0
   -3.6829   -2.5247    2.7354 C   0  0  0  0  0  0  0  0  0  0  0  0
   -4.1735   -1.1762    2.7409 C   0  0  0  0  0  0  0  0  0  0  0  0
   -5.2334   -1.0269    3.5192 N   0  0  0  0  0  0  0  0  0  0  0  0
   -5.5889   -2.4603    4.1832 S   0  0  0  0  0  0  0  0  0  0  0  0
   -4.4006   -3.3268    3.5054 N   0  0  0  0  0  0  0  0  0  0  0  0
   -3.5438   -0.2184    1.9155 C   0  0  0  0  0  0  0  0  0  0  0  0
   -3.8518    1.1242    1.6479 C   0  0  0  0  0  0  0  0  0  0  0  0
   -4.9350    2.3537    2.1882 S   0  0  0  0  0  0  0  0  0  0  0  0
   -4.2347    3.4696    1.0231 C   0  0  0  0  0  0  0  0  0  0  0  0
   -4.4598    4.8157    0.6802 C   0  0  0  0  0  0  0  0  0  0  0  0
   -5.3154    5.7043    1.1960 O   0  0  0  0  0  0  0  0  0  0  0  0
   -6.3156    5.2753    2.1072 C   0  0  0  0  0  0  0  0  0  0  0  0
   -7.4760    4.5859    1.4003 C   0  0  0  0  0  0  0  0  0  0  0  0
   -3.5920    5.2480   -0.3338 C   0  0  0  0  0  0  0  0  0  0  0  0
   -2.5324    3.9620   -0.8833 S   0  0  0  0  0  0  0  0  0  0  0  0
   -3.2147    2.8781    0.2663 C   0  0  0  0  0  0  0  0  0  0  0  0
   -2.9876    1.5495    0.6357 C   0  0  0  0  0  0  0  0  0  0  0  0
   -2.1359    0.5344    0.2856 N   0  0  0  0  0  0  0  0  0  0  0  0
   -2.4409   -0.5567    1.0811 C   0  0  0  0  0  0  0  0  0  0  0  0
   -1.8263   -1.8256    1.2472 C   0  0  0  0  0  0  0  0  0  0  0  0
   -0.6158   -2.3426    0.8343 N   0  0  0  0  0  0  0  0  0  0  0  0
   -0.5290   -3.6304    1.2914 C   0  0  0  0  0  0  0  0  0  0  0  0
    0.4157   -4.6635    1.2964 C   0  0  0  0  0  0  0  0  0  0  0  0
    2.0085   -4.8772    0.6688 S   0  0  0  0  0  0  0  0  0  0  0  0
    0.5585   -1.6743    0.3180 C   0  0  0  0  0  0  0  0  0  0  0  0
    0.8674   -2.0819   -1.1231 C   0  0  0  0  0  0  0  0  0  0  0  0
   -1.5207    0.5729   -1.0233 C   0  0  0  0  0  0  0  0  0  0  0  0
   -2.5697    0.4166   -2.1241 C   0  0  0  0  0  0  0  0  0  0  0  0
   -3.6452    6.5263   -0.9163 C   0  0  0  0  0  0  0  0  0  0  0  0
   -2.7994    7.1079   -1.8124 C   0  0  0  0  0  0  0  0  0  0  0  0
   -3.2711    8.2280   -2.6603 C   0  0  0  0  0  0  0  0  0  0  0  0
   -4.2618    8.9045   -2.4978 O   0  0  0  0  0  0  0  0  0  0  0  0
   -2.3093    8.2864   -3.7856 C   0  0  0  0  0  0  0  0  0  0  0  0
   -2.3508    9.0726   -4.9192 C   0  0  0  0  0  0  0  0  0  0  0  0
   -1.3495    8.8978   -5.8638 C   0  0  0  0  0  0  0  0  0  0  0  0
   -0.3619    7.9418   -5.6948 C   0  0  0  0  0  0  0  0  0  0  0  0
   -0.3138    7.1363   -4.5527 C   0  0  0  0  0  0  0  0  0  0  0  0
    0.5635    6.1334   -4.3504 O   0  0  0  0  0  0  0  0  0  0  0  0
    1.6313    5.9483   -5.2506 C   0  0  0  0  0  0  0  0  0  0  0  0
   -1.2850    7.3492   -3.5689 C   0  0  0  0  0  0  0  0  0  0  0  0
   -1.4603    6.7619   -2.2460 C   0  0  0  0  0  0  0  0  0  0  0  0
   -0.4744    6.2878   -1.4201 C   0  0  0  0  0  0  0  0  0  0  0  0
    0.8824    6.0946   -1.7486 C   0  0  0  0  0  0  0  0  0  0  0  0
    2.0081    5.9130   -1.8851 N   0  0  0  0  0  0  0  0  0  0  0  0
   -0.6929    6.0768   -0.0407 C   0  0  0  0  0  0  0  0  0  0  0  0
   -0.8136    5.9437    1.0935 N   0  0  0  0  0  0  0  0  0  0  0  0
    2.9428   -8.3066    1.8294 H   0  0  0  0  0  0  0  0  0  0  0  0
   10.4417   -6.6613   -2.0303 H   0  0  0  0  0  0  0  0  0  0  0  0
    9.8425   -4.2803   -2.9419 H   0  0  0  0  0  0  0  0  0  0  0  0
   -0.2748   -9.4665    3.4755 H   0  0  0  0  0  0  0  0  0  0  0  0
   -1.2476   -8.0518    2.9975 H   0  0  0  0  0  0  0  0  0  0  0  0
   -0.0990   -6.6979    4.7815 H   0  0  0  0  0  0  0  0  0  0  0  0
   -0.9065   -8.1102    5.4666 H   0  0  0  0  0  0  0  0  0  0  0  0
    0.8482   -8.1220    5.2333 H   0  0  0  0  0  0  0  0  0  0  0  0
   -5.8839    4.6239    2.8742 H   0  0  0  0  0  0  0  0  0  0  0  0
   -6.6565    6.1995    2.5802 H   0  0  0  0  0  0  0  0  0  0  0  0
   -7.1467    3.6677    0.9204 H   0  0  0  0  0  0  0  0  0  0  0  0
   -7.8947    5.2458    0.6443 H   0  0  0  0  0  0  0  0  0  0  0  0
   -8.2470    4.3416    2.1246 H   0  0  0  0  0  0  0  0  0  0  0  0
    0.4259   -0.5967    0.4238 H   0  0  0  0  0  0  0  0  0  0  0  0
    1.4070   -1.9663    0.9458 H   0  0  0  0  0  0  0  0  0  0  0  0
   -0.0150   -2.0221   -1.7570 H   0  0  0  0  0  0  0  0  0  0  0  0
    1.2327   -3.1045   -1.1502 H   0  0  0  0  0  0  0  0  0  0  0  0
    1.6403   -1.4356   -1.5288 H   0  0  0  0  0  0  0  0  0  0  0  0
   -0.7922   -0.2222   -1.1184 H   0  0  0  0  0  0  0  0  0  0  0  0
   -1.0157    1.5381   -1.1259 H   0  0  0  0  0  0  0  0  0  0  0  0
   -2.0833    0.4307   -3.0953 H   0  0  0  0  0  0  0  0  0  0  0  0
   -3.0990   -0.5274   -2.0098 H   0  0  0  0  0  0  0  0  0  0  0  0
   -3.2922    1.2276   -2.0890 H   0  0  0  0  0  0  0  0  0  0  0  0
   -4.5429    7.0888   -0.6790 H   0  0  0  0  0  0  0  0  0  0  0  0
   -3.1385    9.7966   -5.0523 H   0  0  0  0  0  0  0  0  0  0  0  0
   -1.3421    9.5038   -6.7573 H   0  0  0  0  0  0  0  0  0  0  0  0
    0.3793    7.8173   -6.4685 H   0  0  0  0  0  0  0  0  0  0  0  0
    2.2282    6.8583   -5.3537 H   0  0  0  0  0  0  0  0  0  0  0  0
    1.2736    5.6253   -6.2335 H   0  0  0  0  0  0  0  0  0  0  0  0
    2.2451    5.1667   -4.8071 H   0  0  0  0  0  0  0  0  0  0  0  0
  1  2  2  0  0  0  0
  2  3  1  0  0  0  0
  3  4  2  0  0  0  0
  3  5  1  0  0  0  0
  5  6  2  0  0  0  0
  6  7  1  0  0  0  0
  7  8  1  0  0  0  0
  8  9  1  0  0  0  0
  9 10  2  0  0  0  0
 10 11  1  0  0  0  0
 11 12  1  0  0  0  0
  6 13  1  0  0  0  0
 13 14  2  0  0  0  0
 14 15  1  0  0  0  0
 15 16  3  0  0  0  0
 14 17  1  0  0  0  0
 17 18  3  0  0  0  0
  1 19  1  0  0  0  0
 19 20  2  0  0  0  0
 20 21  1  0  0  0  0
 21 22  1  0  0  0  0
 22 23  1  0  0  0  0
 20 24  1  0  0  0  0
 24 25  1  0  0  0  0
 25 26  1  0  0  0  0
 26 27  1  0  0  0  0
 27 28  1  0  0  0  0
 28 29  1  0  0  0  0
 29 30  2  0  0  0  0
 30 31  1  0  0  0  0
 31 32  1  0  0  0  0
 29 33  1  0  0  0  0
 33 34  1  0  0  0  0
 34 35  1  0  0  0  0
 35 36  1  0  0  0  0
 36 37  1  0  0  0  0
 37 38  1  0  0  0  0
 38 39  1  0  0  0  0
 39 40  1  0  0  0  0
 37 41  2  0  0  0  0
 41 42  1  0  0  0  0
 42 43  1  0  0  0  0
 43 44  1  0  0  0  0
 44 45  1  0  0  0  0
 45 46  1  0  0  0  0
 46 47  1  0  0  0  0
 47 48  1  0  0  0  0
 48 49  1  0  0  0  0
 49 50  1  0  0  0  0
 50 51  1  0  0  0  0
 48 52  1  0  0  0  0
 52 53  1  0  0  0  0
 45 54  1  0  0  0  0
 54 55  1  0  0  0  0
 41 56  1  0  0  0  0
 56 57  2  0  0  0  0
 57 58  1  0  0  0  0
 58 59  2  0  0  0  0
 58 60  1  0  0  0  0
 60 61  2  0  0  0  0
 61 62  1  0  0  0  0
 62 63  2  0  0  0  0
 63 64  1  0  0  0  0
 64 65  1  0  0  0  0
 65 66  1  0  0  0  0
 64 67  2  0  0  0  0
 67 68  1  0  0  0  0
 68 69  2  0  0  0  0
 69 70  1  0  0  0  0
 70 71  3  0  0  0  0
 69 72  1  0  0  0  0
 72 73  3  0  0  0  0
 13  2  1  0  0  0  0
 51 19  1  0  0  0  0
 68 57  1  0  0  0  0
 12  5  1  0  0  0  0
 50 24  2  0  0  0  0
 67 60  1  0  0  0  0
 12  8  2  0  0  0  0
 49 26  2  0  0  0  0
 47 27  2  0  0  0  0
 32 28  2  0  0  0  0
 46 33  2  0  0  0  0
 44 34  2  0  0  0  0
 43 36  2  0  0  0  0
  1 74  1  0  0  0  0
  9 75  1  0  0  0  0
 10 76  1  0  0  0  0
 22 77  1  0  0  0  0
 22 78  1  0  0  0  0
 23 79  1  0  0  0  0
 23 80  1  0  0  0  0
 23 81  1  0  0  0  0
 39 82  1  0  0  0  0
 39 83  1  0  0  0  0
 40 84  1  0  0  0  0
 40 85  1  0  0  0  0
 40 86  1  0  0  0  0
 52 87  1  0  0  0  0
 52 88  1  0  0  0  0
 53 89  1  0  0  0  0
 53 90  1  0  0  0  0
 53 91  1  0  0  0  0
 54 92  1  0  0  0  0
 54 93  1  0  0  0  0
 55 94  1  0  0  0  0
 55 95  1  0  0  0  0
 55 96  1  0  0  0  0
 56 97  1  0  0  0  0
 61 98  1  0  0  0  0
 62 99  1  0  0  0  0
 63100  1  0  0  0  0
 66101  1  0  0  0  0
 66102  1  0  0  0  0
 66103  1  0  0  0  0
M  END
