
  xtb     02022201383D
 energy: -193.631440214588 gnorm: 0.000599008147 xtb: 6.4.1 (unknown)
103116  0     0  0            999 V2000
    8.4448   -0.0197   -0.4123 C   0  0  0  0  0  0  0  0  0  0  0  0
    8.6699   -0.6662    0.7748 C   0  0  0  0  0  0  0  0  0  0  0  0
    7.6613   -1.0639    1.7725 C   0  0  0  0  0  0  0  0  0  0  0  0
    6.4589   -0.8738    1.7347 O   0  0  0  0  0  0  0  0  0  0  0  0
    8.4112   -1.7447    2.8339 C   0  0  0  0  0  0  0  0  0  0  0  0
    9.7603   -1.7479    2.5029 C   0  0  0  0  0  0  0  0  0  0  0  0
   10.7636   -2.5287    3.6703 S   0  0  0  0  0  0  0  0  0  0  0  0
    9.3582   -2.8669    4.6321 C   0  0  0  0  0  0  0  0  0  0  0  0
    9.1513   -3.5193    5.8616 C   0  0  0  0  0  0  0  0  0  0  0  0
    7.8333   -3.5234    6.1952 C   0  0  0  0  0  0  0  0  0  0  0  0
    6.8090   -2.7429    5.0390 S   0  0  0  0  0  0  0  0  0  0  0  0
    8.1754   -2.3855    4.0551 C   0  0  0  0  0  0  0  0  0  0  0  0
    9.9805   -1.0929    1.2433 C   0  0  0  0  0  0  0  0  0  0  0  0
   11.2107   -0.9414    0.6495 C   0  0  0  0  0  0  0  0  0  0  0  0
   12.3748   -1.4386    1.2707 C   0  0  0  0  0  0  0  0  0  0  0  0
   13.3273   -1.8425    1.7679 N   0  0  0  0  0  0  0  0  0  0  0  0
   11.4634   -0.3110   -0.5819 C   0  0  0  0  0  0  0  0  0  0  0  0
   11.7337    0.1893   -1.5808 N   0  0  0  0  0  0  0  0  0  0  0  0
    7.2560    0.4123   -1.0135 C   0  0  0  0  0  0  0  0  0  0  0  0
    7.2166    1.0352   -2.2722 C   0  0  0  0  0  0  0  0  0  0  0  0
    8.4025    1.4077   -3.1006 C   0  0  0  0  0  0  0  0  0  0  0  0
    8.9988    2.7364   -2.6272 C   0  0  0  0  0  0  0  0  0  0  0  0
    5.9114    1.3239   -2.6513 C   0  0  0  0  0  0  0  0  0  0  0  0
    5.2278    2.0489   -4.0952 S   0  0  0  0  0  0  0  0  0  0  0  0
    3.6473    1.8216   -3.4291 C   0  0  0  0  0  0  0  0  0  0  0  0
    2.3051    2.0614   -3.7658 C   0  0  0  0  0  0  0  0  0  0  0  0
    1.6801    2.7427   -4.8368 C   0  0  0  0  0  0  0  0  0  0  0  0
    0.2533    2.9373   -4.8109 C   0  0  0  0  0  0  0  0  0  0  0  0
   -0.1742    3.6539   -5.8375 N   0  0  0  0  0  0  0  0  0  0  0  0
    1.0957    4.0440   -6.7618 S   0  0  0  0  0  0  0  0  0  0  0  0
    2.2457    3.3160   -5.8864 N   0  0  0  0  0  0  0  0  0  0  0  0
   -0.5105    2.3214   -3.7916 C   0  0  0  0  0  0  0  0  0  0  0  0
   -1.8902    2.2070   -3.5577 C   0  0  0  0  0  0  0  0  0  0  0  0
   -3.3833    2.7902   -4.2084 S   0  0  0  0  0  0  0  0  0  0  0  0
   -4.2436    1.8657   -2.9895 C   0  0  0  0  0  0  0  0  0  0  0  0
   -5.5920    1.7280   -2.6956 C   0  0  0  0  0  0  0  0  0  0  0  0
   -6.6678    2.3579   -3.5180 C   0  0  0  0  0  0  0  0  0  0  0  0
   -7.2057    1.3676   -4.5551 C   0  0  0  0  0  0  0  0  0  0  0  0
   -5.7906    0.8881   -1.5824 C   0  0  0  0  0  0  0  0  0  0  0  0
   -4.2680    0.2762   -0.9278 S   0  0  0  0  0  0  0  0  0  0  0  0
   -3.3949    1.1396   -2.1349 C   0  0  0  0  0  0  0  0  0  0  0  0
   -2.0548    1.3377   -2.4685 C   0  0  0  0  0  0  0  0  0  0  0  0
   -0.8302    0.9170   -2.0113 N   0  0  0  0  0  0  0  0  0  0  0  0
    0.1251    1.5411   -2.7872 C   0  0  0  0  0  0  0  0  0  0  0  0
    1.5317    1.5509   -2.6879 C   0  0  0  0  0  0  0  0  0  0  0  0
    2.3705    1.0800   -1.6981 N   0  0  0  0  0  0  0  0  0  0  0  0
    3.6552    1.2295   -2.1575 C   0  0  0  0  0  0  0  0  0  0  0  0
    4.9448    0.9409   -1.7067 C   0  0  0  0  0  0  0  0  0  0  0  0
    5.6479    0.2076   -0.3167 S   0  0  0  0  0  0  0  0  0  0  0  0
    2.1040    1.0568   -0.2728 C   0  0  0  0  0  0  0  0  0  0  0  0
    2.6599    2.3046    0.4122 C   0  0  0  0  0  0  0  0  0  0  0  0
   -0.7028   -0.3637   -1.3427 C   0  0  0  0  0  0  0  0  0  0  0  0
   -1.2641   -1.4942   -2.2044 C   0  0  0  0  0  0  0  0  0  0  0  0
   -7.0560    0.6036   -1.0649 C   0  0  0  0  0  0  0  0  0  0  0  0
   -7.4393   -0.1426    0.0259 C   0  0  0  0  0  0  0  0  0  0  0  0
   -6.5446   -0.8341    0.9553 C   0  0  0  0  0  0  0  0  0  0  0  0
   -5.3290   -0.9259    0.8920 O   0  0  0  0  0  0  0  0  0  0  0  0
   -7.4028   -1.4048    2.0066 C   0  0  0  0  0  0  0  0  0  0  0  0
   -7.0412   -2.1109    3.1165 C   0  0  0  0  0  0  0  0  0  0  0  0
   -8.0447   -2.5522    4.0077 C   0  0  0  0  0  0  0  0  0  0  0  0
   -7.7295   -3.2807    5.1724 C   0  0  0  0  0  0  0  0  0  0  0  0
   -8.7102   -3.6991    6.0285 C   0  0  0  0  0  0  0  0  0  0  0  0
  -10.0448   -3.3928    5.7314 C   0  0  0  0  0  0  0  0  0  0  0  0
  -10.9962   -3.8129    6.5856 F   0  0  0  0  0  0  0  0  0  0  0  0
  -10.4049   -2.6893    4.6156 C   0  0  0  0  0  0  0  0  0  0  0  0
   -9.4078   -2.2502    3.7234 C   0  0  0  0  0  0  0  0  0  0  0  0
   -9.7506   -1.5176    2.5621 C   0  0  0  0  0  0  0  0  0  0  0  0
   -8.7615   -1.0989    1.7135 C   0  0  0  0  0  0  0  0  0  0  0  0
   -8.8047   -0.3307    0.4702 C   0  0  0  0  0  0  0  0  0  0  0  0
   -9.9527    0.1062   -0.1436 C   0  0  0  0  0  0  0  0  0  0  0  0
  -11.2515   -0.1272    0.3535 C   0  0  0  0  0  0  0  0  0  0  0  0
  -12.3358   -0.2821    0.6985 N   0  0  0  0  0  0  0  0  0  0  0  0
  -10.0203    0.8338   -1.3488 C   0  0  0  0  0  0  0  0  0  0  0  0
  -10.1608    1.4226   -2.3261 N   0  0  0  0  0  0  0  0  0  0  0  0
    9.3251    0.1881   -1.0059 H   0  0  0  0  0  0  0  0  0  0  0  0
    9.9307   -3.9564    6.4571 H   0  0  0  0  0  0  0  0  0  0  0  0
    7.3854   -3.9477    7.0719 H   0  0  0  0  0  0  0  0  0  0  0  0
    9.1693    0.6328   -3.0611 H   0  0  0  0  0  0  0  0  0  0  0  0
    8.0754    1.5128   -4.1369 H   0  0  0  0  0  0  0  0  0  0  0  0
    9.8518    2.9983   -3.2465 H   0  0  0  0  0  0  0  0  0  0  0  0
    8.2583    3.5298   -2.6974 H   0  0  0  0  0  0  0  0  0  0  0  0
    9.3325    2.6626   -1.5949 H   0  0  0  0  0  0  0  0  0  0  0  0
   -6.2411    3.2195   -4.0354 H   0  0  0  0  0  0  0  0  0  0  0  0
   -7.4900    2.7074   -2.8922 H   0  0  0  0  0  0  0  0  0  0  0  0
   -7.9728    1.8462   -5.1566 H   0  0  0  0  0  0  0  0  0  0  0  0
   -7.6439    0.4999   -4.0680 H   0  0  0  0  0  0  0  0  0  0  0  0
   -6.4043    1.0328   -5.2098 H   0  0  0  0  0  0  0  0  0  0  0  0
    2.5684    0.1632    0.1554 H   0  0  0  0  0  0  0  0  0  0  0  0
    1.0285    1.0284   -0.1103 H   0  0  0  0  0  0  0  0  0  0  0  0
    3.7424    2.3434    0.3343 H   0  0  0  0  0  0  0  0  0  0  0  0
    2.2415    3.2011   -0.0407 H   0  0  0  0  0  0  0  0  0  0  0  0
    2.3923    2.2866    1.4648 H   0  0  0  0  0  0  0  0  0  0  0  0
    0.3501   -0.5665   -1.1573 H   0  0  0  0  0  0  0  0  0  0  0  0
   -1.2460   -0.3191   -0.3937 H   0  0  0  0  0  0  0  0  0  0  0  0
   -1.1003   -2.4439   -1.7033 H   0  0  0  0  0  0  0  0  0  0  0  0
   -0.7629   -1.5165   -3.1700 H   0  0  0  0  0  0  0  0  0  0  0  0
   -2.3311   -1.3707   -2.3647 H   0  0  0  0  0  0  0  0  0  0  0  0
   -7.8583    1.0723   -1.6181 H   0  0  0  0  0  0  0  0  0  0  0  0
   -6.0021   -2.3281    3.3142 H   0  0  0  0  0  0  0  0  0  0  0  0
   -6.6937   -3.5041    5.3800 H   0  0  0  0  0  0  0  0  0  0  0  0
   -8.4862   -4.2567    6.9241 H   0  0  0  0  0  0  0  0  0  0  0  0
  -11.4430   -2.4713    4.4187 H   0  0  0  0  0  0  0  0  0  0  0  0
  -10.7913   -1.3043    2.3797 H   0  0  0  0  0  0  0  0  0  0  0  0
  1  2  2  0  0  0  0
  2  3  1  0  0  0  0
  3  4  2  0  0  0  0
  3  5  1  0  0  0  0
  5  6  2  0  0  0  0
  6  7  1  0  0  0  0
  7  8  1  0  0  0  0
  8  9  1  0  0  0  0
  9 10  2  0  0  0  0
 10 11  1  0  0  0  0
 11 12  1  0  0  0  0
  6 13  1  0  0  0  0
 13 14  2  0  0  0  0
 14 15  1  0  0  0  0
 15 16  3  0  0  0  0
 14 17  1  0  0  0  0
 17 18  3  0  0  0  0
  1 19  1  0  0  0  0
 19 20  2  0  0  0  0
 20 21  1  0  0  0  0
 21 22  1  0  0  0  0
 20 23  1  0  0  0  0
 23 24  1  0  0  0  0
 24 25  1  0  0  0  0
 25 26  1  0  0  0  0
 26 27  1  0  0  0  0
 27 28  1  0  0  0  0
 28 29  2  0  0  0  0
 29 30  1  0  0  0  0
 30 31  1  0  0  0  0
 28 32  1  0  0  0  0
 32 33  1  0  0  0  0
 33 34  1  0  0  0  0
 34 35  1  0  0  0  0
 35 36  1  0  0  0  0
 36 37  1  0  0  0  0
 37 38  1  0  0  0  0
 36 39  2  0  0  0  0
 39 40  1  0  0  0  0
 40 41  1  0  0  0  0
 41 42  1  0  0  0  0
 42 43  1  0  0  0  0
 43 44  1  0  0  0  0
 44 45  1  0  0  0  0
 45 46  1  0  0  0  0
 46 47  1  0  0  0  0
 47 48  1  0  0  0  0
 48 49  1  0  0  0  0
 46 50  1  0  0  0  0
 50 51  1  0  0  0  0
 43 52  1  0  0  0  0
 52 53  1  0  0  0  0
 39 54  1  0  0  0  0
 54 55  2  0  0  0  0
 55 56  1  0  0  0  0
 56 57  2  0  0  0  0
 56 58  1  0  0  0  0
 58 59  2  0  0  0  0
 59 60  1  0  0  0  0
 60 61  2  0  0  0  0
 61 62  1  0  0  0  0
 62 63  2  0  0  0  0
 63 64  1  0  0  0  0
 63 65  1  0  0  0  0
 65 66  2  0  0  0  0
 66 67  1  0  0  0  0
 67 68  2  0  0  0  0
 68 69  1  0  0  0  0
 69 70  2  0  0  0  0
 70 71  1  0  0  0  0
 71 72  3  0  0  0  0
 70 73  1  0  0  0  0
 73 74  3  0  0  0  0
 13  2  1  0  0  0  0
 49 19  1  0  0  0  0
 69 55  1  0  0  0  0
 12  5  1  0  0  0  0
 48 23  2  0  0  0  0
 68 58  1  0  0  0  0
 12  8  2  0  0  0  0
 47 25  2  0  0  0  0
 66 60  1  0  0  0  0
 45 26  2  0  0  0  0
 31 27  2  0  0  0  0
 44 32  2  0  0  0  0
 42 33  2  0  0  0  0
 41 35  2  0  0  0  0
  1 75  1  0  0  0  0
  9 76  1  0  0  0  0
 10 77  1  0  0  0  0
 21 78  1  0  0  0  0
 21 79  1  0  0  0  0
 22 80  1  0  0  0  0
 22 81  1  0  0  0  0
 22 82  1  0  0  0  0
 37 83  1  0  0  0  0
 37 84  1  0  0  0  0
 38 85  1  0  0  0  0
 38 86  1  0  0  0  0
 38 87  1  0  0  0  0
 50 88  1  0  0  0  0
 50 89  1  0  0  0  0
 51 90  1  0  0  0  0
 51 91  1  0  0  0  0
 51 92  1  0  0  0  0
 52 93  1  0  0  0  0
 52 94  1  0  0  0  0
 53 95  1  0  0  0  0
 53 96  1  0  0  0  0
 53 97  1  0  0  0  0
 54 98  1  0  0  0  0
 59 99  1  0  0  0  0
 61100  1  0  0  0  0
 62101  1  0  0  0  0
 65102  1  0  0  0  0
 67103  1  0  0  0  0
M  END
