
  xtb     02102219523D
 energy: -222.155341528821 gnorm: 0.000520340157 xtb: 6.4.1 (unknown)
123137  0     0  0            999 V2000
    1.9258   -5.1929   -4.7437 C   0  0  0  0  0  0  0  0  0  0  0  0
    2.0045   -4.6136   -5.9870 C   0  0  0  0  0  0  0  0  0  0  0  0
    1.8442   -3.1884   -6.2794 C   0  0  0  0  0  0  0  0  0  0  0  0
    1.5699   -2.2947   -5.4941 O   0  0  0  0  0  0  0  0  0  0  0  0
    2.0872   -3.0364   -7.7236 C   0  0  0  0  0  0  0  0  0  0  0  0
    2.0659   -1.9020   -8.4815 C   0  0  0  0  0  0  0  0  0  0  0  0
    2.3287   -1.9947   -9.8666 C   0  0  0  0  0  0  0  0  0  0  0  0
    2.3136   -0.8571  -10.6988 C   0  0  0  0  0  0  0  0  0  0  0  0
    2.5665   -0.9609  -12.0385 C   0  0  0  0  0  0  0  0  0  0  0  0
    2.8451   -2.2230  -12.5796 C   0  0  0  0  0  0  0  0  0  0  0  0
    3.0908   -2.3057  -13.9001 F   0  0  0  0  0  0  0  0  0  0  0  0
    2.8740   -3.3577  -11.8172 C   0  0  0  0  0  0  0  0  0  0  0  0
    2.6138   -3.2694  -10.4361 C   0  0  0  0  0  0  0  0  0  0  0  0
    2.6299   -4.4276   -9.6232 C   0  0  0  0  0  0  0  0  0  0  0  0
    2.3668   -4.3150   -8.2847 C   0  0  0  0  0  0  0  0  0  0  0  0
    2.2951   -5.3142   -7.2198 C   0  0  0  0  0  0  0  0  0  0  0  0
    2.4370   -6.6682   -7.3940 C   0  0  0  0  0  0  0  0  0  0  0  0
    2.2968   -7.6522   -6.3930 C   0  0  0  0  0  0  0  0  0  0  0  0
    2.1830   -8.5189   -5.6468 N   0  0  0  0  0  0  0  0  0  0  0  0
    2.7217   -7.2758   -8.6345 C   0  0  0  0  0  0  0  0  0  0  0  0
    2.9566   -7.8336   -9.6104 N   0  0  0  0  0  0  0  0  0  0  0  0
    1.6047   -4.6409   -3.5009 C   0  0  0  0  0  0  0  0  0  0  0  0
    1.5350   -5.4384   -2.3427 C   0  0  0  0  0  0  0  0  0  0  0  0
    1.9324   -6.8535   -2.3249 C   0  0  0  0  0  0  0  0  0  0  0  0
    3.2807   -7.1586   -2.4940 C   0  0  0  0  0  0  0  0  0  0  0  0
    3.7105   -8.4707   -2.4894 C   0  0  0  0  0  0  0  0  0  0  0  0
    2.7901   -9.4907   -2.3240 C   0  0  0  0  0  0  0  0  0  0  0  0
    1.4504   -9.1905   -2.1637 C   0  0  0  0  0  0  0  0  0  0  0  0
    0.9986   -7.8780   -2.1584 C   0  0  0  0  0  0  0  0  0  0  0  0
   -0.4735   -7.5907   -2.0754 C   0  0  0  0  0  0  0  0  0  0  0  0
   -1.0517   -7.3651   -3.4744 C   0  0  0  0  0  0  0  0  0  0  0  0
    1.1004   -4.7076   -1.2452 C   0  0  0  0  0  0  0  0  0  0  0  0
    0.8133   -5.1322    0.4321 S   0  0  0  0  0  0  0  0  0  0  0  0
    0.3637   -3.4892    0.7377 C   0  0  0  0  0  0  0  0  0  0  0  0
   -0.0882   -2.6927    1.8017 C   0  0  0  0  0  0  0  0  0  0  0  0
   -0.5100   -2.9853    3.1201 C   0  0  0  0  0  0  0  0  0  0  0  0
   -1.0859   -1.9376    3.9225 C   0  0  0  0  0  0  0  0  0  0  0  0
   -1.5085   -2.3785    5.0962 N   0  0  0  0  0  0  0  0  0  0  0  0
   -1.2030   -3.9643    5.1938 S   0  0  0  0  0  0  0  0  0  0  0  0
   -0.5225   -4.1549    3.7385 N   0  0  0  0  0  0  0  0  0  0  0  0
   -1.0721   -0.6091    3.4366 C   0  0  0  0  0  0  0  0  0  0  0  0
   -1.3983    0.6284    4.0165 C   0  0  0  0  0  0  0  0  0  0  0  0
   -2.0740    1.2497    5.4820 S   0  0  0  0  0  0  0  0  0  0  0  0
   -1.8099    2.8719    4.8852 C   0  0  0  0  0  0  0  0  0  0  0  0
   -2.0206    4.1335    5.4474 C   0  0  0  0  0  0  0  0  0  0  0  0
   -2.6508    4.3483    6.7562 C   0  0  0  0  0  0  0  0  0  0  0  0
   -1.9680    4.9184    7.8346 C   0  0  0  0  0  0  0  0  0  0  0  0
   -0.5046    5.2461    7.7604 C   0  0  0  0  0  0  0  0  0  0  0  0
    0.3311    3.9737    7.9139 C   0  0  0  0  0  0  0  0  0  0  0  0
   -2.6535    5.0837    9.0314 C   0  0  0  0  0  0  0  0  0  0  0  0
   -3.9757    4.7016    9.1666 C   0  0  0  0  0  0  0  0  0  0  0  0
   -4.6384    4.1204    8.0993 C   0  0  0  0  0  0  0  0  0  0  0  0
   -3.9741    3.9398    6.9021 C   0  0  0  0  0  0  0  0  0  0  0  0
   -1.5875    5.1517    4.5985 C   0  0  0  0  0  0  0  0  0  0  0  0
   -0.9711    4.5219    3.0706 S   0  0  0  0  0  0  0  0  0  0  0  0
   -1.2303    2.9061    3.6082 C   0  0  0  0  0  0  0  0  0  0  0  0
   -0.9995    1.6245    3.1113 C   0  0  0  0  0  0  0  0  0  0  0  0
   -0.4606    1.0548    1.9843 N   0  0  0  0  0  0  0  0  0  0  0  0
   -0.5299   -0.3151    2.1574 C   0  0  0  0  0  0  0  0  0  0  0  0
   -0.2037   -1.3735    1.2844 C   0  0  0  0  0  0  0  0  0  0  0  0
    0.0924   -1.3776   -0.0629 N   0  0  0  0  0  0  0  0  0  0  0  0
    0.4450   -2.6622   -0.3936 C   0  0  0  0  0  0  0  0  0  0  0  0
    0.8540   -3.3530   -1.5360 C   0  0  0  0  0  0  0  0  0  0  0  0
    1.1509   -2.9675   -3.1911 S   0  0  0  0  0  0  0  0  0  0  0  0
   -0.4339   -0.4769   -1.0691 C   0  0  0  0  0  0  0  0  0  0  0  0
   -1.6686   -1.0697   -1.7469 C   0  0  0  0  0  0  0  0  0  0  0  0
    0.5384    1.7750    1.2165 C   0  0  0  0  0  0  0  0  0  0  0  0
    1.7293    2.1737    2.0880 C   0  0  0  0  0  0  0  0  0  0  0  0
   -1.7309    6.5280    4.8523 C   0  0  0  0  0  0  0  0  0  0  0  0
   -1.1907    7.5975    4.1977 C   0  0  0  0  0  0  0  0  0  0  0  0
   -1.8464    8.9265    4.3208 C   0  0  0  0  0  0  0  0  0  0  0  0
   -2.6773    9.2488    5.1350 O   0  0  0  0  0  0  0  0  0  0  0  0
   -1.2898    9.7248    3.2027 C   0  0  0  0  0  0  0  0  0  0  0  0
   -1.6130   10.9898    2.7463 C   0  0  0  0  0  0  0  0  0  0  0  0
   -2.5541   11.7212    3.3501 F   0  0  0  0  0  0  0  0  0  0  0  0
   -0.9568   11.5194    1.6413 C   0  0  0  0  0  0  0  0  0  0  0  0
    0.0167   10.7745    0.9987 C   0  0  0  0  0  0  0  0  0  0  0  0
    0.3667    9.5049    1.4420 C   0  0  0  0  0  0  0  0  0  0  0  0
   -0.2863    8.9859    2.5462 C   0  0  0  0  0  0  0  0  0  0  0  0
   -0.1054    7.7190    3.2572 C   0  0  0  0  0  0  0  0  0  0  0  0
    1.0344    6.9558    3.2245 C   0  0  0  0  0  0  0  0  0  0  0  0
    1.3166    5.9506    4.1720 C   0  0  0  0  0  0  0  0  0  0  0  0
    1.6110    5.1699    4.9610 N   0  0  0  0  0  0  0  0  0  0  0  0
    2.0908    7.1427    2.3128 C   0  0  0  0  0  0  0  0  0  0  0  0
    2.9667    7.2215    1.5743 N   0  0  0  0  0  0  0  0  0  0  0  0
    2.1301   -6.2556   -4.6887 H   0  0  0  0  0  0  0  0  0  0  0  0
    1.8489   -0.9449   -8.0310 H   0  0  0  0  0  0  0  0  0  0  0  0
    2.0965    0.1046  -10.2586 H   0  0  0  0  0  0  0  0  0  0  0  0
    2.5574   -0.1009  -12.6893 H   0  0  0  0  0  0  0  0  0  0  0  0
    3.0916   -4.3133  -12.2681 H   0  0  0  0  0  0  0  0  0  0  0  0
    2.8507   -5.3759  -10.0858 H   0  0  0  0  0  0  0  0  0  0  0  0
    3.9897   -6.3525   -2.6226 H   0  0  0  0  0  0  0  0  0  0  0  0
    4.7580   -8.6947   -2.6218 H   0  0  0  0  0  0  0  0  0  0  0  0
    3.1153  -10.5197   -2.3295 H   0  0  0  0  0  0  0  0  0  0  0  0
    0.7332   -9.9901   -2.0484 H   0  0  0  0  0  0  0  0  0  0  0  0
   -0.9800   -8.4389   -1.6120 H   0  0  0  0  0  0  0  0  0  0  0  0
   -0.6605   -6.7098   -1.4597 H   0  0  0  0  0  0  0  0  0  0  0  0
   -0.8384   -8.2202   -4.1115 H   0  0  0  0  0  0  0  0  0  0  0  0
   -2.1291   -7.2272   -3.4217 H   0  0  0  0  0  0  0  0  0  0  0  0
   -0.6129   -6.4821   -3.9342 H   0  0  0  0  0  0  0  0  0  0  0  0
   -0.2489    5.9442    8.5592 H   0  0  0  0  0  0  0  0  0  0  0  0
   -0.2529    5.7165    6.8097 H   0  0  0  0  0  0  0  0  0  0  0  0
    0.0992    3.2691    7.1192 H   0  0  0  0  0  0  0  0  0  0  0  0
    1.3887    4.2150    7.8563 H   0  0  0  0  0  0  0  0  0  0  0  0
    0.1269    3.4953    8.8693 H   0  0  0  0  0  0  0  0  0  0  0  0
   -2.1354    5.5203    9.8731 H   0  0  0  0  0  0  0  0  0  0  0  0
   -4.4862    4.8498   10.1064 H   0  0  0  0  0  0  0  0  0  0  0  0
   -5.6671    3.8087    8.1975 H   0  0  0  0  0  0  0  0  0  0  0  0
   -4.4823    3.4919    6.0604 H   0  0  0  0  0  0  0  0  0  0  0  0
    0.3448   -0.2934   -1.8156 H   0  0  0  0  0  0  0  0  0  0  0  0
   -0.7190    0.4607   -0.5955 H   0  0  0  0  0  0  0  0  0  0  0  0
   -2.0744   -0.3493   -2.4513 H   0  0  0  0  0  0  0  0  0  0  0  0
   -2.4302   -1.3026   -1.0054 H   0  0  0  0  0  0  0  0  0  0  0  0
   -1.4177   -1.9761   -2.2899 H   0  0  0  0  0  0  0  0  0  0  0  0
    0.9011    1.1369    0.4130 H   0  0  0  0  0  0  0  0  0  0  0  0
    0.0704    2.6688    0.7918 H   0  0  0  0  0  0  0  0  0  0  0  0
    2.4704    2.6807    1.4765 H   0  0  0  0  0  0  0  0  0  0  0  0
    2.1851    1.2895    2.5281 H   0  0  0  0  0  0  0  0  0  0  0  0
    1.4318    2.8449    2.8889 H   0  0  0  0  0  0  0  0  0  0  0  0
   -2.4428    6.7772    5.6351 H   0  0  0  0  0  0  0  0  0  0  0  0
   -1.2197   12.5081    1.2998 H   0  0  0  0  0  0  0  0  0  0  0  0
    0.5158   11.1896    0.1368 H   0  0  0  0  0  0  0  0  0  0  0  0
    1.1250    8.9411    0.9237 H   0  0  0  0  0  0  0  0  0  0  0  0
  1  2  2  0  0  0  0
  2  3  1  0  0  0  0
  3  4  2  0  0  0  0
  3  5  1  0  0  0  0
  5  6  2  0  0  0  0
  6  7  1  0  0  0  0
  7  8  2  0  0  0  0
  8  9  1  0  0  0  0
  9 10  2  0  0  0  0
 10 11  1  0  0  0  0
 10 12  1  0  0  0  0
 12 13  2  0  0  0  0
 13 14  1  0  0  0  0
 14 15  2  0  0  0  0
 15 16  1  0  0  0  0
 16 17  2  0  0  0  0
 17 18  1  0  0  0  0
 18 19  3  0  0  0  0
 17 20  1  0  0  0  0
 20 21  3  0  0  0  0
  1 22  1  0  0  0  0
 22 23  2  0  0  0  0
 23 24  1  0  0  0  0
 24 25  2  0  0  0  0
 25 26  1  0  0  0  0
 26 27  2  0  0  0  0
 27 28  1  0  0  0  0
 28 29  2  0  0  0  0
 29 30  1  0  0  0  0
 30 31  1  0  0  0  0
 23 32  1  0  0  0  0
 32 33  1  0  0  0  0
 33 34  1  0  0  0  0
 34 35  1  0  0  0  0
 35 36  1  0  0  0  0
 36 37  1  0  0  0  0
 37 38  2  0  0  0  0
 38 39  1  0  0  0  0
 39 40  1  0  0  0  0
 37 41  1  0  0  0  0
 41 42  1  0  0  0  0
 42 43  1  0  0  0  0
 43 44  1  0  0  0  0
 44 45  1  0  0  0  0
 45 46  1  0  0  0  0
 46 47  2  0  0  0  0
 47 48  1  0  0  0  0
 48 49  1  0  0  0  0
 47 50  1  0  0  0  0
 50 51  2  0  0  0  0
 51 52  1  0  0  0  0
 52 53  2  0  0  0  0
 45 54  2  0  0  0  0
 54 55  1  0  0  0  0
 55 56  1  0  0  0  0
 56 57  1  0  0  0  0
 57 58  1  0  0  0  0
 58 59  1  0  0  0  0
 59 60  1  0  0  0  0
 60 61  1  0  0  0  0
 61 62  1  0  0  0  0
 62 63  1  0  0  0  0
 63 64  1  0  0  0  0
 61 65  1  0  0  0  0
 65 66  1  0  0  0  0
 58 67  1  0  0  0  0
 67 68  1  0  0  0  0
 54 69  1  0  0  0  0
 69 70  2  0  0  0  0
 70 71  1  0  0  0  0
 71 72  2  0  0  0  0
 71 73  1  0  0  0  0
 73 74  2  0  0  0  0
 74 75  1  0  0  0  0
 74 76  1  0  0  0  0
 76 77  2  0  0  0  0
 77 78  1  0  0  0  0
 78 79  2  0  0  0  0
 79 80  1  0  0  0  0
 80 81  2  0  0  0  0
 81 82  1  0  0  0  0
 82 83  3  0  0  0  0
 81 84  1  0  0  0  0
 84 85  3  0  0  0  0
 16  2  1  0  0  0  0
 64 22  1  0  0  0  0
 80 70  1  0  0  0  0
 15  5  1  0  0  0  0
 29 24  1  0  0  0  0
 63 32  2  0  0  0  0
 79 73  1  0  0  0  0
 13  7  1  0  0  0  0
 62 34  2  0  0  0  0
 60 35  2  0  0  0  0
 40 36  2  0  0  0  0
 59 41  2  0  0  0  0
 57 42  2  0  0  0  0
 56 44  2  0  0  0  0
 53 46  1  0  0  0  0
  1 86  1  0  0  0  0
  6 87  1  0  0  0  0
  8 88  1  0  0  0  0
  9 89  1  0  0  0  0
 12 90  1  0  0  0  0
 14 91  1  0  0  0  0
 25 92  1  0  0  0  0
 26 93  1  0  0  0  0
 27 94  1  0  0  0  0
 28 95  1  0  0  0  0
 30 96  1  0  0  0  0
 30 97  1  0  0  0  0
 31 98  1  0  0  0  0
 31 99  1  0  0  0  0
 31100  1  0  0  0  0
 48101  1  0  0  0  0
 48102  1  0  0  0  0
 49103  1  0  0  0  0
 49104  1  0  0  0  0
 49105  1  0  0  0  0
 50106  1  0  0  0  0
 51107  1  0  0  0  0
 52108  1  0  0  0  0
 53109  1  0  0  0  0
 65110  1  0  0  0  0
 65111  1  0  0  0  0
 66112  1  0  0  0  0
 66113  1  0  0  0  0
 66114  1  0  0  0  0
 67115  1  0  0  0  0
 67116  1  0  0  0  0
 68117  1  0  0  0  0
 68118  1  0  0  0  0
 68119  1  0  0  0  0
 69120  1  0  0  0  0
 76121  1  0  0  0  0
 77122  1  0  0  0  0
 78123  1  0  0  0  0
M  END
