
  xtb     02012220003D
 energy: -247.316651225950 gnorm: 0.000434621019 xtb: 6.4.1 (unknown)
144159  0     0  0            999 V2000
    0.9635   -3.0995   -7.3012 C   0  0  0  0  0  0  0  0  0  0  0  0
    1.7893   -2.3542   -8.0898 C   0  0  0  0  0  0  0  0  0  0  0  0
    1.9297   -2.6685   -9.5361 C   0  0  0  0  0  0  0  0  0  0  0  0
    1.5567   -3.6722  -10.0999 O   0  0  0  0  0  0  0  0  0  0  0  0
    2.5610   -1.4730  -10.1311 C   0  0  0  0  0  0  0  0  0  0  0  0
    2.8139   -1.1960  -11.4434 C   0  0  0  0  0  0  0  0  0  0  0  0
    3.4107    0.0386  -11.7851 C   0  0  0  0  0  0  0  0  0  0  0  0
    3.6996    0.3706  -13.1246 C   0  0  0  0  0  0  0  0  0  0  0  0
    4.2702    1.5707  -13.4460 C   0  0  0  0  0  0  0  0  0  0  0  0
    4.5673    2.4769  -12.4190 C   0  0  0  0  0  0  0  0  0  0  0  0
    5.1263    3.6539  -12.7548 F   0  0  0  0  0  0  0  0  0  0  0  0
    4.3097    2.2051  -11.1044 C   0  0  0  0  0  0  0  0  0  0  0  0
    3.7257    0.9721  -10.7548 C   0  0  0  0  0  0  0  0  0  0  0  0
    3.4613    0.6549   -9.4022 C   0  0  0  0  0  0  0  0  0  0  0  0
    2.8966   -0.5530   -9.0959 C   0  0  0  0  0  0  0  0  0  0  0  0
    2.5658   -1.1637   -7.8119 C   0  0  0  0  0  0  0  0  0  0  0  0
    3.1488   -0.8294   -6.6140 C   0  0  0  0  0  0  0  0  0  0  0  0
    3.9681    0.2990   -6.4193 C   0  0  0  0  0  0  0  0  0  0  0  0
    4.6256    1.2131   -6.1930 N   0  0  0  0  0  0  0  0  0  0  0  0
    3.0614   -1.6303   -5.4564 C   0  0  0  0  0  0  0  0  0  0  0  0
    3.0608   -2.2778   -4.5075 N   0  0  0  0  0  0  0  0  0  0  0  0
    0.4121   -2.7376   -6.0506 C   0  0  0  0  0  0  0  0  0  0  0  0
    0.0167   -3.6196   -5.0607 C   0  0  0  0  0  0  0  0  0  0  0  0
   -0.3931   -3.0007   -3.8824 C   0  0  0  0  0  0  0  0  0  0  0  0
   -0.7533   -3.6363   -2.2994 S   0  0  0  0  0  0  0  0  0  0  0  0
   -0.8637   -2.0230   -1.6870 C   0  0  0  0  0  0  0  0  0  0  0  0
   -0.9620   -1.4193   -0.3940 C   0  0  0  0  0  0  0  0  0  0  0  0
   -1.0850   -1.9859    0.8719 C   0  0  0  0  0  0  0  0  0  0  0  0
   -1.0489   -1.1318    1.9493 C   0  0  0  0  0  0  0  0  0  0  0  0
   -1.1225   -1.4796    3.4258 C   0  0  0  0  0  0  0  0  0  0  0  0
   -0.0678   -2.5163    3.7593 C   0  0  0  0  0  0  0  0  0  0  0  0
    1.1988   -2.1456    4.1872 C   0  0  0  0  0  0  0  0  0  0  0  0
    2.1558   -3.1065    4.4584 C   0  0  0  0  0  0  0  0  0  0  0  0
    1.8762   -4.4571    4.3028 C   0  0  0  0  0  0  0  0  0  0  0  0
    2.9302   -5.4959    4.5540 C   0  0  0  0  0  0  0  0  0  0  0  0
    3.7111   -5.7838    3.2699 C   0  0  0  0  0  0  0  0  0  0  0  0
    0.6106   -4.8218    3.8610 C   0  0  0  0  0  0  0  0  0  0  0  0
   -0.3503   -3.8665    3.5924 C   0  0  0  0  0  0  0  0  0  0  0  0
   -2.5014   -1.9240    3.8847 C   0  0  0  0  0  0  0  0  0  0  0  0
   -2.6463   -2.4351    5.1693 C   0  0  0  0  0  0  0  0  0  0  0  0
   -3.8909   -2.7965    5.6453 C   0  0  0  0  0  0  0  0  0  0  0  0
   -5.0238   -2.6574    4.8522 C   0  0  0  0  0  0  0  0  0  0  0  0
   -6.3812   -3.0097    5.3875 C   0  0  0  0  0  0  0  0  0  0  0  0
   -6.9926   -1.8126    6.1185 C   0  0  0  0  0  0  0  0  0  0  0  0
   -4.8740   -2.1387    3.5736 C   0  0  0  0  0  0  0  0  0  0  0  0
   -3.6296   -1.7709    3.0931 C   0  0  0  0  0  0  0  0  0  0  0  0
   -0.8747   -0.1303    4.0457 C   0  0  0  0  0  0  0  0  0  0  0  0
   -0.7745    0.8456    3.0662 C   0  0  0  0  0  0  0  0  0  0  0  0
   -0.8696    0.2606    1.7661 C   0  0  0  0  0  0  0  0  0  0  0  0
   -0.7766    0.8318    0.4989 C   0  0  0  0  0  0  0  0  0  0  0  0
   -0.8357   -0.0193   -0.5784 C   0  0  0  0  0  0  0  0  0  0  0  0
   -0.7331    0.3262   -2.0519 C   0  0  0  0  0  0  0  0  0  0  0  0
   -1.9800    1.0007   -2.6032 C   0  0  0  0  0  0  0  0  0  0  0  0
   -1.9676    1.4485   -3.9190 C   0  0  0  0  0  0  0  0  0  0  0  0
   -3.0937    2.0160   -4.4806 C   0  0  0  0  0  0  0  0  0  0  0  0
   -4.2658    2.1473   -3.7453 C   0  0  0  0  0  0  0  0  0  0  0  0
   -5.4763    2.8067   -4.3398 C   0  0  0  0  0  0  0  0  0  0  0  0
   -5.4536    4.3117   -4.0643 C   0  0  0  0  0  0  0  0  0  0  0  0
   -4.2743    1.6949   -2.4335 C   0  0  0  0  0  0  0  0  0  0  0  0
   -3.1490    1.1223   -1.8673 C   0  0  0  0  0  0  0  0  0  0  0  0
    0.5091    1.1435   -2.3568 C   0  0  0  0  0  0  0  0  0  0  0  0
    0.4631    2.5308   -2.3036 C   0  0  0  0  0  0  0  0  0  0  0  0
    1.5759    3.2823   -2.6320 C   0  0  0  0  0  0  0  0  0  0  0  0
    2.7610    2.6724   -3.0229 C   0  0  0  0  0  0  0  0  0  0  0  0
    3.9703    3.4819   -3.3881 C   0  0  0  0  0  0  0  0  0  0  0  0
    4.8771    3.6730   -2.1709 C   0  0  0  0  0  0  0  0  0  0  0  0
    2.8137    1.2851   -3.0323 C   0  0  0  0  0  0  0  0  0  0  0  0
    1.7062    0.5276   -2.6996 C   0  0  0  0  0  0  0  0  0  0  0  0
   -0.6822   -1.0497   -2.6547 C   0  0  0  0  0  0  0  0  0  0  0  0
   -0.4215   -1.5936   -3.9056 C   0  0  0  0  0  0  0  0  0  0  0  0
    0.1006   -0.9274   -5.5540 Se  0  0  0  0  0  2  0  0  0  0  0  0
   -0.5082    2.4369    3.6811 S   0  0  0  0  0  0  0  0  0  0  0  0
   -0.5108    1.7928    5.3025 C   0  0  0  0  0  0  0  0  0  0  0  0
   -0.3006    2.4112    6.5238 C   0  0  0  0  0  0  0  0  0  0  0  0
   -0.3380    1.5428    7.6069 C   0  0  0  0  0  0  0  0  0  0  0  0
   -0.7085   -0.2566    7.0587 Se  0  0  0  0  0  2  0  0  0  0  0  0
   -0.7370    0.3953    5.3256 C   0  0  0  0  0  0  0  0  0  0  0  0
   -0.1582    1.7479    8.9821 C   0  0  0  0  0  0  0  0  0  0  0  0
    0.2045    2.8531    9.7148 C   0  0  0  0  0  0  0  0  0  0  0  0
    0.6081    4.1879    9.2332 C   0  0  0  0  0  0  0  0  0  0  0  0
    0.5808    4.6434    8.1084 O   0  0  0  0  0  0  0  0  0  0  0  0
    1.0845    4.9158   10.4315 C   0  0  0  0  0  0  0  0  0  0  0  0
    1.6145    6.1890   10.4953 C   0  0  0  0  0  0  0  0  0  0  0  0
    2.0092    6.6580   11.7375 C   0  0  0  0  0  0  0  0  0  0  0  0
    2.5319    7.8856   11.8488 F   0  0  0  0  0  0  0  0  0  0  0  0
    1.8697    5.8611   12.8740 C   0  0  0  0  0  0  0  0  0  0  0  0
    2.2653    6.3367   14.0606 F   0  0  0  0  0  0  0  0  0  0  0  0
    1.3324    4.5841   12.8087 C   0  0  0  0  0  0  0  0  0  0  0  0
    0.9344    4.1083   11.5688 C   0  0  0  0  0  0  0  0  0  0  0  0
    0.3414    2.8345   11.1609 C   0  0  0  0  0  0  0  0  0  0  0  0
   -0.0496    1.8459   12.0269 C   0  0  0  0  0  0  0  0  0  0  0  0
    0.1146    1.9139   13.4272 C   0  0  0  0  0  0  0  0  0  0  0  0
    0.2199    1.9003   14.5700 N   0  0  0  0  0  0  0  0  0  0  0  0
   -0.6955    0.6384   11.6844 C   0  0  0  0  0  0  0  0  0  0  0  0
   -1.2364   -0.3598   11.5075 N   0  0  0  0  0  0  0  0  0  0  0  0
    0.6606   -4.0588   -7.7109 H   0  0  0  0  0  0  0  0  0  0  0  0
    2.5638   -1.9107  -12.2131 H   0  0  0  0  0  0  0  0  0  0  0  0
    3.4614   -0.3435  -13.8985 H   0  0  0  0  0  0  0  0  0  0  0  0
    4.4976    1.8395  -14.4654 H   0  0  0  0  0  0  0  0  0  0  0  0
    4.5560    2.9243  -10.3389 H   0  0  0  0  0  0  0  0  0  0  0  0
    3.7024    1.3798   -8.6405 H   0  0  0  0  0  0  0  0  0  0  0  0
    0.1127   -4.6863   -5.1694 H   0  0  0  0  0  0  0  0  0  0  0  0
   -1.1869   -3.0531    0.9927 H   0  0  0  0  0  0  0  0  0  0  0  0
    1.4455   -1.1005    4.3096 H   0  0  0  0  0  0  0  0  0  0  0  0
    3.1347   -2.8001    4.7981 H   0  0  0  0  0  0  0  0  0  0  0  0
    3.6201   -5.1452    5.3239 H   0  0  0  0  0  0  0  0  0  0  0  0
    2.4645   -6.4184    4.9063 H   0  0  0  0  0  0  0  0  0  0  0  0
    4.4748   -6.5365    3.4502 H   0  0  0  0  0  0  0  0  0  0  0  0
    3.0418   -6.1463    2.4929 H   0  0  0  0  0  0  0  0  0  0  0  0
    4.1934   -4.8781    2.9091 H   0  0  0  0  0  0  0  0  0  0  0  0
    0.3725   -5.8678    3.7306 H   0  0  0  0  0  0  0  0  0  0  0  0
   -1.3337   -4.1721    3.2650 H   0  0  0  0  0  0  0  0  0  0  0  0
   -1.7706   -2.5668    5.7945 H   0  0  0  0  0  0  0  0  0  0  0  0
   -3.9838   -3.1943    6.6452 H   0  0  0  0  0  0  0  0  0  0  0  0
   -6.2991   -3.8494    6.0802 H   0  0  0  0  0  0  0  0  0  0  0  0
   -7.0385   -3.3052    4.5673 H   0  0  0  0  0  0  0  0  0  0  0  0
   -7.9753   -2.0668    6.5085 H   0  0  0  0  0  0  0  0  0  0  0  0
   -7.0952   -0.9676    5.4412 H   0  0  0  0  0  0  0  0  0  0  0  0
   -6.3569   -1.5109    6.9477 H   0  0  0  0  0  0  0  0  0  0  0  0
   -5.7425   -2.0195    2.9415 H   0  0  0  0  0  0  0  0  0  0  0  0
   -3.5400   -1.3667    2.0953 H   0  0  0  0  0  0  0  0  0  0  0  0
   -0.6467    1.8962    0.3780 H   0  0  0  0  0  0  0  0  0  0  0  0
   -1.0579    1.3619   -4.5041 H   0  0  0  0  0  0  0  0  0  0  0  0
   -3.0640    2.3586   -5.5048 H   0  0  0  0  0  0  0  0  0  0  0  0
   -5.4970    2.6387   -5.4182 H   0  0  0  0  0  0  0  0  0  0  0  0
   -6.3821    2.3759   -3.9086 H   0  0  0  0  0  0  0  0  0  0  0  0
   -4.5627    4.7618   -4.4964 H   0  0  0  0  0  0  0  0  0  0  0  0
   -5.4468    4.5002   -2.9931 H   0  0  0  0  0  0  0  0  0  0  0  0
   -6.3294    4.7904   -4.4958 H   0  0  0  0  0  0  0  0  0  0  0  0
   -5.1760    1.7853   -1.8446 H   0  0  0  0  0  0  0  0  0  0  0  0
   -3.1860    0.7713   -0.8465 H   0  0  0  0  0  0  0  0  0  0  0  0
   -0.4559    3.0271   -2.0254 H   0  0  0  0  0  0  0  0  0  0  0  0
    1.5168    4.3611   -2.5983 H   0  0  0  0  0  0  0  0  0  0  0  0
    3.6615    4.4595   -3.7638 H   0  0  0  0  0  0  0  0  0  0  0  0
    4.5249    2.9691   -4.1759 H   0  0  0  0  0  0  0  0  0  0  0  0
    5.2044    2.7090   -1.7884 H   0  0  0  0  0  0  0  0  0  0  0  0
    4.3434    4.1927   -1.3776 H   0  0  0  0  0  0  0  0  0  0  0  0
    5.7545    4.2561   -2.4397 H   0  0  0  0  0  0  0  0  0  0  0  0
    3.7296    0.7877   -3.3164 H   0  0  0  0  0  0  0  0  0  0  0  0
    1.7855   -0.5501   -2.7131 H   0  0  0  0  0  0  0  0  0  0  0  0
   -0.1113    3.4641    6.6373 H   0  0  0  0  0  0  0  0  0  0  0  0
   -0.3108    0.8433    9.5621 H   0  0  0  0  0  0  0  0  0  0  0  0
    1.7209    6.7989    9.6124 H   0  0  0  0  0  0  0  0  0  0  0  0
    1.2489    4.0102   13.7167 H   0  0  0  0  0  0  0  0  0  0  0  0
  1  2  2  0  0  0  0
  2  3  1  0  0  0  0
  3  4  2  0  0  0  0
  3  5  1  0  0  0  0
  5  6  2  0  0  0  0
  6  7  1  0  0  0  0
  7  8  2  0  0  0  0
  8  9  1  0  0  0  0
  9 10  2  0  0  0  0
 10 11  1  0  0  0  0
 10 12  1  0  0  0  0
 12 13  2  0  0  0  0
 13 14  1  0  0  0  0
 14 15  2  0  0  0  0
 15 16  1  0  0  0  0
 16 17  2  0  0  0  0
 17 18  1  0  0  0  0
 18 19  3  0  0  0  0
 17 20  1  0  0  0  0
 20 21  3  0  0  0  0
  1 22  1  0  0  0  0
 22 23  2  0  0  0  0
 23 24  1  0  0  0  0
 24 25  1  0  0  0  0
 25 26  1  0  0  0  0
 26 27  1  0  0  0  0
 27 28  2  0  0  0  0
 28 29  1  0  0  0  0
 29 30  1  0  0  0  0
 30 31  1  0  0  0  0
 31 32  2  0  0  0  0
 32 33  1  0  0  0  0
 33 34  2  0  0  0  0
 34 35  1  0  0  0  0
 35 36  1  0  0  0  0
 34 37  1  0  0  0  0
 37 38  2  0  0  0  0
 30 39  1  0  0  0  0
 39 40  2  0  0  0  0
 40 41  1  0  0  0  0
 41 42  2  0  0  0  0
 42 43  1  0  0  0  0
 43 44  1  0  0  0  0
 42 45  1  0  0  0  0
 45 46  2  0  0  0  0
 30 47  1  0  0  0  0
 47 48  2  0  0  0  0
 48 49  1  0  0  0  0
 49 50  1  0  0  0  0
 50 51  2  0  0  0  0
 51 52  1  0  0  0  0
 52 53  1  0  0  0  0
 53 54  2  0  0  0  0
 54 55  1  0  0  0  0
 55 56  2  0  0  0  0
 56 57  1  0  0  0  0
 57 58  1  0  0  0  0
 56 59  1  0  0  0  0
 59 60  2  0  0  0  0
 52 61  1  0  0  0  0
 61 62  2  0  0  0  0
 62 63  1  0  0  0  0
 63 64  2  0  0  0  0
 64 65  1  0  0  0  0
 65 66  1  0  0  0  0
 64 67  1  0  0  0  0
 67 68  2  0  0  0  0
 52 69  1  0  0  0  0
 69 70  1  0  0  0  0
 70 71  1  0  0  0  0
 48 72  1  0  0  0  0
 72 73  1  0  0  0  0
 73 74  1  0  0  0  0
 74 75  2  0  0  0  0
 75 76  1  0  0  0  0
 76 77  1  0  0  0  0
 75 78  1  0  0  0  0
 78 79  2  0  0  0  0
 79 80  1  0  0  0  0
 80 81  2  0  0  0  0
 80 82  1  0  0  0  0
 82 83  2  0  0  0  0
 83 84  1  0  0  0  0
 84 85  1  0  0  0  0
 84 86  2  0  0  0  0
 86 87  1  0  0  0  0
 86 88  1  0  0  0  0
 88 89  2  0  0  0  0
 89 90  1  0  0  0  0
 90 91  2  0  0  0  0
 91 92  1  0  0  0  0
 92 93  3  0  0  0  0
 91 94  1  0  0  0  0
 94 95  3  0  0  0  0
 16  2  1  0  0  0  0
 71 22  1  0  0  0  0
 77 73  2  0  0  0  0
 90 79  1  0  0  0  0
 15  5  1  0  0  0  0
 70 24  2  0  0  0  0
 89 82  1  0  0  0  0
 13  7  1  0  0  0  0
 69 26  2  0  0  0  0
 51 27  1  0  0  0  0
 60 53  1  0  0  0  0
 68 61  1  0  0  0  0
 49 29  2  0  0  0  0
 38 31  1  0  0  0  0
 46 39  1  0  0  0  0
 77 47  1  0  0  0  0
  1 96  1  0  0  0  0
  6 97  1  0  0  0  0
  8 98  1  0  0  0  0
  9 99  1  0  0  0  0
 12100  1  0  0  0  0
 14101  1  0  0  0  0
 23102  1  0  0  0  0
 28103  1  0  0  0  0
 32104  1  0  0  0  0
 33105  1  0  0  0  0
 35106  1  0  0  0  0
 35107  1  0  0  0  0
 36108  1  0  0  0  0
 36109  1  0  0  0  0
 36110  1  0  0  0  0
 37111  1  0  0  0  0
 38112  1  0  0  0  0
 40113  1  0  0  0  0
 41114  1  0  0  0  0
 43115  1  0  0  0  0
 43116  1  0  0  0  0
 44117  1  0  0  0  0
 44118  1  0  0  0  0
 44119  1  0  0  0  0
 45120  1  0  0  0  0
 46121  1  0  0  0  0
 50122  1  0  0  0  0
 54123  1  0  0  0  0
 55124  1  0  0  0  0
 57125  1  0  0  0  0
 57126  1  0  0  0  0
 58127  1  0  0  0  0
 58128  1  0  0  0  0
 58129  1  0  0  0  0
 59130  1  0  0  0  0
 60131  1  0  0  0  0
 62132  1  0  0  0  0
 63133  1  0  0  0  0
 65134  1  0  0  0  0
 65135  1  0  0  0  0
 66136  1  0  0  0  0
 66137  1  0  0  0  0
 66138  1  0  0  0  0
 67139  1  0  0  0  0
 68140  1  0  0  0  0
 74141  1  0  0  0  0
 78142  1  0  0  0  0
 83143  1  0  0  0  0
 88144  1  0  0  0  0
M  END
