144

C          0.96350       -3.09950       -7.30120
C          1.78930       -2.35420       -8.08980
C          1.92970       -2.66850       -9.53610
O          1.55670       -3.67220      -10.09990
C          2.56100       -1.47300      -10.13110
C          2.81390       -1.19600      -11.44340
C          3.41070        0.03860      -11.78510
C          3.69960        0.37060      -13.12460
C          4.27020        1.57070      -13.44600
C          4.56730        2.47690      -12.41900
F          5.12630        3.65390      -12.75480
C          4.30970        2.20510      -11.10440
C          3.72570        0.97210      -10.75480
C          3.46130        0.65490       -9.40220
C          2.89660       -0.55300       -9.09590
C          2.56580       -1.16370       -7.81190
C          3.14880       -0.82940       -6.61400
C          3.96810        0.29900       -6.41930
N          4.62560        1.21310       -6.19300
C          3.06140       -1.63030       -5.45640
N          3.06080       -2.27780       -4.50750
C          0.41210       -2.73760       -6.05060
C          0.01670       -3.61960       -5.06070
C         -0.39310       -3.00070       -3.88240
S         -0.75330       -3.63630       -2.29940
C         -0.86370       -2.02300       -1.68700
C         -0.96200       -1.41930       -0.39400
C         -1.08500       -1.98590        0.87190
C         -1.04890       -1.13180        1.94930
C         -1.12250       -1.47960        3.42580
C         -0.06780       -2.51630        3.75930
C          1.19880       -2.14560        4.18720
C          2.15580       -3.10650        4.45840
C          1.87620       -4.45710        4.30280
C          2.93020       -5.49590        4.55400
C          3.71110       -5.78380        3.26990
C          0.61060       -4.82180        3.86100
C         -0.35030       -3.86650        3.59240
C         -2.50140       -1.92400        3.88470
C         -2.64630       -2.43510        5.16930
C         -3.89090       -2.79650        5.64530
C         -5.02380       -2.65740        4.85220
C         -6.38120       -3.00970        5.38750
C         -6.99260       -1.81260        6.11850
C         -4.87400       -2.13870        3.57360
C         -3.62960       -1.77090        3.09310
C         -0.87470       -0.13030        4.04570
C         -0.77450        0.84560        3.06620
C         -0.86960        0.26060        1.76610
C         -0.77660        0.83180        0.49890
C         -0.83570       -0.01930       -0.57840
C         -0.73310        0.32620       -2.05190
C         -1.98000        1.00070       -2.60320
C         -1.96760        1.44850       -3.91900
C         -3.09370        2.01600       -4.48060
C         -4.26580        2.14730       -3.74530
C         -5.47630        2.80670       -4.33980
C         -5.45360        4.31170       -4.06430
C         -4.27430        1.69490       -2.43350
C         -3.14900        1.12230       -1.86730
C          0.50910        1.14350       -2.35680
C          0.46310        2.53080       -2.30360
C          1.57590        3.28230       -2.63200
C          2.76100        2.67240       -3.02290
C          3.97030        3.48190       -3.38810
C          4.87710        3.67300       -2.17090
C          2.81370        1.28510       -3.03230
C          1.70620        0.52760       -2.69960
C         -0.68220       -1.04970       -2.65470
C         -0.42150       -1.59360       -3.90560
Se         0.10060       -0.92740       -5.55400
S         -0.50820        2.43690        3.68110
C         -0.51080        1.79280        5.30250
C         -0.30060        2.41120        6.52380
C         -0.33800        1.54280        7.60690
Se        -0.70850       -0.25660        7.05870
C         -0.73700        0.39530        5.32560
C         -0.15820        1.74790        8.98210
C          0.20450        2.85310        9.71480
C          0.60810        4.18790        9.23320
O          0.58080        4.64340        8.10840
C          1.08450        4.91580       10.43150
C          1.61450        6.18900       10.49530
C          2.00920        6.65800       11.73750
F          2.53190        7.88560       11.84880
C          1.86970        5.86110       12.87400
F          2.26530        6.33670       14.06060
C          1.33240        4.58410       12.80870
C          0.93440        4.10830       11.56880
C          0.34140        2.83450       11.16090
C         -0.04960        1.84590       12.02690
C          0.11460        1.91390       13.42720
N          0.21990        1.90030       14.57000
C         -0.69550        0.63840       11.68440
N         -1.23640       -0.35980       11.50750
H          0.66060       -4.05880       -7.71090
H          2.56380       -1.91070      -12.21310
H          3.46140       -0.34350      -13.89850
H          4.49760        1.83950      -14.46540
H          4.55600        2.92430      -10.33890
H          3.70240        1.37980       -8.64050
H          0.11270       -4.68630       -5.16940
H         -1.18690       -3.05310        0.99270
H          1.44550       -1.10050        4.30960
H          3.13470       -2.80010        4.79810
H          3.62010       -5.14520        5.32390
H          2.46450       -6.41840        4.90630
H          4.47480       -6.53650        3.45020
H          3.04180       -6.14630        2.49290
H          4.19340       -4.87810        2.90910
H          0.37250       -5.86780        3.73060
H         -1.33370       -4.17210        3.26500
H         -1.77060       -2.56680        5.79450
H         -3.98380       -3.19430        6.64520
H         -6.29910       -3.84940        6.08020
H         -7.03850       -3.30520        4.56730
H         -7.97530       -2.06680        6.50850
H         -7.09520       -0.96760        5.44120
H         -6.35690       -1.51090        6.94770
H         -5.74250       -2.01950        2.94150
H         -3.54000       -1.36670        2.09530
H         -0.64670        1.89620        0.37800
H         -1.05790        1.36190       -4.50410
H         -3.06400        2.35860       -5.50480
H         -5.49700        2.63870       -5.41820
H         -6.38210        2.37590       -3.90860
H         -4.56270        4.76180       -4.49640
H         -5.44680        4.50020       -2.99310
H         -6.32940        4.79040       -4.49580
H         -5.17600        1.78530       -1.84460
H         -3.18600        0.77130       -0.84650
H         -0.45590        3.02710       -2.02540
H          1.51680        4.36110       -2.59830
H          3.66150        4.45950       -3.76380
H          4.52490        2.96910       -4.17590
H          5.20440        2.70900       -1.78840
H          4.34340        4.19270       -1.37760
H          5.75450        4.25610       -2.43970
H          3.72960        0.78770       -3.31640
H          1.78550       -0.55010       -2.71310
H         -0.11130        3.46410        6.63730
H         -0.31080        0.84330        9.56210
H          1.72090        6.79890        9.61240
H          1.24890        4.01020       13.71670
