
  xtb     02012219573D
 energy: -268.261039824493 gnorm: 0.000274055332 xtb: 6.4.1 (unknown)
158173  0     0  0            999 V2000
    7.0456   -3.4703   -2.1095 C   0  0  0  0  0  0  0  0  0  0  0  0
    7.2870   -4.2695   -3.2026 C   0  0  0  0  0  0  0  0  0  0  0  0
    6.3958   -4.4268   -4.3543 C   0  0  0  0  0  0  0  0  0  0  0  0
    5.3454   -3.8435   -4.5664 O   0  0  0  0  0  0  0  0  0  0  0  0
    7.0156   -5.4443   -5.2191 C   0  0  0  0  0  0  0  0  0  0  0  0
    6.5583   -5.9607   -6.3961 C   0  0  0  0  0  0  0  0  0  0  0  0
    7.3189   -6.9540   -7.0528 C   0  0  0  0  0  0  0  0  0  0  0  0
    6.8928   -7.5270   -8.2680 C   0  0  0  0  0  0  0  0  0  0  0  0
    7.6353   -8.4920   -8.8902 C   0  0  0  0  0  0  0  0  0  0  0  0
    8.8362   -8.9080   -8.3005 C   0  0  0  0  0  0  0  0  0  0  0  0
    9.5529   -9.8598   -8.9266 F   0  0  0  0  0  0  0  0  0  0  0  0
    9.2958   -8.3842   -7.1241 C   0  0  0  0  0  0  0  0  0  0  0  0
    8.5437   -7.3896   -6.4696 C   0  0  0  0  0  0  0  0  0  0  0  0
    8.9934   -6.8307   -5.2495 C   0  0  0  0  0  0  0  0  0  0  0  0
    8.2401   -5.8696   -4.6309 C   0  0  0  0  0  0  0  0  0  0  0  0
    8.4369   -5.1301   -3.3848 C   0  0  0  0  0  0  0  0  0  0  0  0
    9.5328   -5.2461   -2.5661 C   0  0  0  0  0  0  0  0  0  0  0  0
    9.7517   -4.5296   -1.3722 C   0  0  0  0  0  0  0  0  0  0  0  0
   10.0095   -3.9877   -0.3919 N   0  0  0  0  0  0  0  0  0  0  0  0
   10.6190   -6.1092   -2.8184 C   0  0  0  0  0  0  0  0  0  0  0  0
   11.5337   -6.7888   -2.9602 N   0  0  0  0  0  0  0  0  0  0  0  0
    5.9640   -2.6355   -1.8145 C   0  0  0  0  0  0  0  0  0  0  0  0
    5.8799   -1.9443   -0.5930 C   0  0  0  0  0  0  0  0  0  0  0  0
    4.7277   -1.2058   -0.4746 C   0  0  0  0  0  0  0  0  0  0  0  0
    4.0647   -0.3236    0.5720 C   0  0  0  0  0  0  0  0  0  0  0  0
    4.8901    0.9414    0.7303 C   0  0  0  0  0  0  0  0  0  0  0  0
    4.3757    2.2004    0.4595 C   0  0  0  0  0  0  0  0  0  0  0  0
    5.1623    3.3299    0.6043 C   0  0  0  0  0  0  0  0  0  0  0  0
    6.4834    3.2372    1.0163 C   0  0  0  0  0  0  0  0  0  0  0  0
    7.3477    4.4589    1.1338 C   0  0  0  0  0  0  0  0  0  0  0  0
    8.1030    4.7071   -0.1734 C   0  0  0  0  0  0  0  0  0  0  0  0
    7.0021    1.9737    1.2695 C   0  0  0  0  0  0  0  0  0  0  0  0
    6.2205    0.8442    1.1263 C   0  0  0  0  0  0  0  0  0  0  0  0
    3.8859   -1.1151    1.8582 C   0  0  0  0  0  0  0  0  0  0  0  0
    3.1312   -2.2822    1.8060 C   0  0  0  0  0  0  0  0  0  0  0  0
    2.9560   -3.0625    2.9318 C   0  0  0  0  0  0  0  0  0  0  0  0
    3.5331   -2.7031    4.1438 C   0  0  0  0  0  0  0  0  0  0  0  0
    3.3780   -3.5723    5.3580 C   0  0  0  0  0  0  0  0  0  0  0  0
    4.4729   -4.6402    5.3942 C   0  0  0  0  0  0  0  0  0  0  0  0
    4.2853   -1.5372    4.1910 C   0  0  0  0  0  0  0  0  0  0  0  0
    4.4569   -0.7483    3.0668 C   0  0  0  0  0  0  0  0  0  0  0  0
    2.7280   -0.0712   -0.0980 C   0  0  0  0  0  0  0  0  0  0  0  0
    2.7105   -0.6278   -1.3646 C   0  0  0  0  0  0  0  0  0  0  0  0
    3.9115   -1.3264   -1.6111 C   0  0  0  0  0  0  0  0  0  0  0  0
    4.5602   -2.3321   -2.8302 S   0  0  0  0  0  0  0  0  0  0  0  0
    1.2287   -0.3994   -2.2096 S   0  0  0  0  0  0  0  0  0  0  0  0
    0.5607    0.4598   -0.8216 C   0  0  0  0  0  0  0  0  0  0  0  0
   -0.7230    0.9721   -0.7058 C   0  0  0  0  0  0  0  0  0  0  0  0
   -1.7171    0.9861   -1.6202 O   0  0  0  0  0  0  0  0  0  0  0  0
   -1.4628    0.8543   -3.0060 C   0  0  0  0  0  0  0  0  0  0  0  0
   -0.7140    2.0498   -3.5816 C   0  0  0  0  0  0  0  0  0  0  0  0
   -1.0725    1.5201    0.5499 C   0  0  0  0  0  0  0  0  0  0  0  0
   -0.1269    1.6172    1.6148 C   0  0  0  0  0  0  0  0  0  0  0  0
    1.1669    1.1349    1.4877 C   0  0  0  0  0  0  0  0  0  0  0  0
    1.5004    0.5367    0.2486 C   0  0  0  0  0  0  0  0  0  0  0  0
    2.1850    1.1745    2.3751 O   0  0  0  0  0  0  0  0  0  0  0  0
    1.9765    1.4339    3.7497 C   0  0  0  0  0  0  0  0  0  0  0  0
    1.2661    0.2943    4.4696 C   0  0  0  0  0  0  0  0  0  0  0  0
   -0.8385    2.3857    3.0375 S   0  0  0  0  0  0  0  0  0  0  0  0
   -2.3627    2.4708    2.2403 C   0  0  0  0  0  0  0  0  0  0  0  0
   -3.6781    2.8263    2.6001 C   0  0  0  0  0  0  0  0  0  0  0  0
   -4.5282    2.5677    1.5128 C   0  0  0  0  0  0  0  0  0  0  0  0
   -3.7255    2.0662    0.3259 C   0  0  0  0  0  0  0  0  0  0  0  0
   -2.3400    2.0080    0.9357 C   0  0  0  0  0  0  0  0  0  0  0  0
   -3.8575    3.0905   -0.7842 C   0  0  0  0  0  0  0  0  0  0  0  0
   -5.0947    3.2873   -1.3892 C   0  0  0  0  0  0  0  0  0  0  0  0
   -5.2483    4.2313   -2.3855 C   0  0  0  0  0  0  0  0  0  0  0  0
   -4.1780    5.0147   -2.7997 C   0  0  0  0  0  0  0  0  0  0  0  0
   -4.3600    6.0668   -3.8550 C   0  0  0  0  0  0  0  0  0  0  0  0
   -4.8247    7.3812   -3.2244 C   0  0  0  0  0  0  0  0  0  0  0  0
   -2.9530    4.8336   -2.1744 C   0  0  0  0  0  0  0  0  0  0  0  0
   -2.7925    3.8865   -1.1775 C   0  0  0  0  0  0  0  0  0  0  0  0
   -4.1599    0.6592   -0.0587 C   0  0  0  0  0  0  0  0  0  0  0  0
   -4.1969   -0.3114    0.9357 C   0  0  0  0  0  0  0  0  0  0  0  0
   -4.5588   -1.6114    0.6410 C   0  0  0  0  0  0  0  0  0  0  0  0
   -4.8870   -1.9816   -0.6567 C   0  0  0  0  0  0  0  0  0  0  0  0
   -5.3220   -3.3830   -0.9740 C   0  0  0  0  0  0  0  0  0  0  0  0
   -6.8429   -3.5066   -0.8626 C   0  0  0  0  0  0  0  0  0  0  0  0
   -4.8476   -1.0090   -1.6457 C   0  0  0  0  0  0  0  0  0  0  0  0
   -4.4889    0.2944   -1.3546 C   0  0  0  0  0  0  0  0  0  0  0  0
   -5.8550    2.8040    1.7968 C   0  0  0  0  0  0  0  0  0  0  0  0
   -6.0508    3.2491    3.1065 C   0  0  0  0  0  0  0  0  0  0  0  0
   -4.5121    3.3866    3.9757 S   0  0  0  0  0  0  0  0  0  0  0  0
   -7.1941    3.5761    3.8428 C   0  0  0  0  0  0  0  0  0  0  0  0
   -8.5365    3.5044    3.5433 C   0  0  0  0  0  0  0  0  0  0  0  0
   -9.1808    2.9996    2.3177 C   0  0  0  0  0  0  0  0  0  0  0  0
   -8.6797    2.6406    1.2707 O   0  0  0  0  0  0  0  0  0  0  0  0
  -10.6348    3.0076    2.5991 C   0  0  0  0  0  0  0  0  0  0  0  0
  -11.6608    2.5864    1.7770 C   0  0  0  0  0  0  0  0  0  0  0  0
  -12.9539    2.6798    2.2649 C   0  0  0  0  0  0  0  0  0  0  0  0
  -13.9814    2.2799    1.5039 F   0  0  0  0  0  0  0  0  0  0  0  0
  -13.1949    3.1843    3.5424 C   0  0  0  0  0  0  0  0  0  0  0  0
  -14.4538    3.2596    3.9913 F   0  0  0  0  0  0  0  0  0  0  0  0
  -12.1631    3.6104    4.3656 C   0  0  0  0  0  0  0  0  0  0  0  0
  -10.8663    3.5198    3.8842 C   0  0  0  0  0  0  0  0  0  0  0  0
   -9.5785    3.8733    4.4836 C   0  0  0  0  0  0  0  0  0  0  0  0
   -9.4341    4.4753    5.7078 C   0  0  0  0  0  0  0  0  0  0  0  0
   -8.2255    4.8881    6.3083 C   0  0  0  0  0  0  0  0  0  0  0  0
   -7.3036    5.2702    6.8780 N   0  0  0  0  0  0  0  0  0  0  0  0
  -10.5116    4.7988    6.5601 C   0  0  0  0  0  0  0  0  0  0  0  0
  -11.3358    5.0874    7.3053 N   0  0  0  0  0  0  0  0  0  0  0  0
    7.7904   -3.4889   -1.3232 H   0  0  0  0  0  0  0  0  0  0  0  0
    5.6258   -5.6183   -6.8196 H   0  0  0  0  0  0  0  0  0  0  0  0
    5.9636   -7.1900   -8.7025 H   0  0  0  0  0  0  0  0  0  0  0  0
    7.3232   -8.9413   -9.8197 H   0  0  0  0  0  0  0  0  0  0  0  0
   10.2257   -8.7286   -6.6991 H   0  0  0  0  0  0  0  0  0  0  0  0
    9.9239   -7.1846   -4.8362 H   0  0  0  0  0  0  0  0  0  0  0  0
    6.6504   -2.0390    0.1508 H   0  0  0  0  0  0  0  0  0  0  0  0
    3.3535    2.3139    0.1352 H   0  0  0  0  0  0  0  0  0  0  0  0
    4.7372    4.3011    0.3933 H   0  0  0  0  0  0  0  0  0  0  0  0
    8.0676    4.3258    1.9440 H   0  0  0  0  0  0  0  0  0  0  0  0
    6.7303    5.3293    1.3642 H   0  0  0  0  0  0  0  0  0  0  0  0
    8.7308    5.5910   -0.0881 H   0  0  0  0  0  0  0  0  0  0  0  0
    8.7341    3.8545   -0.4137 H   0  0  0  0  0  0  0  0  0  0  0  0
    7.4028    4.8553   -0.9926 H   0  0  0  0  0  0  0  0  0  0  0  0
    8.0307    1.8720    1.5847 H   0  0  0  0  0  0  0  0  0  0  0  0
    6.6507   -0.1231    1.3343 H   0  0  0  0  0  0  0  0  0  0  0  0
    2.6756   -2.5840    0.8732 H   0  0  0  0  0  0  0  0  0  0  0  0
    2.3618   -3.9631    2.8700 H   0  0  0  0  0  0  0  0  0  0  0  0
    2.4008   -4.0595    5.3418 H   0  0  0  0  0  0  0  0  0  0  0  0
    3.4407   -2.9619    6.2612 H   0  0  0  0  0  0  0  0  0  0  0  0
    5.4551   -4.1739    5.4238 H   0  0  0  0  0  0  0  0  0  0  0  0
    4.3605   -5.2702    6.2733 H   0  0  0  0  0  0  0  0  0  0  0  0
    4.4193   -5.2677    4.5074 H   0  0  0  0  0  0  0  0  0  0  0  0
    4.7383   -1.2345    5.1246 H   0  0  0  0  0  0  0  0  0  0  0  0
    5.0315    0.1613    3.1427 H   0  0  0  0  0  0  0  0  0  0  0  0
   -2.4620    0.7956   -3.4443 H   0  0  0  0  0  0  0  0  0  0  0  0
   -0.9390   -0.0814   -3.2266 H   0  0  0  0  0  0  0  0  0  0  0  0
   -0.5972    1.9216   -4.6535 H   0  0  0  0  0  0  0  0  0  0  0  0
   -1.2756    2.9610   -3.3901 H   0  0  0  0  0  0  0  0  0  0  0  0
    0.2723    2.1440   -3.1338 H   0  0  0  0  0  0  0  0  0  0  0  0
    1.4465    2.3817    3.8943 H   0  0  0  0  0  0  0  0  0  0  0  0
    2.9901    1.5460    4.1429 H   0  0  0  0  0  0  0  0  0  0  0  0
    1.8349   -0.6249    4.3590 H   0  0  0  0  0  0  0  0  0  0  0  0
    0.2697    0.1350    4.0665 H   0  0  0  0  0  0  0  0  0  0  0  0
    1.1789    0.5359    5.5247 H   0  0  0  0  0  0  0  0  0  0  0  0
   -5.9430    2.6943   -1.0835 H   0  0  0  0  0  0  0  0  0  0  0  0
   -6.2157    4.3629   -2.8484 H   0  0  0  0  0  0  0  0  0  0  0  0
   -5.1037    5.7356   -4.5826 H   0  0  0  0  0  0  0  0  0  0  0  0
   -3.4174    6.2332   -4.3806 H   0  0  0  0  0  0  0  0  0  0  0  0
   -5.7693    7.2382   -2.7045 H   0  0  0  0  0  0  0  0  0  0  0  0
   -4.9603    8.1427   -3.9888 H   0  0  0  0  0  0  0  0  0  0  0  0
   -4.0898    7.7368   -2.5056 H   0  0  0  0  0  0  0  0  0  0  0  0
   -2.1096    5.4432   -2.4687 H   0  0  0  0  0  0  0  0  0  0  0  0
   -1.8267    3.7723   -0.7089 H   0  0  0  0  0  0  0  0  0  0  0  0
   -3.9398   -0.0489    1.9527 H   0  0  0  0  0  0  0  0  0  0  0  0
   -4.5821   -2.3502    1.4295 H   0  0  0  0  0  0  0  0  0  0  0  0
   -5.0134   -3.6457   -1.9880 H   0  0  0  0  0  0  0  0  0  0  0  0
   -4.8518   -4.0836   -0.2810 H   0  0  0  0  0  0  0  0  0  0  0  0
   -7.1693   -3.2602    0.1453 H   0  0  0  0  0  0  0  0  0  0  0  0
   -7.3294   -2.8236   -1.5551 H   0  0  0  0  0  0  0  0  0  0  0  0
   -7.1605   -4.5208   -1.0931 H   0  0  0  0  0  0  0  0  0  0  0  0
   -5.0976   -1.2752   -2.6632 H   0  0  0  0  0  0  0  0  0  0  0  0
   -4.4622    1.0263   -2.1459 H   0  0  0  0  0  0  0  0  0  0  0  0
   -6.6804    2.6562    1.1265 H   0  0  0  0  0  0  0  0  0  0  0  0
   -6.9620    3.9225    4.8429 H   0  0  0  0  0  0  0  0  0  0  0  0
  -11.4670    2.1961    0.7907 H   0  0  0  0  0  0  0  0  0  0  0  0
  -12.4057    3.9904    5.3440 H   0  0  0  0  0  0  0  0  0  0  0  0
  1  2  2  0  0  0  0
  2  3  1  0  0  0  0
  3  4  2  0  0  0  0
  3  5  1  0  0  0  0
  5  6  2  0  0  0  0
  6  7  1  0  0  0  0
  7  8  2  0  0  0  0
  8  9  1  0  0  0  0
  9 10  2  0  0  0  0
 10 11  1  0  0  0  0
 10 12  1  0  0  0  0
 12 13  2  0  0  0  0
 13 14  1  0  0  0  0
 14 15  2  0  0  0  0
 15 16  1  0  0  0  0
 16 17  2  0  0  0  0
 17 18  1  0  0  0  0
 18 19  3  0  0  0  0
 17 20  1  0  0  0  0
 20 21  3  0  0  0  0
  1 22  1  0  0  0  0
 22 23  2  0  0  0  0
 23 24  1  0  0  0  0
 24 25  1  0  0  0  0
 25 26  1  0  0  0  0
 26 27  2  0  0  0  0
 27 28  1  0  0  0  0
 28 29  2  0  0  0  0
 29 30  1  0  0  0  0
 30 31  1  0  0  0  0
 29 32  1  0  0  0  0
 32 33  2  0  0  0  0
 25 34  1  0  0  0  0
 34 35  2  0  0  0  0
 35 36  1  0  0  0  0
 36 37  2  0  0  0  0
 37 38  1  0  0  0  0
 38 39  1  0  0  0  0
 37 40  1  0  0  0  0
 40 41  2  0  0  0  0
 25 42  1  0  0  0  0
 42 43  2  0  0  0  0
 43 44  1  0  0  0  0
 44 45  1  0  0  0  0
 43 46  1  0  0  0  0
 46 47  1  0  0  0  0
 47 48  2  0  0  0  0
 48 49  1  0  0  0  0
 49 50  1  0  0  0  0
 50 51  1  0  0  0  0
 48 52  1  0  0  0  0
 52 53  2  0  0  0  0
 53 54  1  0  0  0  0
 54 55  2  0  0  0  0
 54 56  1  0  0  0  0
 56 57  1  0  0  0  0
 57 58  1  0  0  0  0
 53 59  1  0  0  0  0
 59 60  1  0  0  0  0
 60 61  1  0  0  0  0
 61 62  2  0  0  0  0
 62 63  1  0  0  0  0
 63 64  1  0  0  0  0
 63 65  1  0  0  0  0
 65 66  2  0  0  0  0
 66 67  1  0  0  0  0
 67 68  2  0  0  0  0
 68 69  1  0  0  0  0
 69 70  1  0  0  0  0
 68 71  1  0  0  0  0
 71 72  2  0  0  0  0
 63 73  1  0  0  0  0
 73 74  2  0  0  0  0
 74 75  1  0  0  0  0
 75 76  2  0  0  0  0
 76 77  1  0  0  0  0
 77 78  1  0  0  0  0
 76 79  1  0  0  0  0
 79 80  2  0  0  0  0
 62 81  1  0  0  0  0
 81 82  2  0  0  0  0
 82 83  1  0  0  0  0
 82 84  1  0  0  0  0
 84 85  2  0  0  0  0
 85 86  1  0  0  0  0
 86 87  2  0  0  0  0
 86 88  1  0  0  0  0
 88 89  2  0  0  0  0
 89 90  1  0  0  0  0
 90 91  1  0  0  0  0
 90 92  2  0  0  0  0
 92 93  1  0  0  0  0
 92 94  1  0  0  0  0
 94 95  2  0  0  0  0
 95 96  1  0  0  0  0
 96 97  2  0  0  0  0
 97 98  1  0  0  0  0
 98 99  3  0  0  0  0
 97100  1  0  0  0  0
100101  3  0  0  0  0
 16  2  1  0  0  0  0
 45 22  1  0  0  0  0
 55 47  1  0  0  0  0
 64 60  2  0  0  0  0
 72 65  1  0  0  0  0
 80 73  1  0  0  0  0
 96 85  1  0  0  0  0
 15  5  1  0  0  0  0
 44 24  2  0  0  0  0
 64 52  1  0  0  0  0
 95 88  1  0  0  0  0
 13  7  1  0  0  0  0
 33 26  1  0  0  0  0
 41 34  1  0  0  0  0
 55 42  1  0  0  0  0
 83 61  1  0  0  0  0
  1102  1  0  0  0  0
  6103  1  0  0  0  0
  8104  1  0  0  0  0
  9105  1  0  0  0  0
 12106  1  0  0  0  0
 14107  1  0  0  0  0
 23108  1  0  0  0  0
 27109  1  0  0  0  0
 28110  1  0  0  0  0
 30111  1  0  0  0  0
 30112  1  0  0  0  0
 31113  1  0  0  0  0
 31114  1  0  0  0  0
 31115  1  0  0  0  0
 32116  1  0  0  0  0
 33117  1  0  0  0  0
 35118  1  0  0  0  0
 36119  1  0  0  0  0
 38120  1  0  0  0  0
 38121  1  0  0  0  0
 39122  1  0  0  0  0
 39123  1  0  0  0  0
 39124  1  0  0  0  0
 40125  1  0  0  0  0
 41126  1  0  0  0  0
 50127  1  0  0  0  0
 50128  1  0  0  0  0
 51129  1  0  0  0  0
 51130  1  0  0  0  0
 51131  1  0  0  0  0
 57132  1  0  0  0  0
 57133  1  0  0  0  0
 58134  1  0  0  0  0
 58135  1  0  0  0  0
 58136  1  0  0  0  0
 66137  1  0  0  0  0
 67138  1  0  0  0  0
 69139  1  0  0  0  0
 69140  1  0  0  0  0
 70141  1  0  0  0  0
 70142  1  0  0  0  0
 70143  1  0  0  0  0
 71144  1  0  0  0  0
 72145  1  0  0  0  0
 74146  1  0  0  0  0
 75147  1  0  0  0  0
 77148  1  0  0  0  0
 77149  1  0  0  0  0
 78150  1  0  0  0  0
 78151  1  0  0  0  0
 78152  1  0  0  0  0
 79153  1  0  0  0  0
 80154  1  0  0  0  0
 81155  1  0  0  0  0
 84156  1  0  0  0  0
 89157  1  0  0  0  0
 94158  1  0  0  0  0
M  END
