118

C         -8.38060       -2.79580       -2.23180
C         -8.86890       -4.01050       -2.63170
C        -10.10420       -4.03160       -3.45830
O        -10.86920       -3.11160       -3.64380
C        -10.15900       -5.38630       -4.04270
C        -11.02300       -5.88810       -4.97140
C        -10.85790       -7.21890       -5.41810
C        -11.72000       -7.78560       -6.37870
C        -11.54620       -9.07120       -6.81060
C        -10.49160       -9.82670       -6.28130
F        -10.33440      -11.08990       -6.71930
C         -9.62780       -9.32660       -5.34710
C         -9.79280       -8.00480       -4.89030
C         -8.91840       -7.46040       -3.91990
C         -9.10220       -6.17160       -3.49990
C         -8.38660       -5.36270       -2.51350
C         -7.59380       -5.87020       -1.51260
C         -7.13520       -5.11250       -0.41860
N         -6.75800       -4.54220        0.50400
C         -7.20270       -7.22000       -1.42530
N         -6.82090       -8.29830       -1.32110
C         -7.08980       -2.41970       -1.82610
S         -6.88680       -0.80290       -1.15020
C         -5.20020       -1.05710       -0.99720
C         -4.03960       -0.39070       -0.56150
C         -2.97260       -1.31140       -0.78990
N         -3.46580       -2.47220       -1.33690
C         -4.81890       -2.33030       -1.47110
C         -5.87890       -3.09400       -1.94130
C         -2.68850       -3.63650       -1.65540
C         -1.66250       -0.99100       -0.47430
C         -1.42760        0.27790        0.03430
C         -0.21480        0.92220        0.44910
C         -0.49360        2.14700        0.98260
C         -1.96440        2.46810        0.92470
C         -2.14540        3.72470        0.04770
C         -3.57820        4.18400       -0.18830
C         -2.62550        2.56310        2.31580
C         -2.15230        3.70120        3.20890
C         -2.49160        1.19960        0.27170
C         -3.79110        0.86670        0.00100
C          0.72080        2.79810        1.38160
C          1.78780        1.88330        1.12640
C          1.25700        0.60570        0.49400
C          1.90630        0.50170       -0.90270
C          1.42280       -0.63410       -1.79290
C          1.45170       -0.64270        1.37920
C          2.89100       -1.07470        1.62640
C          3.09170        2.23730        1.34010
C          3.34690        3.51610        1.85030
C          4.51700        4.23090        2.16050
S          6.22150        4.03480        2.14080
C          6.43370        5.68960        2.71430
C          5.21920        6.32460        2.94200
C          4.14150        5.51630        2.60150
N          2.77790        5.61700        2.57470
C          1.99620        6.77020        2.92210
C          2.27600        4.42450        2.11130
C          0.95770        4.07550        1.86700
C          7.70130        6.23930        2.98360
C          8.93070        5.83880        2.54200
C         10.14370        6.22280        3.30150
O         10.21890        7.04540        4.18440
C         11.21630        5.34160        2.77810
C         10.71580        4.58100        1.70360
C         11.52460        3.65780        1.06320
C         12.83250        3.50840        1.50100
C         13.32850        4.26860        2.54900
Br        15.12420        4.02820        3.08700
C         12.52500        5.20360        3.21180
Cl        13.13610        6.14200        4.50640
C          9.33610        4.99130        1.44750
C          8.68040        4.84450        0.25150
C          7.50210        5.55110       -0.06760
N          6.58300        6.16210       -0.38380
C          9.15890        4.06680       -0.82010
N          9.49460        3.42730       -1.71260
H         -9.09280       -1.98120       -2.32930
H        -11.82240       -5.27750       -5.36340
H        -12.52500       -7.18320       -6.77190
H        -12.19630       -9.51900       -7.54540
H         -8.82890       -9.93890       -4.95890
H         -8.11760       -8.07630       -3.54210
H         -5.79030       -4.06410       -2.39520
H         -1.94640       -3.40630       -2.42440
H         -2.17240       -4.00630       -0.76620
H         -3.34900       -4.41780       -2.02350
H         -0.86950       -1.70670       -0.61020
H         -1.67860        3.51680       -0.91880
H         -1.58370        4.53950        0.50650
H         -4.13670        3.44720       -0.75760
H         -3.56690        5.10960       -0.76050
H         -4.09530        4.37430        0.74830
H         -3.70330        2.64660        2.17070
H         -2.44130        1.61550        2.82880
H         -1.10540        3.57680        3.47050
H         -2.29120        4.66620        2.72780
H         -2.73250        3.69930        4.12960
H         -4.61970        1.52350        0.21120
H          1.72530        1.44960       -1.41650
H          2.98440        0.41130       -0.76490
H          2.00650       -0.64080       -2.71140
H          0.37830       -0.49920       -2.05900
H          1.55020       -1.59920       -1.30890
H          0.97560       -0.43720        2.34180
H          0.90650       -1.46910        0.92110
H          3.43490       -0.31880        2.18510
H          2.89360       -1.99130        2.21300
H          3.41380       -1.27100        0.69410
H          3.92000        1.58650        1.11020
H          5.16310        7.33790        3.29610
H          1.25030        6.51050        3.67710
H          1.48370        7.16950        2.04280
H          2.65230        7.53810        3.32450
H          0.16060        4.78280        2.02300
H          7.71650        7.04970        3.70690
H         11.15920        3.05440        0.24870
H         13.48160        2.79250        1.02080
