
  xtb     02012217073D
 energy: -203.420494858937 gnorm: 0.000625241526 xtb: 6.4.1 (unknown)
118130  0     0  0            999 V2000
   -8.3806   -2.7958   -2.2318 C   0  0  0  0  0  0  0  0  0  0  0  0
   -8.8689   -4.0105   -2.6317 C   0  0  0  0  0  0  0  0  0  0  0  0
  -10.1042   -4.0316   -3.4583 C   0  0  0  0  0  0  0  0  0  0  0  0
  -10.8692   -3.1116   -3.6438 O   0  0  0  0  0  0  0  0  0  0  0  0
  -10.1590   -5.3863   -4.0427 C   0  0  0  0  0  0  0  0  0  0  0  0
  -11.0230   -5.8881   -4.9714 C   0  0  0  0  0  0  0  0  0  0  0  0
  -10.8579   -7.2189   -5.4181 C   0  0  0  0  0  0  0  0  0  0  0  0
  -11.7200   -7.7856   -6.3787 C   0  0  0  0  0  0  0  0  0  0  0  0
  -11.5462   -9.0712   -6.8106 C   0  0  0  0  0  0  0  0  0  0  0  0
  -10.4916   -9.8267   -6.2813 C   0  0  0  0  0  0  0  0  0  0  0  0
  -10.3344  -11.0899   -6.7193 F   0  0  0  0  0  0  0  0  0  0  0  0
   -9.6278   -9.3266   -5.3471 C   0  0  0  0  0  0  0  0  0  0  0  0
   -9.7928   -8.0048   -4.8903 C   0  0  0  0  0  0  0  0  0  0  0  0
   -8.9184   -7.4604   -3.9199 C   0  0  0  0  0  0  0  0  0  0  0  0
   -9.1022   -6.1716   -3.4999 C   0  0  0  0  0  0  0  0  0  0  0  0
   -8.3866   -5.3627   -2.5135 C   0  0  0  0  0  0  0  0  0  0  0  0
   -7.5938   -5.8702   -1.5126 C   0  0  0  0  0  0  0  0  0  0  0  0
   -7.1352   -5.1125   -0.4186 C   0  0  0  0  0  0  0  0  0  0  0  0
   -6.7580   -4.5422    0.5040 N   0  0  0  0  0  0  0  0  0  0  0  0
   -7.2027   -7.2200   -1.4253 C   0  0  0  0  0  0  0  0  0  0  0  0
   -6.8209   -8.2983   -1.3211 N   0  0  0  0  0  0  0  0  0  0  0  0
   -7.0898   -2.4197   -1.8261 C   0  0  0  0  0  0  0  0  0  0  0  0
   -6.8868   -0.8029   -1.1502 S   0  0  0  0  0  0  0  0  0  0  0  0
   -5.2002   -1.0571   -0.9972 C   0  0  0  0  0  0  0  0  0  0  0  0
   -4.0396   -0.3907   -0.5615 C   0  0  0  0  0  0  0  0  0  0  0  0
   -2.9726   -1.3114   -0.7899 C   0  0  0  0  0  0  0  0  0  0  0  0
   -3.4658   -2.4722   -1.3369 N   0  0  0  0  0  0  0  0  0  0  0  0
   -4.8189   -2.3303   -1.4711 C   0  0  0  0  0  0  0  0  0  0  0  0
   -5.8789   -3.0940   -1.9413 C   0  0  0  0  0  0  0  0  0  0  0  0
   -2.6885   -3.6365   -1.6554 C   0  0  0  0  0  0  0  0  0  0  0  0
   -1.6625   -0.9910   -0.4743 C   0  0  0  0  0  0  0  0  0  0  0  0
   -1.4276    0.2779    0.0343 C   0  0  0  0  0  0  0  0  0  0  0  0
   -0.2148    0.9222    0.4491 C   0  0  0  0  0  0  0  0  0  0  0  0
   -0.4936    2.1470    0.9826 C   0  0  0  0  0  0  0  0  0  0  0  0
   -1.9644    2.4681    0.9247 C   0  0  0  0  0  0  0  0  0  0  0  0
   -2.1454    3.7247    0.0477 C   0  0  0  0  0  0  0  0  0  0  0  0
   -3.5782    4.1840   -0.1883 C   0  0  0  0  0  0  0  0  0  0  0  0
   -2.6255    2.5631    2.3158 C   0  0  0  0  0  0  0  0  0  0  0  0
   -2.1523    3.7012    3.2089 C   0  0  0  0  0  0  0  0  0  0  0  0
   -2.4916    1.1996    0.2717 C   0  0  0  0  0  0  0  0  0  0  0  0
   -3.7911    0.8667    0.0010 C   0  0  0  0  0  0  0  0  0  0  0  0
    0.7208    2.7981    1.3816 C   0  0  0  0  0  0  0  0  0  0  0  0
    1.7878    1.8833    1.1264 C   0  0  0  0  0  0  0  0  0  0  0  0
    1.2570    0.6057    0.4940 C   0  0  0  0  0  0  0  0  0  0  0  0
    1.9063    0.5017   -0.9027 C   0  0  0  0  0  0  0  0  0  0  0  0
    1.4228   -0.6341   -1.7929 C   0  0  0  0  0  0  0  0  0  0  0  0
    1.4517   -0.6427    1.3792 C   0  0  0  0  0  0  0  0  0  0  0  0
    2.8910   -1.0747    1.6264 C   0  0  0  0  0  0  0  0  0  0  0  0
    3.0917    2.2373    1.3401 C   0  0  0  0  0  0  0  0  0  0  0  0
    3.3469    3.5161    1.8503 C   0  0  0  0  0  0  0  0  0  0  0  0
    4.5170    4.2309    2.1605 C   0  0  0  0  0  0  0  0  0  0  0  0
    6.2215    4.0348    2.1408 S   0  0  0  0  0  0  0  0  0  0  0  0
    6.4337    5.6896    2.7143 C   0  0  0  0  0  0  0  0  0  0  0  0
    5.2192    6.3246    2.9420 C   0  0  0  0  0  0  0  0  0  0  0  0
    4.1415    5.5163    2.6015 C   0  0  0  0  0  0  0  0  0  0  0  0
    2.7779    5.6170    2.5747 N   0  0  0  0  0  0  0  0  0  0  0  0
    1.9962    6.7702    2.9221 C   0  0  0  0  0  0  0  0  0  0  0  0
    2.2760    4.4245    2.1113 C   0  0  0  0  0  0  0  0  0  0  0  0
    0.9577    4.0755    1.8670 C   0  0  0  0  0  0  0  0  0  0  0  0
    7.7013    6.2393    2.9836 C   0  0  0  0  0  0  0  0  0  0  0  0
    8.9307    5.8388    2.5420 C   0  0  0  0  0  0  0  0  0  0  0  0
   10.1437    6.2228    3.3015 C   0  0  0  0  0  0  0  0  0  0  0  0
   10.2189    7.0454    4.1844 O   0  0  0  0  0  0  0  0  0  0  0  0
   11.2163    5.3416    2.7781 C   0  0  0  0  0  0  0  0  0  0  0  0
   10.7158    4.5810    1.7036 C   0  0  0  0  0  0  0  0  0  0  0  0
   11.5246    3.6578    1.0632 C   0  0  0  0  0  0  0  0  0  0  0  0
   12.8325    3.5084    1.5010 C   0  0  0  0  0  0  0  0  0  0  0  0
   13.3285    4.2686    2.5490 C   0  0  0  0  0  0  0  0  0  0  0  0
   15.1242    4.0282    3.0870 Br  0  0  0  0  0  0  0  0  0  0  0  0
   12.5250    5.2036    3.2118 C   0  0  0  0  0  0  0  0  0  0  0  0
   13.1361    6.1420    4.5064 Cl  0  0  0  0  0  0  0  0  0  0  0  0
    9.3361    4.9913    1.4475 C   0  0  0  0  0  0  0  0  0  0  0  0
    8.6804    4.8445    0.2515 C   0  0  0  0  0  0  0  0  0  0  0  0
    7.5021    5.5511   -0.0676 C   0  0  0  0  0  0  0  0  0  0  0  0
    6.5830    6.1621   -0.3838 N   0  0  0  0  0  0  0  0  0  0  0  0
    9.1589    4.0668   -0.8201 C   0  0  0  0  0  0  0  0  0  0  0  0
    9.4946    3.4273   -1.7126 N   0  0  0  0  0  0  0  0  0  0  0  0
   -9.0928   -1.9812   -2.3293 H   0  0  0  0  0  0  0  0  0  0  0  0
  -11.8224   -5.2775   -5.3634 H   0  0  0  0  0  0  0  0  0  0  0  0
  -12.5250   -7.1832   -6.7719 H   0  0  0  0  0  0  0  0  0  0  0  0
  -12.1963   -9.5190   -7.5454 H   0  0  0  0  0  0  0  0  0  0  0  0
   -8.8289   -9.9389   -4.9589 H   0  0  0  0  0  0  0  0  0  0  0  0
   -8.1176   -8.0763   -3.5421 H   0  0  0  0  0  0  0  0  0  0  0  0
   -5.7903   -4.0641   -2.3952 H   0  0  0  0  0  0  0  0  0  0  0  0
   -1.9464   -3.4063   -2.4244 H   0  0  0  0  0  0  0  0  0  0  0  0
   -2.1724   -4.0063   -0.7662 H   0  0  0  0  0  0  0  0  0  0  0  0
   -3.3490   -4.4178   -2.0235 H   0  0  0  0  0  0  0  0  0  0  0  0
   -0.8695   -1.7067   -0.6102 H   0  0  0  0  0  0  0  0  0  0  0  0
   -1.6786    3.5168   -0.9188 H   0  0  0  0  0  0  0  0  0  0  0  0
   -1.5837    4.5395    0.5065 H   0  0  0  0  0  0  0  0  0  0  0  0
   -4.1367    3.4472   -0.7576 H   0  0  0  0  0  0  0  0  0  0  0  0
   -3.5669    5.1096   -0.7605 H   0  0  0  0  0  0  0  0  0  0  0  0
   -4.0953    4.3743    0.7483 H   0  0  0  0  0  0  0  0  0  0  0  0
   -3.7033    2.6466    2.1707 H   0  0  0  0  0  0  0  0  0  0  0  0
   -2.4413    1.6155    2.8288 H   0  0  0  0  0  0  0  0  0  0  0  0
   -1.1054    3.5768    3.4705 H   0  0  0  0  0  0  0  0  0  0  0  0
   -2.2912    4.6662    2.7278 H   0  0  0  0  0  0  0  0  0  0  0  0
   -2.7325    3.6993    4.1296 H   0  0  0  0  0  0  0  0  0  0  0  0
   -4.6197    1.5235    0.2112 H   0  0  0  0  0  0  0  0  0  0  0  0
    1.7253    1.4496   -1.4165 H   0  0  0  0  0  0  0  0  0  0  0  0
    2.9844    0.4113   -0.7649 H   0  0  0  0  0  0  0  0  0  0  0  0
    2.0065   -0.6408   -2.7114 H   0  0  0  0  0  0  0  0  0  0  0  0
    0.3783   -0.4992   -2.0590 H   0  0  0  0  0  0  0  0  0  0  0  0
    1.5502   -1.5992   -1.3089 H   0  0  0  0  0  0  0  0  0  0  0  0
    0.9756   -0.4372    2.3418 H   0  0  0  0  0  0  0  0  0  0  0  0
    0.9065   -1.4691    0.9211 H   0  0  0  0  0  0  0  0  0  0  0  0
    3.4349   -0.3188    2.1851 H   0  0  0  0  0  0  0  0  0  0  0  0
    2.8936   -1.9913    2.2130 H   0  0  0  0  0  0  0  0  0  0  0  0
    3.4138   -1.2710    0.6941 H   0  0  0  0  0  0  0  0  0  0  0  0
    3.9200    1.5865    1.1102 H   0  0  0  0  0  0  0  0  0  0  0  0
    5.1631    7.3379    3.2961 H   0  0  0  0  0  0  0  0  0  0  0  0
    1.2503    6.5105    3.6771 H   0  0  0  0  0  0  0  0  0  0  0  0
    1.4837    7.1695    2.0428 H   0  0  0  0  0  0  0  0  0  0  0  0
    2.6523    7.5381    3.3245 H   0  0  0  0  0  0  0  0  0  0  0  0
    0.1606    4.7828    2.0230 H   0  0  0  0  0  0  0  0  0  0  0  0
    7.7165    7.0497    3.7069 H   0  0  0  0  0  0  0  0  0  0  0  0
   11.1592    3.0544    0.2487 H   0  0  0  0  0  0  0  0  0  0  0  0
   13.4816    2.7925    1.0208 H   0  0  0  0  0  0  0  0  0  0  0  0
  1  2  2  0  0  0  0
  2  3  1  0  0  0  0
  3  4  2  0  0  0  0
  3  5  1  0  0  0  0
  5  6  2  0  0  0  0
  6  7  1  0  0  0  0
  7  8  2  0  0  0  0
  8  9  1  0  0  0  0
  9 10  2  0  0  0  0
 10 11  1  0  0  0  0
 10 12  1  0  0  0  0
 12 13  2  0  0  0  0
 13 14  1  0  0  0  0
 14 15  2  0  0  0  0
 15 16  1  0  0  0  0
 16 17  2  0  0  0  0
 17 18  1  0  0  0  0
 18 19  3  0  0  0  0
 17 20  1  0  0  0  0
 20 21  3  0  0  0  0
  1 22  1  0  0  0  0
 22 23  1  0  0  0  0
 23 24  1  0  0  0  0
 24 25  1  0  0  0  0
 25 26  2  0  0  0  0
 26 27  1  0  0  0  0
 27 28  1  0  0  0  0
 28 29  1  0  0  0  0
 27 30  1  0  0  0  0
 26 31  1  0  0  0  0
 31 32  2  0  0  0  0
 32 33  1  0  0  0  0
 33 34  2  0  0  0  0
 34 35  1  0  0  0  0
 35 36  1  0  0  0  0
 36 37  1  0  0  0  0
 35 38  1  0  0  0  0
 38 39  1  0  0  0  0
 35 40  1  0  0  0  0
 40 41  2  0  0  0  0
 34 42  1  0  0  0  0
 42 43  2  0  0  0  0
 43 44  1  0  0  0  0
 44 45  1  0  0  0  0
 45 46  1  0  0  0  0
 44 47  1  0  0  0  0
 47 48  1  0  0  0  0
 43 49  1  0  0  0  0
 49 50  2  0  0  0  0
 50 51  1  0  0  0  0
 51 52  1  0  0  0  0
 52 53  1  0  0  0  0
 53 54  2  0  0  0  0
 54 55  1  0  0  0  0
 55 56  1  0  0  0  0
 56 57  1  0  0  0  0
 56 58  1  0  0  0  0
 58 59  2  0  0  0  0
 53 60  1  0  0  0  0
 60 61  2  0  0  0  0
 61 62  1  0  0  0  0
 62 63  2  0  0  0  0
 62 64  1  0  0  0  0
 64 65  2  0  0  0  0
 65 66  1  0  0  0  0
 66 67  2  0  0  0  0
 67 68  1  0  0  0  0
 68 69  1  0  0  0  0
 68 70  2  0  0  0  0
 70 71  1  0  0  0  0
 65 72  1  0  0  0  0
 72 73  2  0  0  0  0
 73 74  1  0  0  0  0
 74 75  3  0  0  0  0
 73 76  1  0  0  0  0
 76 77  3  0  0  0  0
 16  2  1  0  0  0  0
 29 22  2  0  0  0  0
 40 32  1  0  0  0  0
 59 42  1  0  0  0  0
 72 61  1  0  0  0  0
 15  5  1  0  0  0  0
 28 24  2  0  0  0  0
 44 33  1  0  0  0  0
 58 50  1  0  0  0  0
 70 64  1  0  0  0  0
 13  7  1  0  0  0  0
 41 25  1  0  0  0  0
 55 51  2  0  0  0  0
  1 78  1  0  0  0  0
  6 79  1  0  0  0  0
  8 80  1  0  0  0  0
  9 81  1  0  0  0  0
 12 82  1  0  0  0  0
 14 83  1  0  0  0  0
 29 84  1  0  0  0  0
 30 85  1  0  0  0  0
 30 86  1  0  0  0  0
 30 87  1  0  0  0  0
 31 88  1  0  0  0  0
 36 89  1  0  0  0  0
 36 90  1  0  0  0  0
 37 91  1  0  0  0  0
 37 92  1  0  0  0  0
 37 93  1  0  0  0  0
 38 94  1  0  0  0  0
 38 95  1  0  0  0  0
 39 96  1  0  0  0  0
 39 97  1  0  0  0  0
 39 98  1  0  0  0  0
 41 99  1  0  0  0  0
 45100  1  0  0  0  0
 45101  1  0  0  0  0
 46102  1  0  0  0  0
 46103  1  0  0  0  0
 46104  1  0  0  0  0
 47105  1  0  0  0  0
 47106  1  0  0  0  0
 48107  1  0  0  0  0
 48108  1  0  0  0  0
 48109  1  0  0  0  0
 49110  1  0  0  0  0
 54111  1  0  0  0  0
 57112  1  0  0  0  0
 57113  1  0  0  0  0
 57114  1  0  0  0  0
 59115  1  0  0  0  0
 60116  1  0  0  0  0
 66117  1  0  0  0  0
 67118  1  0  0  0  0
M  END
