158

C          7.04560       -3.47030       -2.10950
C          7.28700       -4.26950       -3.20260
C          6.39580       -4.42680       -4.35430
O          5.34540       -3.84350       -4.56640
C          7.01560       -5.44430       -5.21910
C          6.55830       -5.96070       -6.39610
C          7.31890       -6.95400       -7.05280
C          6.89280       -7.52700       -8.26800
C          7.63530       -8.49200       -8.89020
C          8.83620       -8.90800       -8.30050
F          9.55290       -9.85980       -8.92660
C          9.29580       -8.38420       -7.12410
C          8.54370       -7.38960       -6.46960
C          8.99340       -6.83070       -5.24950
C          8.24010       -5.86960       -4.63090
C          8.43690       -5.13010       -3.38480
C          9.53280       -5.24610       -2.56610
C          9.75170       -4.52960       -1.37220
N         10.00950       -3.98770       -0.39190
C         10.61900       -6.10920       -2.81840
N         11.53370       -6.78880       -2.96020
C          5.96400       -2.63550       -1.81450
C          5.87990       -1.94430       -0.59300
C          4.72770       -1.20580       -0.47460
C          4.06470       -0.32360        0.57200
C          4.89010        0.94140        0.73030
C          4.37570        2.20040        0.45950
C          5.16230        3.32990        0.60430
C          6.48340        3.23720        1.01630
C          7.34770        4.45890        1.13380
C          8.10300        4.70710       -0.17340
C          7.00210        1.97370        1.26950
C          6.22050        0.84420        1.12630
C          3.88590       -1.11510        1.85820
C          3.13120       -2.28220        1.80600
C          2.95600       -3.06250        2.93180
C          3.53310       -2.70310        4.14380
C          3.37800       -3.57230        5.35800
C          4.47290       -4.64020        5.39420
C          4.28530       -1.53720        4.19100
C          4.45690       -0.74830        3.06680
C          2.72800       -0.07120       -0.09800
C          2.71050       -0.62780       -1.36460
C          3.91150       -1.32640       -1.61110
S          4.56020       -2.33210       -2.83020
S          1.22870       -0.39940       -2.20960
C          0.56070        0.45980       -0.82160
C         -0.72300        0.97210       -0.70580
O         -1.71710        0.98610       -1.62020
C         -1.46280        0.85430       -3.00600
C         -0.71400        2.04980       -3.58160
C         -1.07250        1.52010        0.54990
C         -0.12690        1.61720        1.61480
C          1.16690        1.13490        1.48770
C          1.50040        0.53670        0.24860
O          2.18500        1.17450        2.37510
C          1.97650        1.43390        3.74970
C          1.26610        0.29430        4.46960
S         -0.83850        2.38570        3.03750
C         -2.36270        2.47080        2.24030
C         -3.67810        2.82630        2.60010
C         -4.52820        2.56770        1.51280
C         -3.72550        2.06620        0.32590
C         -2.34000        2.00800        0.93570
C         -3.85750        3.09050       -0.78420
C         -5.09470        3.28730       -1.38920
C         -5.24830        4.23130       -2.38550
C         -4.17800        5.01470       -2.79970
C         -4.36000        6.06680       -3.85500
C         -4.82470        7.38120       -3.22440
C         -2.95300        4.83360       -2.17440
C         -2.79250        3.88650       -1.17750
C         -4.15990        0.65920       -0.05870
C         -4.19690       -0.31140        0.93570
C         -4.55880       -1.61140        0.64100
C         -4.88700       -1.98160       -0.65670
C         -5.32200       -3.38300       -0.97400
C         -6.84290       -3.50660       -0.86260
C         -4.84760       -1.00900       -1.64570
C         -4.48890        0.29440       -1.35460
C         -5.85500        2.80400        1.79680
C         -6.05080        3.24910        3.10650
S         -4.51210        3.38660        3.97570
C         -7.19410        3.57610        3.84280
C         -8.53650        3.50440        3.54330
C         -9.18080        2.99960        2.31770
O         -8.67970        2.64060        1.27070
C        -10.63480        3.00760        2.59910
C        -11.66080        2.58640        1.77700
C        -12.95390        2.67980        2.26490
F        -13.98140        2.27990        1.50390
C        -13.19490        3.18430        3.54240
F        -14.45380        3.25960        3.99130
C        -12.16310        3.61040        4.36560
C        -10.86630        3.51980        3.88420
C         -9.57850        3.87330        4.48360
C         -9.43410        4.47530        5.70780
C         -8.22550        4.88810        6.30830
N         -7.30360        5.27020        6.87800
C        -10.51160        4.79880        6.56010
N        -11.33580        5.08740        7.30530
H          7.79040       -3.48890       -1.32320
H          5.62580       -5.61830       -6.81960
H          5.96360       -7.19000       -8.70250
H          7.32320       -8.94130       -9.81970
H         10.22570       -8.72860       -6.69910
H          9.92390       -7.18460       -4.83620
H          6.65040       -2.03900        0.15080
H          3.35350        2.31390        0.13520
H          4.73720        4.30110        0.39330
H          8.06760        4.32580        1.94400
H          6.73030        5.32930        1.36420
H          8.73080        5.59100       -0.08810
H          8.73410        3.85450       -0.41370
H          7.40280        4.85530       -0.99260
H          8.03070        1.87200        1.58470
H          6.65070       -0.12310        1.33430
H          2.67560       -2.58400        0.87320
H          2.36180       -3.96310        2.87000
H          2.40080       -4.05950        5.34180
H          3.44070       -2.96190        6.26120
H          5.45510       -4.17390        5.42380
H          4.36050       -5.27020        6.27330
H          4.41930       -5.26770        4.50740
H          4.73830       -1.23450        5.12460
H          5.03150        0.16130        3.14270
H         -2.46200        0.79560       -3.44430
H         -0.93900       -0.08140       -3.22660
H         -0.59720        1.92160       -4.65350
H         -1.27560        2.96100       -3.39010
H          0.27230        2.14400       -3.13380
H          1.44650        2.38170        3.89430
H          2.99010        1.54600        4.14290
H          1.83490       -0.62490        4.35900
H          0.26970        0.13500        4.06650
H          1.17890        0.53590        5.52470
H         -5.94300        2.69430       -1.08350
H         -6.21570        4.36290       -2.84840
H         -5.10370        5.73560       -4.58260
H         -3.41740        6.23320       -4.38060
H         -5.76930        7.23820       -2.70450
H         -4.96030        8.14270       -3.98880
H         -4.08980        7.73680       -2.50560
H         -2.10960        5.44320       -2.46870
H         -1.82670        3.77230       -0.70890
H         -3.93980       -0.04890        1.95270
H         -4.58210       -2.35020        1.42950
H         -5.01340       -3.64570       -1.98800
H         -4.85180       -4.08360       -0.28100
H         -7.16930       -3.26020        0.14530
H         -7.32940       -2.82360       -1.55510
H         -7.16050       -4.52080       -1.09310
H         -5.09760       -1.27520       -2.66320
H         -4.46220        1.02630       -2.14590
H         -6.68040        2.65620        1.12650
H         -6.96200        3.92250        4.84290
H        -11.46700        2.19610        0.79070
H        -12.40570        3.99040        5.34400
