
  xtb     02012220113D
 energy: -271.164852103504 gnorm: 0.000393858644 xtb: 6.4.1 (unknown)
160177  0     0  0            999 V2000
   -0.6837    6.5714   -7.4630 C   0  0  0  0  0  0  0  0  0  0  0  0
   -1.9329    7.1420   -7.4648 C   0  0  0  0  0  0  0  0  0  0  0  0
   -3.0455    6.7731   -6.5822 C   0  0  0  0  0  0  0  0  0  0  0  0
   -3.0774    5.8747   -5.7590 O   0  0  0  0  0  0  0  0  0  0  0  0
   -4.1374    7.7144   -6.8834 C   0  0  0  0  0  0  0  0  0  0  0  0
   -5.3726    7.8029   -6.3103 C   0  0  0  0  0  0  0  0  0  0  0  0
   -6.2659    8.8044   -6.7521 C   0  0  0  0  0  0  0  0  0  0  0  0
   -7.5523    8.9456   -6.1934 C   0  0  0  0  0  0  0  0  0  0  0  0
   -8.4056    9.9217   -6.6276 C   0  0  0  0  0  0  0  0  0  0  0  0
   -7.9828   10.7881   -7.6446 C   0  0  0  0  0  0  0  0  0  0  0  0
   -8.8362   11.7429   -8.0584 F   0  0  0  0  0  0  0  0  0  0  0  0
   -6.7465   10.6944   -8.2208 C   0  0  0  0  0  0  0  0  0  0  0  0
   -5.8547    9.6951   -7.7855 C   0  0  0  0  0  0  0  0  0  0  0  0
   -4.5681    9.5754   -8.3621 C   0  0  0  0  0  0  0  0  0  0  0  0
   -3.7190    8.5976   -7.9179 C   0  0  0  0  0  0  0  0  0  0  0  0
   -2.3560    8.2415   -8.3086 C   0  0  0  0  0  0  0  0  0  0  0  0
   -1.6415    8.8509   -9.3092 C   0  0  0  0  0  0  0  0  0  0  0  0
   -0.3355    8.5130   -9.7192 C   0  0  0  0  0  0  0  0  0  0  0  0
    0.7205    8.3016  -10.1201 N   0  0  0  0  0  0  0  0  0  0  0  0
   -2.1302    9.9173  -10.0923 C   0  0  0  0  0  0  0  0  0  0  0  0
   -2.4604   10.7874  -10.7651 N   0  0  0  0  0  0  0  0  0  0  0  0
   -0.1547    5.5363   -6.6816 C   0  0  0  0  0  0  0  0  0  0  0  0
    1.1829    5.1436   -6.7986 C   0  0  0  0  0  0  0  0  0  0  0  0
    1.5095    4.1303   -5.9224 C   0  0  0  0  0  0  0  0  0  0  0  0
    2.9817    3.2609   -5.5746 S   0  0  0  0  0  0  0  0  0  0  0  0
    2.1330    2.3611   -4.3621 C   0  0  0  0  0  0  0  0  0  0  0  0
    2.4948    1.3571   -3.4103 C   0  0  0  0  0  0  0  0  0  0  0  0
    1.3270    1.0713   -2.6528 C   0  0  0  0  0  0  0  0  0  0  0  0
    0.1440    1.8859   -3.1510 C   0  0  0  0  0  0  0  0  0  0  0  0
   -0.9057    0.9194   -3.6706 C   0  0  0  0  0  0  0  0  0  0  0  0
   -0.9263    0.5226   -4.9998 C   0  0  0  0  0  0  0  0  0  0  0  0
   -1.8588   -0.3968   -5.4437 C   0  0  0  0  0  0  0  0  0  0  0  0
   -2.7846   -0.9527   -4.5720 C   0  0  0  0  0  0  0  0  0  0  0  0
   -3.8234   -1.9178   -5.0660 C   0  0  0  0  0  0  0  0  0  0  0  0
   -5.0819   -1.1677   -5.5069 C   0  0  0  0  0  0  0  0  0  0  0  0
   -2.7556   -0.5576   -3.2407 C   0  0  0  0  0  0  0  0  0  0  0  0
   -1.8288    0.3642   -2.7934 C   0  0  0  0  0  0  0  0  0  0  0  0
   -0.4378    2.8463   -2.1308 C   0  0  0  0  0  0  0  0  0  0  0  0
    0.2331    3.1739   -0.9619 C   0  0  0  0  0  0  0  0  0  0  0  0
   -0.3123    4.0867   -0.0768 C   0  0  0  0  0  0  0  0  0  0  0  0
   -1.5268    4.7039   -0.3430 C   0  0  0  0  0  0  0  0  0  0  0  0
   -2.1366    5.6543    0.6470 C   0  0  0  0  0  0  0  0  0  0  0  0
   -2.9574    4.8864    1.6854 C   0  0  0  0  0  0  0  0  0  0  0  0
   -2.1853    4.3839   -1.5235 C   0  0  0  0  0  0  0  0  0  0  0  0
   -1.6495    3.4684   -2.4078 C   0  0  0  0  0  0  0  0  0  0  0  0
    0.7954    2.6952   -4.2396 C   0  0  0  0  0  0  0  0  0  0  0  0
    0.4257    3.7108   -5.1191 C   0  0  0  0  0  0  0  0  0  0  0  0
   -1.0081    4.5993   -5.4577 S   0  0  0  0  0  0  0  0  0  0  0  0
    1.3568    0.1564   -1.6322 C   0  0  0  0  0  0  0  0  0  0  0  0
    2.5762   -0.4632   -1.3568 C   0  0  0  0  0  0  0  0  0  0  0  0
    2.9715   -1.4101   -0.3650 C   0  0  0  0  0  0  0  0  0  0  0  0
    2.2782   -2.0243    0.6783 C   0  0  0  0  0  0  0  0  0  0  0  0
    2.9768   -2.8877    1.4825 C   0  0  0  0  0  0  0  0  0  0  0  0
    4.3564   -3.1412    1.2536 C   0  0  0  0  0  0  0  0  0  0  0  0
    5.0632   -2.5460    0.2212 C   0  0  0  0  0  0  0  0  0  0  0  0
    4.3537   -1.6668   -0.5828 C   0  0  0  0  0  0  0  0  0  0  0  0
    4.7932   -0.9065   -1.6376 N   0  0  0  0  0  0  0  0  0  0  0  0
    6.1226   -0.9300   -2.1886 C   0  0  0  0  0  0  0  0  0  0  0  0
    6.2673   -2.0041   -3.2653 C   0  0  0  0  0  0  0  0  0  0  0  0
    3.7375   -0.1771   -2.1261 C   0  0  0  0  0  0  0  0  0  0  0  0
    3.7091    0.7354   -3.1704 C   0  0  0  0  0  0  0  0  0  0  0  0
    4.7855   -4.0422    2.2764 C   0  0  0  0  0  0  0  0  0  0  0  0
    6.2844   -4.8079    2.6830 S   0  0  0  0  0  0  0  0  0  0  0  0
    5.5088   -5.5325    4.0681 C   0  0  0  0  0  0  0  0  0  0  0  0
    5.9435   -6.3519    5.0865 C   0  0  0  0  0  0  0  0  0  0  0  0
    4.9269   -6.6459    6.0042 C   0  0  0  0  0  0  0  0  0  0  0  0
    3.4028   -5.8804    5.5579 S   0  0  0  0  0  0  0  0  0  0  0  0
    4.1428   -5.1812    4.1725 C   0  0  0  0  0  0  0  0  0  0  0  0
    3.7459   -4.3298    3.1452 C   0  0  0  0  0  0  0  0  0  0  0  0
    2.4801   -3.6472    2.7021 C   0  0  0  0  0  0  0  0  0  0  0  0
    1.4622   -4.7320    2.3945 C   0  0  0  0  0  0  0  0  0  0  0  0
    1.2090   -5.1617    1.1008 C   0  0  0  0  0  0  0  0  0  0  0  0
    0.3074   -6.1860    0.8697 C   0  0  0  0  0  0  0  0  0  0  0  0
   -0.3481   -6.8130    1.9199 C   0  0  0  0  0  0  0  0  0  0  0  0
   -1.3596   -7.8928    1.6632 C   0  0  0  0  0  0  0  0  0  0  0  0
   -2.7586   -7.2895    1.5220 C   0  0  0  0  0  0  0  0  0  0  0  0
   -0.0810   -6.3848    3.2146 C   0  0  0  0  0  0  0  0  0  0  0  0
    0.8124   -5.3591    3.4516 C   0  0  0  0  0  0  0  0  0  0  0  0
    1.9392   -2.6527    3.7117 C   0  0  0  0  0  0  0  0  0  0  0  0
    2.7541   -2.1030    4.6906 C   0  0  0  0  0  0  0  0  0  0  0  0
    2.2513   -1.1715    5.5803 C   0  0  0  0  0  0  0  0  0  0  0  0
    0.9294   -0.7550    5.5071 C   0  0  0  0  0  0  0  0  0  0  0  0
    0.3724    0.2184    6.5054 C   0  0  0  0  0  0  0  0  0  0  0  0
   -0.2016   -0.5271    7.7120 C   0  0  0  0  0  0  0  0  0  0  0  0
    0.1209   -1.2991    4.5174 C   0  0  0  0  0  0  0  0  0  0  0  0
    0.6169   -2.2345    3.6300 C   0  0  0  0  0  0  0  0  0  0  0  0
    5.1629   -7.4455    7.1264 C   0  0  0  0  0  0  0  0  0  0  0  0
    4.3231   -7.8312    8.1457 C   0  0  0  0  0  0  0  0  0  0  0  0
    2.9083   -7.4751    8.2730 C   0  0  0  0  0  0  0  0  0  0  0  0
    2.2306   -6.8016    7.5190 O   0  0  0  0  0  0  0  0  0  0  0  0
    2.4416   -8.1074    9.5256 C   0  0  0  0  0  0  0  0  0  0  0  0
    1.1824   -8.0640   10.0895 C   0  0  0  0  0  0  0  0  0  0  0  0
    0.9899   -8.7419   11.2825 C   0  0  0  0  0  0  0  0  0  0  0  0
   -0.2150   -8.7274   11.8668 F   0  0  0  0  0  0  0  0  0  0  0  0
    2.0397   -9.4388   11.8802 C   0  0  0  0  0  0  0  0  0  0  0  0
    1.8261  -10.0845   13.0326 F   0  0  0  0  0  0  0  0  0  0  0  0
    3.3047   -9.4816   11.3121 C   0  0  0  0  0  0  0  0  0  0  0  0
    3.5058   -8.8060   10.1187 C   0  0  0  0  0  0  0  0  0  0  0  0
    4.6955   -8.6540    9.2777 C   0  0  0  0  0  0  0  0  0  0  0  0
    5.9221   -9.2040    9.5490 C   0  0  0  0  0  0  0  0  0  0  0  0
    7.0831   -9.0723    8.7586 C   0  0  0  0  0  0  0  0  0  0  0  0
    8.0745   -9.0201    8.1803 N   0  0  0  0  0  0  0  0  0  0  0  0
    6.2003   -9.9954   10.6837 C   0  0  0  0  0  0  0  0  0  0  0  0
    6.4942  -10.6458   11.5827 N   0  0  0  0  0  0  0  0  0  0  0  0
    0.0380    6.9840   -8.1578 H   0  0  0  0  0  0  0  0  0  0  0  0
   -5.6641    7.1185   -5.5277 H   0  0  0  0  0  0  0  0  0  0  0  0
   -7.8553    8.2661   -5.4110 H   0  0  0  0  0  0  0  0  0  0  0  0
   -9.3926   10.0438   -6.2105 H   0  0  0  0  0  0  0  0  0  0  0  0
   -6.4545   11.3789   -9.0019 H   0  0  0  0  0  0  0  0  0  0  0  0
   -4.2895   10.2669   -9.1405 H   0  0  0  0  0  0  0  0  0  0  0  0
    1.8627    5.6012   -7.4947 H   0  0  0  0  0  0  0  0  0  0  0  0
   -0.2117    0.9327   -5.6985 H   0  0  0  0  0  0  0  0  0  0  0  0
   -1.8633   -0.6893   -6.4842 H   0  0  0  0  0  0  0  0  0  0  0  0
   -3.4289   -2.4859   -5.9109 H   0  0  0  0  0  0  0  0  0  0  0  0
   -4.0831   -2.6213   -4.2723 H   0  0  0  0  0  0  0  0  0  0  0  0
   -5.8330   -1.8647   -5.8716 H   0  0  0  0  0  0  0  0  0  0  0  0
   -5.5009   -0.6093   -4.6728 H   0  0  0  0  0  0  0  0  0  0  0  0
   -4.8437   -0.4652   -6.3023 H   0  0  0  0  0  0  0  0  0  0  0  0
   -3.4670   -0.9788   -2.5445 H   0  0  0  0  0  0  0  0  0  0  0  0
   -1.8295    0.6654   -1.7558 H   0  0  0  0  0  0  0  0  0  0  0  0
    1.1844    2.7143   -0.7362 H   0  0  0  0  0  0  0  0  0  0  0  0
    0.2198    4.3260    0.8332 H   0  0  0  0  0  0  0  0  0  0  0  0
   -2.7844    6.3637    0.1284 H   0  0  0  0  0  0  0  0  0  0  0  0
   -1.3502    6.2166    1.1550 H   0  0  0  0  0  0  0  0  0  0  0  0
   -3.4043    5.5719    2.4018 H   0  0  0  0  0  0  0  0  0  0  0  0
   -3.7521    4.3256    1.1981 H   0  0  0  0  0  0  0  0  0  0  0  0
   -2.3242    4.1847    2.2239 H   0  0  0  0  0  0  0  0  0  0  0  0
   -3.1263    4.8593   -1.7586 H   0  0  0  0  0  0  0  0  0  0  0  0
   -2.1785    3.2314   -3.3191 H   0  0  0  0  0  0  0  0  0  0  0  0
    0.4787   -0.0718   -1.0491 H   0  0  0  0  0  0  0  0  0  0  0  0
    1.2329   -1.8163    0.8432 H   0  0  0  0  0  0  0  0  0  0  0  0
    6.1104   -2.7603    0.0755 H   0  0  0  0  0  0  0  0  0  0  0  0
    6.8304   -1.1144   -1.3762 H   0  0  0  0  0  0  0  0  0  0  0  0
    6.3399    0.0551   -2.6091 H   0  0  0  0  0  0  0  0  0  0  0  0
    6.0602   -2.9868   -2.8481 H   0  0  0  0  0  0  0  0  0  0  0  0
    5.5679   -1.8201   -4.0775 H   0  0  0  0  0  0  0  0  0  0  0  0
    7.2774   -1.9995   -3.6652 H   0  0  0  0  0  0  0  0  0  0  0  0
    4.5751    0.9681   -3.7700 H   0  0  0  0  0  0  0  0  0  0  0  0
    6.9446   -6.7301    5.1907 H   0  0  0  0  0  0  0  0  0  0  0  0
    1.7131   -4.6954    0.2668 H   0  0  0  0  0  0  0  0  0  0  0  0
    0.1165   -6.5052   -0.1453 H   0  0  0  0  0  0  0  0  0  0  0  0
   -1.3575   -8.6052    2.4905 H   0  0  0  0  0  0  0  0  0  0  0  0
   -1.1052   -8.4304    0.7476 H   0  0  0  0  0  0  0  0  0  0  0  0
   -3.4935   -8.0697    1.3382 H   0  0  0  0  0  0  0  0  0  0  0  0
   -3.0345   -6.7590    2.4307 H   0  0  0  0  0  0  0  0  0  0  0  0
   -2.7845   -6.5850    0.6935 H   0  0  0  0  0  0  0  0  0  0  0  0
   -0.5736   -6.8626    4.0489 H   0  0  0  0  0  0  0  0  0  0  0  0
    1.0048   -5.0391    4.4652 H   0  0  0  0  0  0  0  0  0  0  0  0
    3.7894   -2.4028    4.7642 H   0  0  0  0  0  0  0  0  0  0  0  0
    2.8987   -0.7603    6.3418 H   0  0  0  0  0  0  0  0  0  0  0  0
   -0.4165    0.8143    6.0419 H   0  0  0  0  0  0  0  0  0  0  0  0
    1.1598    0.8958    6.8421 H   0  0  0  0  0  0  0  0  0  0  0  0
   -0.9973   -1.1987    7.3977 H   0  0  0  0  0  0  0  0  0  0  0  0
    0.5732   -1.1187    8.1942 H   0  0  0  0  0  0  0  0  0  0  0  0
   -0.6053    0.1755    8.4374 H   0  0  0  0  0  0  0  0  0  0  0  0
   -0.9109   -0.9865    4.4408 H   0  0  0  0  0  0  0  0  0  0  0  0
   -0.0318   -2.6549    2.8752 H   0  0  0  0  0  0  0  0  0  0  0  0
    6.1848   -7.8002    7.1836 H   0  0  0  0  0  0  0  0  0  0  0  0
    0.3749   -7.5228    9.6231 H   0  0  0  0  0  0  0  0  0  0  0  0
    4.0801  -10.0346   11.8159 H   0  0  0  0  0  0  0  0  0  0  0  0
  1  2  2  0  0  0  0
  2  3  1  0  0  0  0
  3  4  2  0  0  0  0
  3  5  1  0  0  0  0
  5  6  2  0  0  0  0
  6  7  1  0  0  0  0
  7  8  2  0  0  0  0
  8  9  1  0  0  0  0
  9 10  2  0  0  0  0
 10 11  1  0  0  0  0
 10 12  1  0  0  0  0
 12 13  2  0  0  0  0
 13 14  1  0  0  0  0
 14 15  2  0  0  0  0
 15 16  1  0  0  0  0
 16 17  2  0  0  0  0
 17 18  1  0  0  0  0
 18 19  3  0  0  0  0
 17 20  1  0  0  0  0
 20 21  3  0  0  0  0
  1 22  1  0  0  0  0
 22 23  2  0  0  0  0
 23 24  1  0  0  0  0
 24 25  1  0  0  0  0
 25 26  1  0  0  0  0
 26 27  1  0  0  0  0
 27 28  2  0  0  0  0
 28 29  1  0  0  0  0
 29 30  1  0  0  0  0
 30 31  2  0  0  0  0
 31 32  1  0  0  0  0
 32 33  2  0  0  0  0
 33 34  1  0  0  0  0
 34 35  1  0  0  0  0
 33 36  1  0  0  0  0
 36 37  2  0  0  0  0
 29 38  1  0  0  0  0
 38 39  2  0  0  0  0
 39 40  1  0  0  0  0
 40 41  2  0  0  0  0
 41 42  1  0  0  0  0
 42 43  1  0  0  0  0
 41 44  1  0  0  0  0
 44 45  2  0  0  0  0
 29 46  1  0  0  0  0
 46 47  1  0  0  0  0
 47 48  1  0  0  0  0
 28 49  1  0  0  0  0
 49 50  2  0  0  0  0
 50 51  1  0  0  0  0
 51 52  2  0  0  0  0
 52 53  1  0  0  0  0
 53 54  2  0  0  0  0
 54 55  1  0  0  0  0
 55 56  2  0  0  0  0
 56 57  1  0  0  0  0
 57 58  1  0  0  0  0
 58 59  1  0  0  0  0
 57 60  1  0  0  0  0
 60 61  2  0  0  0  0
 54 62  1  0  0  0  0
 62 63  1  0  0  0  0
 63 64  1  0  0  0  0
 64 65  1  0  0  0  0
 65 66  2  0  0  0  0
 66 67  1  0  0  0  0
 67 68  1  0  0  0  0
 68 69  1  0  0  0  0
 69 70  1  0  0  0  0
 70 71  1  0  0  0  0
 71 72  2  0  0  0  0
 72 73  1  0  0  0  0
 73 74  2  0  0  0  0
 74 75  1  0  0  0  0
 75 76  1  0  0  0  0
 74 77  1  0  0  0  0
 77 78  2  0  0  0  0
 70 79  1  0  0  0  0
 79 80  2  0  0  0  0
 80 81  1  0  0  0  0
 81 82  2  0  0  0  0
 82 83  1  0  0  0  0
 83 84  1  0  0  0  0
 82 85  1  0  0  0  0
 85 86  2  0  0  0  0
 66 87  1  0  0  0  0
 87 88  2  0  0  0  0
 88 89  1  0  0  0  0
 89 90  2  0  0  0  0
 89 91  1  0  0  0  0
 91 92  2  0  0  0  0
 92 93  1  0  0  0  0
 93 94  1  0  0  0  0
 93 95  2  0  0  0  0
 95 96  1  0  0  0  0
 95 97  1  0  0  0  0
 97 98  2  0  0  0  0
 98 99  1  0  0  0  0
 99100  2  0  0  0  0
100101  1  0  0  0  0
101102  3  0  0  0  0
100103  1  0  0  0  0
103104  3  0  0  0  0
 16  2  1  0  0  0  0
 48 22  1  0  0  0  0
 60 50  1  0  0  0  0
 69 62  2  0  0  0  0
 78 71  1  0  0  0  0
 86 79  1  0  0  0  0
 99 88  1  0  0  0  0
 15  5  1  0  0  0  0
 47 24  2  0  0  0  0
 56 51  1  0  0  0  0
 68 64  2  0  0  0  0
 98 91  1  0  0  0  0
 13  7  1  0  0  0  0
 46 26  2  0  0  0  0
 70 53  1  0  0  0  0
 61 27  1  0  0  0  0
 37 30  1  0  0  0  0
 45 38  1  0  0  0  0
  1105  1  0  0  0  0
  6106  1  0  0  0  0
  8107  1  0  0  0  0
  9108  1  0  0  0  0
 12109  1  0  0  0  0
 14110  1  0  0  0  0
 23111  1  0  0  0  0
 31112  1  0  0  0  0
 32113  1  0  0  0  0
 34114  1  0  0  0  0
 34115  1  0  0  0  0
 35116  1  0  0  0  0
 35117  1  0  0  0  0
 35118  1  0  0  0  0
 36119  1  0  0  0  0
 37120  1  0  0  0  0
 39121  1  0  0  0  0
 40122  1  0  0  0  0
 42123  1  0  0  0  0
 42124  1  0  0  0  0
 43125  1  0  0  0  0
 43126  1  0  0  0  0
 43127  1  0  0  0  0
 44128  1  0  0  0  0
 45129  1  0  0  0  0
 49130  1  0  0  0  0
 52131  1  0  0  0  0
 55132  1  0  0  0  0
 58133  1  0  0  0  0
 58134  1  0  0  0  0
 59135  1  0  0  0  0
 59136  1  0  0  0  0
 59137  1  0  0  0  0
 61138  1  0  0  0  0
 65139  1  0  0  0  0
 72140  1  0  0  0  0
 73141  1  0  0  0  0
 75142  1  0  0  0  0
 75143  1  0  0  0  0
 76144  1  0  0  0  0
 76145  1  0  0  0  0
 76146  1  0  0  0  0
 77147  1  0  0  0  0
 78148  1  0  0  0  0
 80149  1  0  0  0  0
 81150  1  0  0  0  0
 83151  1  0  0  0  0
 83152  1  0  0  0  0
 84153  1  0  0  0  0
 84154  1  0  0  0  0
 84155  1  0  0  0  0
 85156  1  0  0  0  0
 86157  1  0  0  0  0
 87158  1  0  0  0  0
 92159  1  0  0  0  0
 97160  1  0  0  0  0
M  END
