150

C         -3.03710        7.85270       -0.53850
C         -4.32480        8.19910       -0.87350
C         -5.30960        7.31210       -1.49850
O         -5.14340        6.16290       -1.87200
C         -6.55990        8.08380       -1.58940
C         -7.77450        7.69050       -2.07030
C         -8.85070        8.60560       -2.05030
C        -10.12880        8.25270       -2.52850
C        -11.16270        9.14720       -2.50140
C        -10.93440       10.43110       -1.98860
F        -11.96380       11.29800       -1.97020
C         -9.71460       10.82450       -1.51230
C         -8.63890        9.91580       -1.53160
C         -7.36630       10.29360       -1.04140
C         -6.33860        9.38960       -1.06800
C         -4.94660        9.48420       -0.63030
C         -4.36500       10.60680       -0.09610
C         -5.04080       11.82880        0.10100
N         -5.52750       12.85160        0.29020
C         -3.02530       10.72310        0.32690
N         -1.95240       10.90460        0.69680
C         -2.34930        6.64550       -0.69630
S         -2.95650        5.17760       -1.45460
C         -1.47670        4.39660       -1.10940
C         -0.91160        3.10830       -1.26950
C          0.34600        3.08340       -0.68890
C          0.70990        4.43810       -0.12030
C         -0.54990        5.21300       -0.44120
C         -1.03910        6.47670       -0.21630
C          0.90430        4.45260        1.38360
C          0.59180        3.35930        2.17780
C          0.75750        3.42090        3.55010
C          1.22690        4.57320        4.16420
C          1.36440        4.64710        5.65720
C          0.05050        5.10860        6.29120
C          1.51820        5.67280        3.36610
C          1.35870        5.61580        1.99550
C          1.92140        4.95160       -0.88400
C          3.20100        4.88260       -0.35040
C          4.29110        5.31020       -1.08560
C          4.13580        5.81270       -2.37040
C          5.32790        6.23430       -3.17920
C          5.91220        5.03650       -3.93120
C          2.85500        5.86830       -2.90430
C          1.76240        5.44090       -2.17440
C          1.00370        1.83440       -0.72680
C          2.23830        1.49120       -0.17060
C          2.63970        0.17690       -0.20650
Se         4.21240       -0.50860        0.60450
C          3.57400       -2.18350        0.07140
C          3.90640       -3.54000        0.30430
C          2.91890       -4.35910       -0.25670
C          1.91070       -3.51910       -1.00950
C          2.05620       -3.84470       -2.48690
C          1.67900       -5.10540       -2.93680
C          1.82840       -5.44910       -4.26550
C          2.36340       -4.54930       -5.17990
C          2.48720       -4.91230       -6.63130
C          1.19720       -4.57130       -7.38020
C          2.73620       -3.29280       -4.72510
C          2.58960       -2.94210       -3.39420
C          0.49080       -3.70660       -0.50560
C         -0.59780       -3.67730       -1.36640
C         -1.88400       -3.79750       -0.87300
C         -2.11690       -3.94630        0.48710
C         -3.51100       -4.12950        1.01240
C         -3.87290       -5.61570        1.04830
C         -1.02410       -3.97120        1.34410
C          0.26260       -3.84680        0.85710
C          2.39480       -2.13030       -0.65390
C          1.84640       -0.83910       -0.81760
C          0.63900       -0.48610       -1.42350
C          0.22330        0.82310       -1.36180
Se        -1.43820        1.47310       -2.00530
C          3.08350       -5.69630        0.04660
C          4.19770       -5.92380        0.85040
S          5.08290       -4.42510        1.16670
C          4.69980       -7.08580        1.45870
C          4.08550       -8.28490        1.71670
C          2.64700       -8.61160        1.59500
O          1.77810       -8.02750        0.97950
C          2.44700       -9.81860        2.42060
C          1.27650      -10.44690        2.73210
C          1.30690      -11.57650        3.57980
C          0.12670      -12.25400        3.94780
C          0.16690      -13.33730        4.78080
C          1.40720      -13.77220        5.26700
F          1.42660      -14.83890        6.08760
C          2.58150      -13.15360        4.93920
C          2.55870      -12.03500        4.08360
C          3.75690      -11.36920        3.73270
C          3.70080      -10.27470        2.91230
C          4.73870       -9.38250        2.40630
C          6.08890       -9.59690        2.50740
C          6.66020      -10.69910        3.17600
N          7.18190      -11.57150        3.70990
C          7.08410       -8.78860        1.91850
N          7.94700       -8.19260        1.45000
H         -2.44140        8.61550       -0.05200
H         -7.91350        6.69270       -2.45890
H        -10.27980        7.25740       -2.91880
H        -12.14660        8.89320       -2.86250
H         -9.57530       11.82150       -1.12440
H         -7.24230       11.29190       -0.65400
H         -0.51230        7.27370        0.27700
H          0.21910        2.44950        1.73140
H          0.51840        2.55520        4.15120
H          1.62930        3.66480        6.05350
H          2.15770        5.34870        5.92220
H          0.14990        5.16650        7.37250
H         -0.22680        6.09050        5.91440
H         -0.75020        4.41230        6.05210
H          1.87780        6.58350        3.82290
H          1.60280        6.47670        1.39050
H          3.35180        4.50930        0.65230
H          5.27870        5.25460       -0.65040
H          5.03550        7.00270       -3.89730
H          6.09210        6.65340       -2.52170
H          6.77520        5.34060       -4.51870
H          5.16800        4.61080       -4.60080
H          6.22270        4.26440       -3.23080
H          2.70940        6.25300       -3.90360
H          0.77590        5.49120       -2.61210
H          2.84250        2.24660        0.30720
H          1.25580       -5.81540       -2.24220
H          1.53030       -6.43310       -4.59780
H          3.31890       -4.36560       -7.08000
H          2.68790       -5.98100       -6.72900
H          1.28640       -4.83610       -8.43110
H          0.35720       -5.11600       -6.95480
H          0.98710       -3.50650       -7.30670
H          3.15290       -2.57600       -5.41820
H          2.89370       -1.95790       -3.06990
H         -0.44450       -3.56950       -2.43090
H         -2.71940       -3.77260       -1.55830
H         -3.58480       -3.71630        2.02030
H         -4.22080       -3.60100        0.37290
H         -4.87920       -5.75340        1.43710
H         -3.17620       -6.15840        1.68320
H         -3.82480       -6.04050        0.04820
H         -1.18220       -4.08610        2.40680
H          1.09820       -3.86200        1.54200
H          0.03130       -1.24270       -1.89530
H          2.42780       -6.48940       -0.25680
H          5.70390       -6.96940        1.85190
H          0.33790      -10.08120        2.34310
H         -0.81670      -11.89930        3.56040
H         -0.72670      -13.86490        5.07460
H          3.51830      -13.51700        5.33170
H          4.68740      -11.73610        4.13500
