
  xtb     02012221553D
 energy: -226.379874531600 gnorm: 0.000422637086 xtb: 6.4.1 (unknown)
123137  0     0  0            999 V2000
   -3.6299    1.2749   -6.5788 C   0  0  0  0  0  0  0  0  0  0  0  0
   -4.8821    1.7453   -6.8840 C   0  0  0  0  0  0  0  0  0  0  0  0
   -5.8222    2.3352   -5.9057 C   0  0  0  0  0  0  0  0  0  0  0  0
   -5.6605    2.4691   -4.7099 O   0  0  0  0  0  0  0  0  0  0  0  0
   -7.0582    2.6112   -6.6585 C   0  0  0  0  0  0  0  0  0  0  0  0
   -8.2092    3.1941   -6.2168 C   0  0  0  0  0  0  0  0  0  0  0  0
   -9.2778    3.3807   -7.1221 C   0  0  0  0  0  0  0  0  0  0  0  0
  -10.4836    3.9933   -6.7256 C   0  0  0  0  0  0  0  0  0  0  0  0
  -11.5127    4.1614   -7.6100 C   0  0  0  0  0  0  0  0  0  0  0  0
  -11.3528    3.7142   -8.9282 C   0  0  0  0  0  0  0  0  0  0  0  0
  -12.3769    3.8873   -9.7845 F   0  0  0  0  0  0  0  0  0  0  0  0
  -10.2035    3.1167   -9.3656 C   0  0  0  0  0  0  0  0  0  0  0  0
   -9.1329    2.9366   -8.4683 C   0  0  0  0  0  0  0  0  0  0  0  0
   -7.9294    2.3259   -8.8938 C   0  0  0  0  0  0  0  0  0  0  0  0
   -6.9021    2.1710   -8.0021 C   0  0  0  0  0  0  0  0  0  0  0  0
   -5.5584    1.6177   -8.1540 C   0  0  0  0  0  0  0  0  0  0  0  0
   -5.0176    1.1542   -9.3280 C   0  0  0  0  0  0  0  0  0  0  0  0
   -5.7208    1.0796  -10.5472 C   0  0  0  0  0  0  0  0  0  0  0  0
   -6.2386    0.9877  -11.5681 N   0  0  0  0  0  0  0  0  0  0  0  0
   -3.6894    0.7108   -9.4873 C   0  0  0  0  0  0  0  0  0  0  0  0
   -2.6162    0.3578   -9.6968 N   0  0  0  0  0  0  0  0  0  0  0  0
   -2.8536    1.6174   -5.4551 C   0  0  0  0  0  0  0  0  0  0  0  0
   -2.8140    2.7886   -4.6948 C   0  0  0  0  0  0  0  0  0  0  0  0
   -3.5476    4.0026   -5.0309 C   0  0  0  0  0  0  0  0  0  0  0  0
   -3.6276    4.4381   -6.3527 C   0  0  0  0  0  0  0  0  0  0  0  0
   -4.4086    5.5257   -6.6815 C   0  0  0  0  0  0  0  0  0  0  0  0
   -5.1241    6.2123   -5.7052 C   0  0  0  0  0  0  0  0  0  0  0  0
   -6.0508    7.3296   -6.0855 C   0  0  0  0  0  0  0  0  0  0  0  0
   -7.4404    6.7721   -6.4043 C   0  0  0  0  0  0  0  0  0  0  0  0
   -5.0005    5.8051   -4.3835 C   0  0  0  0  0  0  0  0  0  0  0  0
   -4.2190    4.7181   -4.0428 C   0  0  0  0  0  0  0  0  0  0  0  0
   -1.9235    2.6661   -3.6206 C   0  0  0  0  0  0  0  0  0  0  0  0
   -1.4874    3.7513   -2.3210 S   0  0  0  0  0  0  0  0  0  0  0  0
   -0.4262    2.5375   -1.6973 C   0  0  0  0  0  0  0  0  0  0  0  0
    0.3756    2.3116   -0.5696 C   0  0  0  0  0  0  0  0  0  0  0  0
    0.5460    3.0583    0.6183 C   0  0  0  0  0  0  0  0  0  0  0  0
    1.2301    2.4535    1.7259 C   0  0  0  0  0  0  0  0  0  0  0  0
    1.2374    3.2285    2.7987 N   0  0  0  0  0  0  0  0  0  0  0  0
    0.4597    4.6029    2.4454 S   0  0  0  0  0  0  0  0  0  0  0  0
    0.0779    4.2613    0.9104 N   0  0  0  0  0  0  0  0  0  0  0  0
    1.8327    1.1878    1.5491 C   0  0  0  0  0  0  0  0  0  0  0  0
    2.6008    0.3889    2.4101 C   0  0  0  0  0  0  0  0  0  0  0  0
    3.1207    0.3641    4.0588 S   0  0  0  0  0  0  0  0  0  0  0  0
    3.9429   -1.1477    3.7506 C   0  0  0  0  0  0  0  0  0  0  0  0
    4.6867   -2.0047    4.5694 C   0  0  0  0  0  0  0  0  0  0  0  0
    4.9876   -1.7367    5.9728 C   0  0  0  0  0  0  0  0  0  0  0  0
    6.2742   -1.9107    6.4788 C   0  0  0  0  0  0  0  0  0  0  0  0
    6.5190   -1.7518    7.8276 C   0  0  0  0  0  0  0  0  0  0  0  0
    5.4940   -1.4157    8.7071 C   0  0  0  0  0  0  0  0  0  0  0  0
    5.7599   -1.2602   10.1748 C   0  0  0  0  0  0  0  0  0  0  0  0
    6.0968    0.1947   10.5085 C   0  0  0  0  0  0  0  0  0  0  0  0
    4.2254   -1.1877    8.1896 C   0  0  0  0  0  0  0  0  0  0  0  0
    3.9703   -1.3425    6.8398 C   0  0  0  0  0  0  0  0  0  0  0  0
    5.1411   -3.1202    3.8593 C   0  0  0  0  0  0  0  0  0  0  0  0
    4.6900   -3.0449    2.1569 S   0  0  0  0  0  0  0  0  0  0  0  0
    3.8308   -1.5783    2.4198 C   0  0  0  0  0  0  0  0  0  0  0  0
    3.0474   -0.7066    1.6613 C   0  0  0  0  0  0  0  0  0  0  0  0
    2.5699   -0.6288    0.3777 N   0  0  0  0  0  0  0  0  0  0  0  0
    1.7894    0.5117    0.2966 C   0  0  0  0  0  0  0  0  0  0  0  0
    0.9349    1.0101   -0.7184 C   0  0  0  0  0  0  0  0  0  0  0  0
    0.4456    0.4516   -1.8829 N   0  0  0  0  0  0  0  0  0  0  0  0
   -0.3818    1.3703   -2.4718 C   0  0  0  0  0  0  0  0  0  0  0  0
   -1.2445    1.4389   -3.5694 C   0  0  0  0  0  0  0  0  0  0  0  0
   -1.7004    0.4153   -4.8786 S   0  0  0  0  0  0  0  0  0  0  0  0
    0.4235   -0.9288   -2.3145 C   0  0  0  0  0  0  0  0  0  0  0  0
    1.2168   -1.1399   -3.6042 C   0  0  0  0  0  0  0  0  0  0  0  0
    3.2989   -1.3029   -0.6757 C   0  0  0  0  0  0  0  0  0  0  0  0
    4.7106   -0.7340   -0.8185 C   0  0  0  0  0  0  0  0  0  0  0  0
    5.8732   -4.2506    4.2683 C   0  0  0  0  0  0  0  0  0  0  0  0
    6.0333   -4.8083    5.5078 C   0  0  0  0  0  0  0  0  0  0  0  0
    7.2039   -5.6864    5.7518 C   0  0  0  0  0  0  0  0  0  0  0  0
    7.9427   -6.1696    4.9256 O   0  0  0  0  0  0  0  0  0  0  0  0
    7.3077   -5.7847    7.2281 C   0  0  0  0  0  0  0  0  0  0  0  0
    8.3022   -6.3671    7.9884 C   0  0  0  0  0  0  0  0  0  0  0  0
    8.1955   -6.2735    9.3673 C   0  0  0  0  0  0  0  0  0  0  0  0
    9.1431   -6.8151   10.1434 F   0  0  0  0  0  0  0  0  0  0  0  0
    7.1177   -5.6122    9.9561 C   0  0  0  0  0  0  0  0  0  0  0  0
    7.0554   -5.5150   11.2898 F   0  0  0  0  0  0  0  0  0  0  0  0
    6.1094   -5.0415    9.1937 C   0  0  0  0  0  0  0  0  0  0  0  0
    6.2105   -5.1327    7.8161 C   0  0  0  0  0  0  0  0  0  0  0  0
    5.3295   -4.6455    6.7554 C   0  0  0  0  0  0  0  0  0  0  0  0
    4.0047   -4.3297    6.9116 C   0  0  0  0  0  0  0  0  0  0  0  0
    3.3544   -4.2688    8.1598 C   0  0  0  0  0  0  0  0  0  0  0  0
    2.7850   -4.1958    9.1536 N   0  0  0  0  0  0  0  0  0  0  0  0
    3.1363   -4.1137    5.8241 C   0  0  0  0  0  0  0  0  0  0  0  0
    2.3981   -3.9670    4.9575 N   0  0  0  0  0  0  0  0  0  0  0  0
   -3.1850    0.5351   -7.2344 H   0  0  0  0  0  0  0  0  0  0  0  0
   -8.2997    3.5142   -5.1898 H   0  0  0  0  0  0  0  0  0  0  0  0
  -10.5835    4.3280   -5.7041 H   0  0  0  0  0  0  0  0  0  0  0  0
  -12.4425    4.6258   -7.3221 H   0  0  0  0  0  0  0  0  0  0  0  0
  -10.1151    2.7858  -10.3887 H   0  0  0  0  0  0  0  0  0  0  0  0
   -7.8548    1.9955   -9.9173 H   0  0  0  0  0  0  0  0  0  0  0  0
   -3.0701    3.9211   -7.1211 H   0  0  0  0  0  0  0  0  0  0  0  0
   -4.4684    5.8481   -7.7116 H   0  0  0  0  0  0  0  0  0  0  0  0
   -6.1296    8.0447   -5.2646 H   0  0  0  0  0  0  0  0  0  0  0  0
   -5.6635    7.8534   -6.9614 H   0  0  0  0  0  0  0  0  0  0  0  0
   -8.1181    7.5745   -6.6855 H   0  0  0  0  0  0  0  0  0  0  0  0
   -7.8482    6.2599   -5.5362 H   0  0  0  0  0  0  0  0  0  0  0  0
   -7.3864    6.0592   -7.2249 H   0  0  0  0  0  0  0  0  0  0  0  0
   -5.5336    6.3390   -3.6101 H   0  0  0  0  0  0  0  0  0  0  0  0
   -4.1638    4.3908   -3.0167 H   0  0  0  0  0  0  0  0  0  0  0  0
    7.0809   -2.1718    5.8090 H   0  0  0  0  0  0  0  0  0  0  0  0
    7.5197   -1.9005    8.2081 H   0  0  0  0  0  0  0  0  0  0  0  0
    6.5946   -1.8993   10.4701 H   0  0  0  0  0  0  0  0  0  0  0  0
    4.8770   -1.5637   10.7405 H   0  0  0  0  0  0  0  0  0  0  0  0
    5.2708    0.8470   10.2348 H   0  0  0  0  0  0  0  0  0  0  0  0
    6.9813    0.5140    9.9616 H   0  0  0  0  0  0  0  0  0  0  0  0
    6.2881    0.3029   11.5730 H   0  0  0  0  0  0  0  0  0  0  0  0
    3.4213   -0.9062    8.8529 H   0  0  0  0  0  0  0  0  0  0  0  0
    2.9713   -1.1942    6.4580 H   0  0  0  0  0  0  0  0  0  0  0  0
    0.7859   -1.5599   -1.5025 H   0  0  0  0  0  0  0  0  0  0  0  0
   -0.6214   -1.2006   -2.5019 H   0  0  0  0  0  0  0  0  0  0  0  0
    1.2845   -2.2015   -3.8240 H   0  0  0  0  0  0  0  0  0  0  0  0
    2.2219   -0.7299   -3.5316 H   0  0  0  0  0  0  0  0  0  0  0  0
    0.7177   -0.6498   -4.4355 H   0  0  0  0  0  0  0  0  0  0  0  0
    2.7800   -1.1808   -1.6187 H   0  0  0  0  0  0  0  0  0  0  0  0
    3.3507   -2.3666   -0.4240 H   0  0  0  0  0  0  0  0  0  0  0  0
    5.2293   -1.2466   -1.6236 H   0  0  0  0  0  0  0  0  0  0  0  0
    5.2795   -0.8679    0.0973 H   0  0  0  0  0  0  0  0  0  0  0  0
    4.6675    0.3283   -1.0495 H   0  0  0  0  0  0  0  0  0  0  0  0
    6.4436   -4.7412    3.4835 H   0  0  0  0  0  0  0  0  0  0  0  0
    9.1376   -6.8746    7.5330 H   0  0  0  0  0  0  0  0  0  0  0  0
    5.2963   -4.5359    9.6881 H   0  0  0  0  0  0  0  0  0  0  0  0
  1  2  2  0  0  0  0
  2  3  1  0  0  0  0
  3  4  2  0  0  0  0
  3  5  1  0  0  0  0
  5  6  2  0  0  0  0
  6  7  1  0  0  0  0
  7  8  2  0  0  0  0
  8  9  1  0  0  0  0
  9 10  2  0  0  0  0
 10 11  1  0  0  0  0
 10 12  1  0  0  0  0
 12 13  2  0  0  0  0
 13 14  1  0  0  0  0
 14 15  2  0  0  0  0
 15 16  1  0  0  0  0
 16 17  2  0  0  0  0
 17 18  1  0  0  0  0
 18 19  3  0  0  0  0
 17 20  1  0  0  0  0
 20 21  3  0  0  0  0
  1 22  1  0  0  0  0
 22 23  2  0  0  0  0
 23 24  1  0  0  0  0
 24 25  2  0  0  0  0
 25 26  1  0  0  0  0
 26 27  2  0  0  0  0
 27 28  1  0  0  0  0
 28 29  1  0  0  0  0
 27 30  1  0  0  0  0
 30 31  2  0  0  0  0
 23 32  1  0  0  0  0
 32 33  1  0  0  0  0
 33 34  1  0  0  0  0
 34 35  1  0  0  0  0
 35 36  1  0  0  0  0
 36 37  1  0  0  0  0
 37 38  2  0  0  0  0
 38 39  1  0  0  0  0
 39 40  1  0  0  0  0
 37 41  1  0  0  0  0
 41 42  1  0  0  0  0
 42 43  1  0  0  0  0
 43 44  1  0  0  0  0
 44 45  1  0  0  0  0
 45 46  1  0  0  0  0
 46 47  2  0  0  0  0
 47 48  1  0  0  0  0
 48 49  2  0  0  0  0
 49 50  1  0  0  0  0
 50 51  1  0  0  0  0
 49 52  1  0  0  0  0
 52 53  2  0  0  0  0
 45 54  2  0  0  0  0
 54 55  1  0  0  0  0
 55 56  1  0  0  0  0
 56 57  1  0  0  0  0
 57 58  1  0  0  0  0
 58 59  1  0  0  0  0
 59 60  1  0  0  0  0
 60 61  1  0  0  0  0
 61 62  1  0  0  0  0
 62 63  1  0  0  0  0
 63 64  1  0  0  0  0
 61 65  1  0  0  0  0
 65 66  1  0  0  0  0
 58 67  1  0  0  0  0
 67 68  1  0  0  0  0
 54 69  1  0  0  0  0
 69 70  2  0  0  0  0
 70 71  1  0  0  0  0
 71 72  2  0  0  0  0
 71 73  1  0  0  0  0
 73 74  2  0  0  0  0
 74 75  1  0  0  0  0
 75 76  1  0  0  0  0
 75 77  2  0  0  0  0
 77 78  1  0  0  0  0
 77 79  1  0  0  0  0
 79 80  2  0  0  0  0
 80 81  1  0  0  0  0
 81 82  2  0  0  0  0
 82 83  1  0  0  0  0
 83 84  3  0  0  0  0
 82 85  1  0  0  0  0
 85 86  3  0  0  0  0
 16  2  1  0  0  0  0
 64 22  1  0  0  0  0
 81 70  1  0  0  0  0
 15  5  1  0  0  0  0
 31 24  1  0  0  0  0
 63 32  2  0  0  0  0
 80 73  1  0  0  0  0
 13  7  1  0  0  0  0
 62 34  2  0  0  0  0
 60 35  2  0  0  0  0
 40 36  2  0  0  0  0
 59 41  2  0  0  0  0
 57 42  2  0  0  0  0
 56 44  2  0  0  0  0
 53 46  1  0  0  0  0
  1 87  1  0  0  0  0
  6 88  1  0  0  0  0
  8 89  1  0  0  0  0
  9 90  1  0  0  0  0
 12 91  1  0  0  0  0
 14 92  1  0  0  0  0
 25 93  1  0  0  0  0
 26 94  1  0  0  0  0
 28 95  1  0  0  0  0
 28 96  1  0  0  0  0
 29 97  1  0  0  0  0
 29 98  1  0  0  0  0
 29 99  1  0  0  0  0
 30100  1  0  0  0  0
 31101  1  0  0  0  0
 47102  1  0  0  0  0
 48103  1  0  0  0  0
 50104  1  0  0  0  0
 50105  1  0  0  0  0
 51106  1  0  0  0  0
 51107  1  0  0  0  0
 51108  1  0  0  0  0
 52109  1  0  0  0  0
 53110  1  0  0  0  0
 65111  1  0  0  0  0
 65112  1  0  0  0  0
 66113  1  0  0  0  0
 66114  1  0  0  0  0
 66115  1  0  0  0  0
 67116  1  0  0  0  0
 67117  1  0  0  0  0
 68118  1  0  0  0  0
 68119  1  0  0  0  0
 68120  1  0  0  0  0
 69121  1  0  0  0  0
 74122  1  0  0  0  0
 79123  1  0  0  0  0
M  END
