181

C          2.23300       -7.95590        4.12650
C          2.64890       -7.94600        5.42480
C          3.46920       -9.07660        5.93550
O          3.62660      -10.15510        5.40920
C          4.09170       -8.57130        7.17540
C          5.03010       -9.16330        7.97000
C          5.51390       -8.46760        9.10100
C          6.48120       -9.03470        9.95560
C          6.95080       -8.34970       11.04160
C          6.45490       -7.06440       11.29820
F          6.93060       -6.40400       12.37010
C          5.51560       -6.46870       10.50350
C          5.01840       -7.16110        9.38240
C          4.03690       -6.57690        8.54790
C          3.57530       -7.27550        7.46630
C          2.55440       -6.95390        6.47230
C          1.52860       -6.06410        6.66260
C          1.44870       -5.18540        7.75960
N          1.34050       -4.43140        8.61920
C          0.38350       -6.00290        5.84150
N         -0.59690       -5.96660        5.24510
C          1.82720       -6.87930        3.31100
C          1.16270       -6.99100        2.09940
C          0.89780       -5.75220        1.53150
S          0.04510       -5.23100        0.10560
C          0.33950       -3.58490        0.55140
C         -0.05010       -2.30760        0.04380
C         -0.76550       -1.95820       -1.09870
C         -1.00450       -0.62060       -1.30470
C         -1.74660        0.03360       -2.46410
C         -3.19680       -0.41400       -2.51380
C         -3.87840       -0.64470       -1.32410
C         -5.20880       -1.01700       -1.33390
C         -5.90220       -1.15690       -2.52890
C         -7.33430       -1.60600       -2.54250
C         -7.41610       -3.13330       -2.58390
C         -5.22210       -0.91530       -3.71360
C         -3.88980       -0.54750       -3.70770
C         -0.93990       -0.26960       -3.71390
C         -1.10170       -1.47590       -4.38510
C         -0.32500       -1.77710       -5.48730
C          0.64860       -0.89600       -5.93920
C          1.52150       -1.25180       -7.10760
C          2.70740       -2.10370       -6.65060
C          0.83050        0.29150       -5.24590
C          0.04990        0.60110       -4.14820
C         -1.68290        1.49070       -2.06510
C         -0.97620        1.61750       -0.86930
C         -0.53850        0.34900       -0.38750
C          0.18810        0.00190        0.74940
C          0.42390       -1.33590        0.95890
C          1.19040       -1.98760        2.09680
C          0.53570       -1.86800        3.46240
C         -0.80280       -1.53540        3.60700
C         -1.39060       -1.54050        4.85870
C         -0.66520       -1.88930        5.99050
C         -1.32670       -1.95350        7.33580
C         -2.15180       -3.23490        7.46610
C          0.67460       -2.22060        5.83830
C          1.26880       -2.21290        4.59130
C          2.60630       -1.44670        2.08900
C          2.90190       -0.27120        2.76780
C          4.17710        0.25840        2.72770
C          5.18720       -0.36590        2.00660
C          6.58300        0.18700        2.00440
C          7.39050       -0.39760        3.16510
C          4.88460       -1.53790        1.32720
C          3.60900       -2.07080        1.36140
C          1.07600       -3.43800        1.71600
C          1.39170       -4.66740        2.28170
S          2.20320       -5.20210        3.69780
S         -0.82800        3.23660       -0.29600
C         -1.72580        3.76090       -1.67340
C         -2.15970        4.99340       -2.19300
C         -2.84210        4.76890       -3.39490
C         -2.87670        3.28960       -3.72030
C         -2.12380        2.72380       -2.53250
C         -4.33780        2.88710       -3.76520
C         -5.09380        3.14020       -4.90380
C         -6.44110        2.83690       -4.93290
C         -7.07580        2.29490       -3.82250
C         -8.55020        2.01270       -3.84300
C         -9.34020        3.26640       -3.46230
C         -6.32450        2.07910       -2.67660
C         -4.97390        2.37220       -2.64520
C         -2.09140        2.99420       -4.98960
C         -2.45940        1.97710       -5.85720
C         -1.70530        1.70440       -6.98320
C         -0.56410        2.43800       -7.27250
C          0.22300        2.17830       -8.52400
C         -0.26310        3.08310       -9.65790
C         -0.19810        3.45530       -6.40090
C         -0.94460        3.72810       -5.27110
C         -3.31240        5.93050       -3.97120
C         -2.94700        7.06930       -3.25470
S         -2.06550        6.65090       -1.78600
C         -3.28210        8.39270       -3.58360
C         -2.72970        9.55800       -3.12600
C         -3.51170       10.81470       -3.16850
O         -4.54600       11.01620       -3.76300
C         -2.78100       11.74930       -2.27770
C         -3.14780       13.01470       -1.86860
C         -2.30700       13.69500       -0.99500
Cl        -2.71010       15.27360       -0.44210
C         -1.12690       13.08640       -0.56300
F         -0.33030       13.74360        0.28920
C         -0.74460       11.82010       -0.97920
C         -1.58580       11.14520       -1.84730
C         -1.46680        9.83510       -2.48490
C         -0.28940        9.15730       -2.67980
C         -0.15920        8.06300       -3.55890
N          0.00080        7.20290       -4.30300
C          0.93810        9.53620       -2.10240
N          1.95800        9.79500       -1.64340
H          2.29810       -8.91990        3.63030
H          5.40080      -10.15070        7.73910
H          6.84860      -10.02610        9.73690
H          7.69060       -8.76930       11.70470
H          5.15310       -5.47910       10.73400
H          3.68220       -5.58480        8.77900
H          0.85360       -7.93420        1.68730
H         -1.11680       -2.71570       -1.78140
H         -3.36330       -0.53470       -0.38010
H         -5.71720       -1.19760       -0.39730
H         -7.84590       -1.24460       -1.64780
H         -7.83950       -1.19500       -3.41870
H         -6.91910       -3.51380       -3.47340
H         -6.92990       -3.56250       -1.71070
H         -8.45360       -3.45890       -2.59930
H         -5.74220       -1.01040       -4.65610
H         -3.38130       -0.37600       -4.64250
H         -1.84550       -2.18450       -4.05100
H         -0.47590       -2.71510       -6.00290
H          1.89480       -0.34160       -7.57970
H          0.94250       -1.81030       -7.84640
H          3.33730       -2.36530       -7.49760
H          3.30700       -1.55680       -5.92640
H          2.35750       -3.02020       -6.18100
H          1.59170        0.98750       -5.56610
H          0.21960        1.53280       -3.63060
H          0.53850        0.75820        1.43440
H         -1.39030       -1.27380        2.73850
H         -2.43350       -1.27460        4.95600
H         -0.56840       -1.93710        8.11990
H         -1.98150       -1.08890        7.46850
H         -2.92530       -3.27220        6.70280
H         -2.62270       -3.28370        8.44490
H         -1.51390       -4.10710        7.34450
H          1.25690       -2.49190        6.70660
H          2.31370       -2.47210        4.49140
H          2.13190        0.22360        3.34190
H          4.39110        1.17260        3.26270
H          6.55030        1.27390        2.10060
H          7.07730       -0.05840        1.06230
H          7.44870       -1.48040        3.07830
H          6.91730       -0.15600        4.11430
H          8.40020        0.00590        3.16740
H          5.65520       -2.03930        0.75890
H          3.39520       -2.97950        0.81670
H         -4.62290        3.57200       -5.77490
H         -7.01030        3.02900       -5.83150
H         -8.85190        1.68770       -4.84110
H         -8.78250        1.21420       -3.13610
H         -9.05390        3.60480       -2.46910
H         -9.14020        4.06990       -4.16740
H        -10.40780        3.05920       -3.46510
H         -6.79910        1.67540       -1.79430
H         -4.41630        2.19530       -1.73800
H         -3.35250        1.40510       -5.66300
H         -2.00970        0.90580       -7.64490
H          1.28220        2.37230       -8.34210
H          0.10920        1.13400       -8.82140
H         -0.15570        4.12880       -9.37910
H          0.31270        2.90340      -10.56280
H         -1.31270        2.89180       -9.87010
H          0.68380        4.04500       -6.60480
H         -0.63200        4.52770       -4.61570
H         -3.86100        5.98870       -4.89340
H         -4.14780        8.51270       -4.22810
H         -4.06440       13.46240       -2.21820
H          0.17720       11.40070       -0.60950
