
  xtb     02012221313D
 energy: -297.189801554441 gnorm: 0.000497792651 xtb: 6.4.1 (unknown)
181199  0     0  0            999 V2000
    2.2330   -7.9559    4.1265 C   0  0  0  0  0  0  0  0  0  0  0  0
    2.6489   -7.9460    5.4248 C   0  0  0  0  0  0  0  0  0  0  0  0
    3.4692   -9.0766    5.9355 C   0  0  0  0  0  0  0  0  0  0  0  0
    3.6266  -10.1551    5.4092 O   0  0  0  0  0  0  0  0  0  0  0  0
    4.0917   -8.5713    7.1754 C   0  0  0  0  0  0  0  0  0  0  0  0
    5.0301   -9.1633    7.9700 C   0  0  0  0  0  0  0  0  0  0  0  0
    5.5139   -8.4676    9.1010 C   0  0  0  0  0  0  0  0  0  0  0  0
    6.4812   -9.0347    9.9556 C   0  0  0  0  0  0  0  0  0  0  0  0
    6.9508   -8.3497   11.0416 C   0  0  0  0  0  0  0  0  0  0  0  0
    6.4549   -7.0644   11.2982 C   0  0  0  0  0  0  0  0  0  0  0  0
    6.9306   -6.4040   12.3701 F   0  0  0  0  0  0  0  0  0  0  0  0
    5.5156   -6.4687   10.5035 C   0  0  0  0  0  0  0  0  0  0  0  0
    5.0184   -7.1611    9.3824 C   0  0  0  0  0  0  0  0  0  0  0  0
    4.0369   -6.5769    8.5479 C   0  0  0  0  0  0  0  0  0  0  0  0
    3.5753   -7.2755    7.4663 C   0  0  0  0  0  0  0  0  0  0  0  0
    2.5544   -6.9539    6.4723 C   0  0  0  0  0  0  0  0  0  0  0  0
    1.5286   -6.0641    6.6626 C   0  0  0  0  0  0  0  0  0  0  0  0
    1.4487   -5.1854    7.7596 C   0  0  0  0  0  0  0  0  0  0  0  0
    1.3405   -4.4314    8.6192 N   0  0  0  0  0  0  0  0  0  0  0  0
    0.3835   -6.0029    5.8415 C   0  0  0  0  0  0  0  0  0  0  0  0
   -0.5969   -5.9666    5.2451 N   0  0  0  0  0  0  0  0  0  0  0  0
    1.8272   -6.8793    3.3110 C   0  0  0  0  0  0  0  0  0  0  0  0
    1.1627   -6.9910    2.0994 C   0  0  0  0  0  0  0  0  0  0  0  0
    0.8978   -5.7522    1.5315 C   0  0  0  0  0  0  0  0  0  0  0  0
    0.0451   -5.2310    0.1056 S   0  0  0  0  0  0  0  0  0  0  0  0
    0.3395   -3.5849    0.5514 C   0  0  0  0  0  0  0  0  0  0  0  0
   -0.0501   -2.3076    0.0438 C   0  0  0  0  0  0  0  0  0  0  0  0
   -0.7655   -1.9582   -1.0987 C   0  0  0  0  0  0  0  0  0  0  0  0
   -1.0045   -0.6206   -1.3047 C   0  0  0  0  0  0  0  0  0  0  0  0
   -1.7466    0.0336   -2.4641 C   0  0  0  0  0  0  0  0  0  0  0  0
   -3.1968   -0.4140   -2.5138 C   0  0  0  0  0  0  0  0  0  0  0  0
   -3.8784   -0.6447   -1.3241 C   0  0  0  0  0  0  0  0  0  0  0  0
   -5.2088   -1.0170   -1.3339 C   0  0  0  0  0  0  0  0  0  0  0  0
   -5.9022   -1.1569   -2.5289 C   0  0  0  0  0  0  0  0  0  0  0  0
   -7.3343   -1.6060   -2.5425 C   0  0  0  0  0  0  0  0  0  0  0  0
   -7.4161   -3.1333   -2.5839 C   0  0  0  0  0  0  0  0  0  0  0  0
   -5.2221   -0.9153   -3.7136 C   0  0  0  0  0  0  0  0  0  0  0  0
   -3.8898   -0.5475   -3.7077 C   0  0  0  0  0  0  0  0  0  0  0  0
   -0.9399   -0.2696   -3.7139 C   0  0  0  0  0  0  0  0  0  0  0  0
   -1.1017   -1.4759   -4.3851 C   0  0  0  0  0  0  0  0  0  0  0  0
   -0.3250   -1.7771   -5.4873 C   0  0  0  0  0  0  0  0  0  0  0  0
    0.6486   -0.8960   -5.9392 C   0  0  0  0  0  0  0  0  0  0  0  0
    1.5215   -1.2518   -7.1076 C   0  0  0  0  0  0  0  0  0  0  0  0
    2.7074   -2.1037   -6.6506 C   0  0  0  0  0  0  0  0  0  0  0  0
    0.8305    0.2915   -5.2459 C   0  0  0  0  0  0  0  0  0  0  0  0
    0.0499    0.6011   -4.1482 C   0  0  0  0  0  0  0  0  0  0  0  0
   -1.6829    1.4907   -2.0651 C   0  0  0  0  0  0  0  0  0  0  0  0
   -0.9762    1.6175   -0.8693 C   0  0  0  0  0  0  0  0  0  0  0  0
   -0.5385    0.3490   -0.3875 C   0  0  0  0  0  0  0  0  0  0  0  0
    0.1881    0.0019    0.7494 C   0  0  0  0  0  0  0  0  0  0  0  0
    0.4239   -1.3359    0.9589 C   0  0  0  0  0  0  0  0  0  0  0  0
    1.1904   -1.9876    2.0968 C   0  0  0  0  0  0  0  0  0  0  0  0
    0.5357   -1.8680    3.4624 C   0  0  0  0  0  0  0  0  0  0  0  0
   -0.8028   -1.5354    3.6070 C   0  0  0  0  0  0  0  0  0  0  0  0
   -1.3906   -1.5405    4.8587 C   0  0  0  0  0  0  0  0  0  0  0  0
   -0.6652   -1.8893    5.9905 C   0  0  0  0  0  0  0  0  0  0  0  0
   -1.3267   -1.9535    7.3358 C   0  0  0  0  0  0  0  0  0  0  0  0
   -2.1518   -3.2349    7.4661 C   0  0  0  0  0  0  0  0  0  0  0  0
    0.6746   -2.2206    5.8383 C   0  0  0  0  0  0  0  0  0  0  0  0
    1.2688   -2.2129    4.5913 C   0  0  0  0  0  0  0  0  0  0  0  0
    2.6063   -1.4467    2.0890 C   0  0  0  0  0  0  0  0  0  0  0  0
    2.9019   -0.2712    2.7678 C   0  0  0  0  0  0  0  0  0  0  0  0
    4.1771    0.2584    2.7277 C   0  0  0  0  0  0  0  0  0  0  0  0
    5.1872   -0.3659    2.0066 C   0  0  0  0  0  0  0  0  0  0  0  0
    6.5830    0.1870    2.0044 C   0  0  0  0  0  0  0  0  0  0  0  0
    7.3905   -0.3976    3.1651 C   0  0  0  0  0  0  0  0  0  0  0  0
    4.8846   -1.5379    1.3272 C   0  0  0  0  0  0  0  0  0  0  0  0
    3.6090   -2.0708    1.3614 C   0  0  0  0  0  0  0  0  0  0  0  0
    1.0760   -3.4380    1.7160 C   0  0  0  0  0  0  0  0  0  0  0  0
    1.3917   -4.6674    2.2817 C   0  0  0  0  0  0  0  0  0  0  0  0
    2.2032   -5.2021    3.6978 S   0  0  0  0  0  0  0  0  0  0  0  0
   -0.8280    3.2366   -0.2960 S   0  0  0  0  0  0  0  0  0  0  0  0
   -1.7258    3.7609   -1.6734 C   0  0  0  0  0  0  0  0  0  0  0  0
   -2.1597    4.9934   -2.1930 C   0  0  0  0  0  0  0  0  0  0  0  0
   -2.8421    4.7689   -3.3949 C   0  0  0  0  0  0  0  0  0  0  0  0
   -2.8767    3.2896   -3.7203 C   0  0  0  0  0  0  0  0  0  0  0  0
   -2.1238    2.7238   -2.5325 C   0  0  0  0  0  0  0  0  0  0  0  0
   -4.3378    2.8871   -3.7652 C   0  0  0  0  0  0  0  0  0  0  0  0
   -5.0938    3.1402   -4.9038 C   0  0  0  0  0  0  0  0  0  0  0  0
   -6.4411    2.8369   -4.9329 C   0  0  0  0  0  0  0  0  0  0  0  0
   -7.0758    2.2949   -3.8225 C   0  0  0  0  0  0  0  0  0  0  0  0
   -8.5502    2.0127   -3.8430 C   0  0  0  0  0  0  0  0  0  0  0  0
   -9.3402    3.2664   -3.4623 C   0  0  0  0  0  0  0  0  0  0  0  0
   -6.3245    2.0791   -2.6766 C   0  0  0  0  0  0  0  0  0  0  0  0
   -4.9739    2.3722   -2.6452 C   0  0  0  0  0  0  0  0  0  0  0  0
   -2.0914    2.9942   -4.9896 C   0  0  0  0  0  0  0  0  0  0  0  0
   -2.4594    1.9771   -5.8572 C   0  0  0  0  0  0  0  0  0  0  0  0
   -1.7053    1.7044   -6.9832 C   0  0  0  0  0  0  0  0  0  0  0  0
   -0.5641    2.4380   -7.2725 C   0  0  0  0  0  0  0  0  0  0  0  0
    0.2230    2.1783   -8.5240 C   0  0  0  0  0  0  0  0  0  0  0  0
   -0.2631    3.0831   -9.6579 C   0  0  0  0  0  0  0  0  0  0  0  0
   -0.1981    3.4553   -6.4009 C   0  0  0  0  0  0  0  0  0  0  0  0
   -0.9446    3.7281   -5.2711 C   0  0  0  0  0  0  0  0  0  0  0  0
   -3.3124    5.9305   -3.9712 C   0  0  0  0  0  0  0  0  0  0  0  0
   -2.9470    7.0693   -3.2547 C   0  0  0  0  0  0  0  0  0  0  0  0
   -2.0655    6.6509   -1.7860 S   0  0  0  0  0  0  0  0  0  0  0  0
   -3.2821    8.3927   -3.5836 C   0  0  0  0  0  0  0  0  0  0  0  0
   -2.7297    9.5580   -3.1260 C   0  0  0  0  0  0  0  0  0  0  0  0
   -3.5117   10.8147   -3.1685 C   0  0  0  0  0  0  0  0  0  0  0  0
   -4.5460   11.0162   -3.7630 O   0  0  0  0  0  0  0  0  0  0  0  0
   -2.7810   11.7493   -2.2777 C   0  0  0  0  0  0  0  0  0  0  0  0
   -3.1478   13.0147   -1.8686 C   0  0  0  0  0  0  0  0  0  0  0  0
   -2.3070   13.6950   -0.9950 C   0  0  0  0  0  0  0  0  0  0  0  0
   -2.7101   15.2736   -0.4421 Cl  0  0  0  0  0  0  0  0  0  0  0  0
   -1.1269   13.0864   -0.5630 C   0  0  0  0  0  0  0  0  0  0  0  0
   -0.3303   13.7436    0.2892 F   0  0  0  0  0  0  0  0  0  0  0  0
   -0.7446   11.8201   -0.9792 C   0  0  0  0  0  0  0  0  0  0  0  0
   -1.5858   11.1452   -1.8473 C   0  0  0  0  0  0  0  0  0  0  0  0
   -1.4668    9.8351   -2.4849 C   0  0  0  0  0  0  0  0  0  0  0  0
   -0.2894    9.1573   -2.6798 C   0  0  0  0  0  0  0  0  0  0  0  0
   -0.1592    8.0630   -3.5589 C   0  0  0  0  0  0  0  0  0  0  0  0
    0.0008    7.2029   -4.3030 N   0  0  0  0  0  0  0  0  0  0  0  0
    0.9381    9.5362   -2.1024 C   0  0  0  0  0  0  0  0  0  0  0  0
    1.9580    9.7950   -1.6434 N   0  0  0  0  0  0  0  0  0  0  0  0
    2.2981   -8.9199    3.6303 H   0  0  0  0  0  0  0  0  0  0  0  0
    5.4008  -10.1507    7.7391 H   0  0  0  0  0  0  0  0  0  0  0  0
    6.8486  -10.0261    9.7369 H   0  0  0  0  0  0  0  0  0  0  0  0
    7.6906   -8.7693   11.7047 H   0  0  0  0  0  0  0  0  0  0  0  0
    5.1531   -5.4791   10.7340 H   0  0  0  0  0  0  0  0  0  0  0  0
    3.6822   -5.5848    8.7790 H   0  0  0  0  0  0  0  0  0  0  0  0
    0.8536   -7.9342    1.6873 H   0  0  0  0  0  0  0  0  0  0  0  0
   -1.1168   -2.7157   -1.7814 H   0  0  0  0  0  0  0  0  0  0  0  0
   -3.3633   -0.5347   -0.3801 H   0  0  0  0  0  0  0  0  0  0  0  0
   -5.7172   -1.1976   -0.3973 H   0  0  0  0  0  0  0  0  0  0  0  0
   -7.8459   -1.2446   -1.6478 H   0  0  0  0  0  0  0  0  0  0  0  0
   -7.8395   -1.1950   -3.4187 H   0  0  0  0  0  0  0  0  0  0  0  0
   -6.9191   -3.5138   -3.4734 H   0  0  0  0  0  0  0  0  0  0  0  0
   -6.9299   -3.5625   -1.7107 H   0  0  0  0  0  0  0  0  0  0  0  0
   -8.4536   -3.4589   -2.5993 H   0  0  0  0  0  0  0  0  0  0  0  0
   -5.7422   -1.0104   -4.6561 H   0  0  0  0  0  0  0  0  0  0  0  0
   -3.3813   -0.3760   -4.6425 H   0  0  0  0  0  0  0  0  0  0  0  0
   -1.8455   -2.1845   -4.0510 H   0  0  0  0  0  0  0  0  0  0  0  0
   -0.4759   -2.7151   -6.0029 H   0  0  0  0  0  0  0  0  0  0  0  0
    1.8948   -0.3416   -7.5797 H   0  0  0  0  0  0  0  0  0  0  0  0
    0.9425   -1.8103   -7.8464 H   0  0  0  0  0  0  0  0  0  0  0  0
    3.3373   -2.3653   -7.4976 H   0  0  0  0  0  0  0  0  0  0  0  0
    3.3070   -1.5568   -5.9264 H   0  0  0  0  0  0  0  0  0  0  0  0
    2.3575   -3.0202   -6.1810 H   0  0  0  0  0  0  0  0  0  0  0  0
    1.5917    0.9875   -5.5661 H   0  0  0  0  0  0  0  0  0  0  0  0
    0.2196    1.5328   -3.6306 H   0  0  0  0  0  0  0  0  0  0  0  0
    0.5385    0.7582    1.4344 H   0  0  0  0  0  0  0  0  0  0  0  0
   -1.3903   -1.2738    2.7385 H   0  0  0  0  0  0  0  0  0  0  0  0
   -2.4335   -1.2746    4.9560 H   0  0  0  0  0  0  0  0  0  0  0  0
   -0.5684   -1.9371    8.1199 H   0  0  0  0  0  0  0  0  0  0  0  0
   -1.9815   -1.0889    7.4685 H   0  0  0  0  0  0  0  0  0  0  0  0
   -2.9253   -3.2722    6.7028 H   0  0  0  0  0  0  0  0  0  0  0  0
   -2.6227   -3.2837    8.4449 H   0  0  0  0  0  0  0  0  0  0  0  0
   -1.5139   -4.1071    7.3445 H   0  0  0  0  0  0  0  0  0  0  0  0
    1.2569   -2.4919    6.7066 H   0  0  0  0  0  0  0  0  0  0  0  0
    2.3137   -2.4721    4.4914 H   0  0  0  0  0  0  0  0  0  0  0  0
    2.1319    0.2236    3.3419 H   0  0  0  0  0  0  0  0  0  0  0  0
    4.3911    1.1726    3.2627 H   0  0  0  0  0  0  0  0  0  0  0  0
    6.5503    1.2739    2.1006 H   0  0  0  0  0  0  0  0  0  0  0  0
    7.0773   -0.0584    1.0623 H   0  0  0  0  0  0  0  0  0  0  0  0
    7.4487   -1.4804    3.0783 H   0  0  0  0  0  0  0  0  0  0  0  0
    6.9173   -0.1560    4.1143 H   0  0  0  0  0  0  0  0  0  0  0  0
    8.4002    0.0059    3.1674 H   0  0  0  0  0  0  0  0  0  0  0  0
    5.6552   -2.0393    0.7589 H   0  0  0  0  0  0  0  0  0  0  0  0
    3.3952   -2.9795    0.8167 H   0  0  0  0  0  0  0  0  0  0  0  0
   -4.6229    3.5720   -5.7749 H   0  0  0  0  0  0  0  0  0  0  0  0
   -7.0103    3.0290   -5.8315 H   0  0  0  0  0  0  0  0  0  0  0  0
   -8.8519    1.6877   -4.8411 H   0  0  0  0  0  0  0  0  0  0  0  0
   -8.7825    1.2142   -3.1361 H   0  0  0  0  0  0  0  0  0  0  0  0
   -9.0539    3.6048   -2.4691 H   0  0  0  0  0  0  0  0  0  0  0  0
   -9.1402    4.0699   -4.1674 H   0  0  0  0  0  0  0  0  0  0  0  0
  -10.4078    3.0592   -3.4651 H   0  0  0  0  0  0  0  0  0  0  0  0
   -6.7991    1.6754   -1.7943 H   0  0  0  0  0  0  0  0  0  0  0  0
   -4.4163    2.1953   -1.7380 H   0  0  0  0  0  0  0  0  0  0  0  0
   -3.3525    1.4051   -5.6630 H   0  0  0  0  0  0  0  0  0  0  0  0
   -2.0097    0.9058   -7.6449 H   0  0  0  0  0  0  0  0  0  0  0  0
    1.2822    2.3723   -8.3421 H   0  0  0  0  0  0  0  0  0  0  0  0
    0.1092    1.1340   -8.8214 H   0  0  0  0  0  0  0  0  0  0  0  0
   -0.1557    4.1288   -9.3791 H   0  0  0  0  0  0  0  0  0  0  0  0
    0.3127    2.9034  -10.5628 H   0  0  0  0  0  0  0  0  0  0  0  0
   -1.3127    2.8918   -9.8701 H   0  0  0  0  0  0  0  0  0  0  0  0
    0.6838    4.0450   -6.6048 H   0  0  0  0  0  0  0  0  0  0  0  0
   -0.6320    4.5277   -4.6157 H   0  0  0  0  0  0  0  0  0  0  0  0
   -3.8610    5.9887   -4.8934 H   0  0  0  0  0  0  0  0  0  0  0  0
   -4.1478    8.5127   -4.2281 H   0  0  0  0  0  0  0  0  0  0  0  0
   -4.0644   13.4624   -2.2182 H   0  0  0  0  0  0  0  0  0  0  0  0
    0.1772   11.4007   -0.6095 H   0  0  0  0  0  0  0  0  0  0  0  0
  1  2  2  0  0  0  0
  2  3  1  0  0  0  0
  3  4  2  0  0  0  0
  3  5  1  0  0  0  0
  5  6  2  0  0  0  0
  6  7  1  0  0  0  0
  7  8  2  0  0  0  0
  8  9  1  0  0  0  0
  9 10  2  0  0  0  0
 10 11  1  0  0  0  0
 10 12  1  0  0  0  0
 12 13  2  0  0  0  0
 13 14  1  0  0  0  0
 14 15  2  0  0  0  0
 15 16  1  0  0  0  0
 16 17  2  0  0  0  0
 17 18  1  0  0  0  0
 18 19  3  0  0  0  0
 17 20  1  0  0  0  0
 20 21  3  0  0  0  0
  1 22  1  0  0  0  0
 22 23  2  0  0  0  0
 23 24  1  0  0  0  0
 24 25  1  0  0  0  0
 25 26  1  0  0  0  0
 26 27  1  0  0  0  0
 27 28  2  0  0  0  0
 28 29  1  0  0  0  0
 29 30  1  0  0  0  0
 30 31  1  0  0  0  0
 31 32  2  0  0  0  0
 32 33  1  0  0  0  0
 33 34  2  0  0  0  0
 34 35  1  0  0  0  0
 35 36  1  0  0  0  0
 34 37  1  0  0  0  0
 37 38  2  0  0  0  0
 30 39  1  0  0  0  0
 39 40  2  0  0  0  0
 40 41  1  0  0  0  0
 41 42  2  0  0  0  0
 42 43  1  0  0  0  0
 43 44  1  0  0  0  0
 42 45  1  0  0  0  0
 45 46  2  0  0  0  0
 30 47  1  0  0  0  0
 47 48  2  0  0  0  0
 48 49  1  0  0  0  0
 49 50  1  0  0  0  0
 50 51  2  0  0  0  0
 51 52  1  0  0  0  0
 52 53  1  0  0  0  0
 53 54  2  0  0  0  0
 54 55  1  0  0  0  0
 55 56  2  0  0  0  0
 56 57  1  0  0  0  0
 57 58  1  0  0  0  0
 56 59  1  0  0  0  0
 59 60  2  0  0  0  0
 52 61  1  0  0  0  0
 61 62  2  0  0  0  0
 62 63  1  0  0  0  0
 63 64  2  0  0  0  0
 64 65  1  0  0  0  0
 65 66  1  0  0  0  0
 64 67  1  0  0  0  0
 67 68  2  0  0  0  0
 52 69  1  0  0  0  0
 69 70  1  0  0  0  0
 70 71  1  0  0  0  0
 48 72  1  0  0  0  0
 72 73  1  0  0  0  0
 73 74  1  0  0  0  0
 74 75  2  0  0  0  0
 75 76  1  0  0  0  0
 76 77  1  0  0  0  0
 76 78  1  0  0  0  0
 78 79  2  0  0  0  0
 79 80  1  0  0  0  0
 80 81  2  0  0  0  0
 81 82  1  0  0  0  0
 82 83  1  0  0  0  0
 81 84  1  0  0  0  0
 84 85  2  0  0  0  0
 76 86  1  0  0  0  0
 86 87  2  0  0  0  0
 87 88  1  0  0  0  0
 88 89  2  0  0  0  0
 89 90  1  0  0  0  0
 90 91  1  0  0  0  0
 89 92  1  0  0  0  0
 92 93  2  0  0  0  0
 75 94  1  0  0  0  0
 94 95  2  0  0  0  0
 95 96  1  0  0  0  0
 95 97  1  0  0  0  0
 97 98  2  0  0  0  0
 98 99  1  0  0  0  0
 99100  2  0  0  0  0
 99101  1  0  0  0  0
101102  2  0  0  0  0
102103  1  0  0  0  0
103104  1  0  0  0  0
103105  2  0  0  0  0
105106  1  0  0  0  0
105107  1  0  0  0  0
107108  2  0  0  0  0
108109  1  0  0  0  0
109110  2  0  0  0  0
110111  1  0  0  0  0
111112  3  0  0  0  0
110113  1  0  0  0  0
113114  3  0  0  0  0
 16  2  1  0  0  0  0
 71 22  1  0  0  0  0
 77 73  2  0  0  0  0
 85 78  1  0  0  0  0
 93 86  1  0  0  0  0
109 98  1  0  0  0  0
 15  5  1  0  0  0  0
 70 24  2  0  0  0  0
 96 74  1  0  0  0  0
108101  1  0  0  0  0
 13  7  1  0  0  0  0
 69 26  2  0  0  0  0
 51 27  1  0  0  0  0
 60 53  1  0  0  0  0
 68 61  1  0  0  0  0
 49 29  2  0  0  0  0
 38 31  1  0  0  0  0
 46 39  1  0  0  0  0
 77 47  1  0  0  0  0
  1115  1  0  0  0  0
  6116  1  0  0  0  0
  8117  1  0  0  0  0
  9118  1  0  0  0  0
 12119  1  0  0  0  0
 14120  1  0  0  0  0
 23121  1  0  0  0  0
 28122  1  0  0  0  0
 32123  1  0  0  0  0
 33124  1  0  0  0  0
 35125  1  0  0  0  0
 35126  1  0  0  0  0
 36127  1  0  0  0  0
 36128  1  0  0  0  0
 36129  1  0  0  0  0
 37130  1  0  0  0  0
 38131  1  0  0  0  0
 40132  1  0  0  0  0
 41133  1  0  0  0  0
 43134  1  0  0  0  0
 43135  1  0  0  0  0
 44136  1  0  0  0  0
 44137  1  0  0  0  0
 44138  1  0  0  0  0
 45139  1  0  0  0  0
 46140  1  0  0  0  0
 50141  1  0  0  0  0
 54142  1  0  0  0  0
 55143  1  0  0  0  0
 57144  1  0  0  0  0
 57145  1  0  0  0  0
 58146  1  0  0  0  0
 58147  1  0  0  0  0
 58148  1  0  0  0  0
 59149  1  0  0  0  0
 60150  1  0  0  0  0
 62151  1  0  0  0  0
 63152  1  0  0  0  0
 65153  1  0  0  0  0
 65154  1  0  0  0  0
 66155  1  0  0  0  0
 66156  1  0  0  0  0
 66157  1  0  0  0  0
 67158  1  0  0  0  0
 68159  1  0  0  0  0
 79160  1  0  0  0  0
 80161  1  0  0  0  0
 82162  1  0  0  0  0
 82163  1  0  0  0  0
 83164  1  0  0  0  0
 83165  1  0  0  0  0
 83166  1  0  0  0  0
 84167  1  0  0  0  0
 85168  1  0  0  0  0
 87169  1  0  0  0  0
 88170  1  0  0  0  0
 90171  1  0  0  0  0
 90172  1  0  0  0  0
 91173  1  0  0  0  0
 91174  1  0  0  0  0
 91175  1  0  0  0  0
 92176  1  0  0  0  0
 93177  1  0  0  0  0
 94178  1  0  0  0  0
 97179  1  0  0  0  0
102180  1  0  0  0  0
107181  1  0  0  0  0
M  END
