105

C          2.14370       -6.05370        2.87530
C          2.44840       -6.63790        1.66140
C          2.15810       -6.08670        0.33780
O          1.66030       -5.00510        0.06870
C          2.56990       -7.10940       -0.63740
C          2.48860       -7.07410       -1.99870
C          2.94910       -8.18320       -2.74310
C          2.89010       -8.20360       -4.15110
C          3.33940       -9.28360       -4.85920
C          3.86430      -10.37990       -4.16220
F          4.30200      -11.43350       -4.87600
C          3.94410      -10.41150       -2.79760
C          3.48590       -9.30780       -2.05260
C          3.55640       -9.31280       -0.63900
C          3.10360       -8.22750        0.06130
C          3.04840       -7.94360        1.49510
C          3.51080       -8.79180        2.47330
C          4.06110      -10.06550        2.22270
N          4.51340      -11.11330        2.09410
C          3.52020       -8.52780        3.85430
N          3.56630       -8.37770        4.99440
C          1.60150       -4.80580        3.18020
C          1.33430       -4.32750        4.49060
O          1.42800       -4.91400        5.68970
C          1.21700       -6.29820        5.94940
C         -0.04710       -6.85120        5.30690
C          0.95610       -2.97990        4.47390
S          0.52320       -1.87580        5.76410
C          0.24450       -0.65610        4.57030
C         -0.13090        0.69310        4.49440
C         -0.35840        1.64930        5.50940
C         -0.61030        3.01040        5.13590
N         -0.74680        3.80700        6.18410
S         -0.57770        2.91810        7.52750
N         -0.32330        1.48450        6.82210
C         -0.74760        3.32550        3.76580
C         -1.14390        4.50830        3.12950
S         -1.57510        6.12920        3.53560
C         -1.95980        6.43050        1.84050
C         -2.44140        7.52800        1.12470
O         -2.79290        8.74570        1.54300
C         -2.48510        9.16560        2.86410
C         -1.01730        9.54270        3.01360
C         -2.59770        7.23310       -0.25530
S         -2.14760        5.57810       -0.63080
C         -1.75070        5.30450        1.02530
C         -1.27870        4.21770        1.76750
N         -0.95870        2.90690        1.53970
C         -0.60470        2.33800        2.74570
C         -0.16750        1.03680        3.11080
N          0.21590       -0.07040        2.37210
C          0.46800       -1.08700        3.25690
C          0.88990       -2.41790        3.19550
S          1.28080       -3.55740        1.96260
C          0.84360       -0.14190        1.06850
C          2.24370        0.46660        1.10800
C         -1.30560        2.29640        0.27590
C         -0.27430        2.59290       -0.81140
C         -3.05420        8.20180       -1.14530
C         -3.28510        8.12600       -2.50070
C         -3.10800        6.92930       -3.32020
O         -2.70020        5.83750       -2.95840
C         -3.52490        7.30310       -4.68480
C         -3.56610        6.54360       -5.84150
Cl        -3.07860        4.89750       -5.83690
C         -4.01240        7.13770       -7.02000
C         -4.40470        8.46390       -7.02160
C         -4.36600        9.23850       -5.86710
C         -3.92290        8.65390       -4.69390
C         -3.76530        9.19680       -3.34130
C         -4.01930       10.49580       -2.97940
C         -4.49590       11.48750       -3.86170
N         -4.88590       12.34300       -4.52080
C         -3.83520       11.04730       -1.69400
N         -3.70760       11.58960       -0.68900
H          2.38320       -6.65320        3.73990
H          2.07890       -6.21090       -2.50160
H          2.48120       -7.34690       -4.66560
H          3.30140       -9.31540       -5.93650
H          4.35450      -11.27290       -2.29410
H          3.96760      -10.18120       -0.15080
H          1.11910       -6.32280        7.03850
H          2.09770       -6.89570        5.68650
H         -0.19310       -7.87420        5.64050
H         -0.90780       -6.25620        5.60420
H          0.01790       -6.84820        4.22090
H         -3.11810       10.04340        3.01360
H         -2.76570        8.39340        3.58810
H         -0.75950       10.31540        2.29370
H         -0.37710        8.67950        2.84840
H         -0.84170        9.91880        4.01670
H          0.24260        0.34970        0.31140
H          0.91010       -1.20170        0.81100
H          2.86320       -0.05940        1.83050
H          2.70920        0.38540        0.12970
H          2.19880        1.51610        1.39330
H         -2.26590        2.71890       -0.03840
H         -1.45360        1.22700        0.43220
H          0.73180        2.33650       -0.49110
H         -0.29580        3.65000       -1.06040
H         -0.51590        2.03050       -1.70870
H         -3.25350        9.14920       -0.65960
H         -4.04870        6.55380       -7.92590
H         -4.74970        8.91000       -7.94180
H         -4.67890       10.26840       -5.90270
