
  xtb     02012220373D
 energy: -169.110571224547 gnorm: 0.000575878991 xtb: 6.4.1 (unknown)
 90 99  0     0  0            999 V2000
   -5.4897   -0.8241    0.0766 C   0  0  0  0  0  0  0  0  0  0  0  0
   -6.3769   -1.7772    0.4817 C   0  0  0  0  0  0  0  0  0  0  0  0
   -6.0856   -2.9484    1.3485 C   0  0  0  0  0  0  0  0  0  0  0  0
   -5.0926   -3.1785    2.0047 O   0  0  0  0  0  0  0  0  0  0  0  0
   -7.2404   -3.8543    1.1862 C   0  0  0  0  0  0  0  0  0  0  0  0
   -7.4261   -5.0922    1.7302 C   0  0  0  0  0  0  0  0  0  0  0  0
   -8.6083   -5.8052    1.4318 C   0  0  0  0  0  0  0  0  0  0  0  0
   -8.8522   -7.0868    1.9663 C   0  0  0  0  0  0  0  0  0  0  0  0
   -9.9964   -7.7706    1.6626 C   0  0  0  0  0  0  0  0  0  0  0  0
  -10.9339   -7.1769    0.8065 C   0  0  0  0  0  0  0  0  0  0  0  0
  -12.0534   -7.8659    0.5181 F   0  0  0  0  0  0  0  0  0  0  0  0
  -10.7480   -5.9367    0.2624 C   0  0  0  0  0  0  0  0  0  0  0  0
   -9.5750   -5.2176    0.5648 C   0  0  0  0  0  0  0  0  0  0  0  0
   -9.3548   -3.9325    0.0173 C   0  0  0  0  0  0  0  0  0  0  0  0
   -8.2036   -3.2576    0.3270 C   0  0  0  0  0  0  0  0  0  0  0  0
   -7.7068   -1.9484   -0.0794 C   0  0  0  0  0  0  0  0  0  0  0  0
   -8.4132   -1.0178   -0.7961 C   0  0  0  0  0  0  0  0  0  0  0  0
   -9.7162   -1.2286   -1.2931 C   0  0  0  0  0  0  0  0  0  0  0  0
  -10.7734   -1.3406   -1.7266 N   0  0  0  0  0  0  0  0  0  0  0  0
   -7.9629    0.2811   -1.1131 C   0  0  0  0  0  0  0  0  0  0  0  0
   -7.6808    1.3575   -1.3984 N   0  0  0  0  0  0  0  0  0  0  0  0
   -4.1940   -0.5082    0.5968 C   0  0  0  0  0  0  0  0  0  0  0  0
   -3.8459   -0.6846    1.9526 C   0  0  0  0  0  0  0  0  0  0  0  0
   -2.5939   -0.3764    2.4269 C   0  0  0  0  0  0  0  0  0  0  0  0
   -1.6440    0.1087    1.5307 C   0  0  0  0  0  0  0  0  0  0  0  0
   -0.3403    0.4484    1.7325 N   0  0  0  0  0  0  0  0  0  0  0  0
    0.3625    0.4026    2.9885 C   0  0  0  0  0  0  0  0  0  0  0  0
    0.2749    1.7354    3.7296 C   0  0  0  0  0  0  0  0  0  0  0  0
    0.1889    0.9188    0.5486 C   0  0  0  0  0  0  0  0  0  0  0  0
   -0.8091    0.8619   -0.4630 C   0  0  0  0  0  0  0  0  0  0  0  0
   -1.9872    0.3355    0.1694 C   0  0  0  0  0  0  0  0  0  0  0  0
   -3.2568    0.0502   -0.2841 C   0  0  0  0  0  0  0  0  0  0  0  0
   -0.5502    1.2676   -1.7643 C   0  0  0  0  0  0  0  0  0  0  0  0
    0.7292    1.7256   -2.0221 C   0  0  0  0  0  0  0  0  0  0  0  0
    1.7269    1.7731   -1.0124 C   0  0  0  0  0  0  0  0  0  0  0  0
    1.4695    1.3764    0.2897 C   0  0  0  0  0  0  0  0  0  0  0  0
    2.9150    2.2761   -1.6467 C   0  0  0  0  0  0  0  0  0  0  0  0
    4.1855    2.5155   -1.1782 C   0  0  0  0  0  0  0  0  0  0  0  0
    5.1621    3.0018   -2.0627 C   0  0  0  0  0  0  0  0  0  0  0  0
    4.7997    3.2216   -3.4199 C   0  0  0  0  0  0  0  0  0  0  0  0
    3.5368    2.9882   -3.8981 C   0  0  0  0  0  0  0  0  0  0  0  0
    2.5731    2.5097   -3.0077 C   0  0  0  0  0  0  0  0  0  0  0  0
    1.2680    2.1954   -3.2088 N   0  0  0  0  0  0  0  0  0  0  0  0
    0.5721    2.2462   -4.4679 C   0  0  0  0  0  0  0  0  0  0  0  0
    0.6908    0.9252   -5.2263 C   0  0  0  0  0  0  0  0  0  0  0  0
    6.5163    3.2687   -1.7222 C   0  0  0  0  0  0  0  0  0  0  0  0
    7.2395    3.2593   -0.5546 C   0  0  0  0  0  0  0  0  0  0  0  0
    6.7917    3.0797    0.8422 C   0  0  0  0  0  0  0  0  0  0  0  0
    5.7077    2.7556    1.2746 O   0  0  0  0  0  0  0  0  0  0  0  0
    7.9775    3.3915    1.6805 C   0  0  0  0  0  0  0  0  0  0  0  0
    9.0819    3.6784    0.8636 C   0  0  0  0  0  0  0  0  0  0  0  0
   10.3024    4.0152    1.4255 C   0  0  0  0  0  0  0  0  0  0  0  0
   10.3956    4.0545    2.8090 C   0  0  0  0  0  0  0  0  0  0  0  0
   11.5616    4.3814    3.3717 F   0  0  0  0  0  0  0  0  0  0  0  0
    9.3104    3.7650    3.6331 C   0  0  0  0  0  0  0  0  0  0  0  0
    9.4423    3.8109    4.9618 F   0  0  0  0  0  0  0  0  0  0  0  0
    8.0830    3.4288    3.0595 C   0  0  0  0  0  0  0  0  0  0  0  0
    7.0468    3.1558    3.8481 F   0  0  0  0  0  0  0  0  0  0  0  0
    8.6655    3.5474   -0.5328 C   0  0  0  0  0  0  0  0  0  0  0  0
    9.5218    3.6222   -1.6009 C   0  0  0  0  0  0  0  0  0  0  0  0
   10.9042    3.8874   -1.4913 C   0  0  0  0  0  0  0  0  0  0  0  0
   12.0323    4.0987   -1.4796 N   0  0  0  0  0  0  0  0  0  0  0  0
    9.1970    3.4178   -2.9602 C   0  0  0  0  0  0  0  0  0  0  0  0
    9.0505    3.2554   -4.0881 N   0  0  0  0  0  0  0  0  0  0  0  0
   -5.7665   -0.2461   -0.7985 H   0  0  0  0  0  0  0  0  0  0  0  0
   -6.6786   -5.5222    2.3801 H   0  0  0  0  0  0  0  0  0  0  0  0
   -8.1147   -7.5234    2.6230 H   0  0  0  0  0  0  0  0  0  0  0  0
  -10.1975   -8.7521    2.0617 H   0  0  0  0  0  0  0  0  0  0  0  0
  -11.4921   -5.5099   -0.3917 H   0  0  0  0  0  0  0  0  0  0  0  0
  -10.1015   -3.5184   -0.6410 H   0  0  0  0  0  0  0  0  0  0  0  0
   -4.5929   -1.0400    2.6409 H   0  0  0  0  0  0  0  0  0  0  0  0
   -2.3634   -0.5077    3.4726 H   0  0  0  0  0  0  0  0  0  0  0  0
   -0.0696   -0.3962    3.5958 H   0  0  0  0  0  0  0  0  0  0  0  0
    1.4080    0.1522    2.7908 H   0  0  0  0  0  0  0  0  0  0  0  0
    0.7115    2.5307    3.1303 H   0  0  0  0  0  0  0  0  0  0  0  0
    0.8133    1.6735    4.6710 H   0  0  0  0  0  0  0  0  0  0  0  0
   -0.7631    1.9869    3.9349 H   0  0  0  0  0  0  0  0  0  0  0  0
   -3.5231    0.2220   -1.3166 H   0  0  0  0  0  0  0  0  0  0  0  0
   -1.3166    1.2189   -2.5212 H   0  0  0  0  0  0  0  0  0  0  0  0
    2.2375    1.4311    1.0438 H   0  0  0  0  0  0  0  0  0  0  0  0
    4.4252    2.3294   -0.1466 H   0  0  0  0  0  0  0  0  0  0  0  0
    5.5565    3.5837   -4.1004 H   0  0  0  0  0  0  0  0  0  0  0  0
    3.3050    3.1641   -4.9373 H   0  0  0  0  0  0  0  0  0  0  0  0
    0.9921    3.0606   -5.0634 H   0  0  0  0  0  0  0  0  0  0  0  0
   -0.4785    2.4753   -4.2723 H   0  0  0  0  0  0  0  0  0  0  0  0
    0.2717    0.1124   -4.6379 H   0  0  0  0  0  0  0  0  0  0  0  0
    0.1550    0.9872   -6.1693 H   0  0  0  0  0  0  0  0  0  0  0  0
    1.7349    0.6997   -5.4310 H   0  0  0  0  0  0  0  0  0  0  0  0
    7.0994    3.5572   -2.5894 H   0  0  0  0  0  0  0  0  0  0  0  0
   11.1763    4.2512    0.8421 H   0  0  0  0  0  0  0  0  0  0  0  0
  1  2  2  0  0  0  0
  2  3  1  0  0  0  0
  3  4  2  0  0  0  0
  3  5  1  0  0  0  0
  5  6  2  0  0  0  0
  6  7  1  0  0  0  0
  7  8  2  0  0  0  0
  8  9  1  0  0  0  0
  9 10  2  0  0  0  0
 10 11  1  0  0  0  0
 10 12  1  0  0  0  0
 12 13  2  0  0  0  0
 13 14  1  0  0  0  0
 14 15  2  0  0  0  0
 15 16  1  0  0  0  0
 16 17  2  0  0  0  0
 17 18  1  0  0  0  0
 18 19  3  0  0  0  0
 17 20  1  0  0  0  0
 20 21  3  0  0  0  0
  1 22  1  0  0  0  0
 22 23  2  0  0  0  0
 23 24  1  0  0  0  0
 24 25  2  0  0  0  0
 25 26  1  0  0  0  0
 26 27  1  0  0  0  0
 27 28  1  0  0  0  0
 26 29  1  0  0  0  0
 29 30  2  0  0  0  0
 30 31  1  0  0  0  0
 31 32  2  0  0  0  0
 30 33  1  0  0  0  0
 33 34  2  0  0  0  0
 34 35  1  0  0  0  0
 35 36  2  0  0  0  0
 35 37  1  0  0  0  0
 37 38  2  0  0  0  0
 38 39  1  0  0  0  0
 39 40  2  0  0  0  0
 40 41  1  0  0  0  0
 41 42  2  0  0  0  0
 42 43  1  0  0  0  0
 43 44  1  0  0  0  0
 44 45  1  0  0  0  0
 39 46  1  0  0  0  0
 46 47  2  0  0  0  0
 47 48  1  0  0  0  0
 48 49  2  0  0  0  0
 48 50  1  0  0  0  0
 50 51  2  0  0  0  0
 51 52  1  0  0  0  0
 52 53  2  0  0  0  0
 53 54  1  0  0  0  0
 53 55  1  0  0  0  0
 55 56  1  0  0  0  0
 55 57  2  0  0  0  0
 57 58  1  0  0  0  0
 51 59  1  0  0  0  0
 59 60  2  0  0  0  0
 60 61  1  0  0  0  0
 61 62  3  0  0  0  0
 60 63  1  0  0  0  0
 63 64  3  0  0  0  0
 16  2  1  0  0  0  0
 32 22  1  0  0  0  0
 43 34  1  0  0  0  0
 59 47  1  0  0  0  0
 15  5  1  0  0  0  0
 31 25  1  0  0  0  0
 42 37  1  0  0  0  0
 57 50  1  0  0  0  0
 13  7  1  0  0  0  0
 36 29  1  0  0  0  0
  1 65  1  0  0  0  0
  6 66  1  0  0  0  0
  8 67  1  0  0  0  0
  9 68  1  0  0  0  0
 12 69  1  0  0  0  0
 14 70  1  0  0  0  0
 23 71  1  0  0  0  0
 24 72  1  0  0  0  0
 27 73  1  0  0  0  0
 27 74  1  0  0  0  0
 28 75  1  0  0  0  0
 28 76  1  0  0  0  0
 28 77  1  0  0  0  0
 32 78  1  0  0  0  0
 33 79  1  0  0  0  0
 36 80  1  0  0  0  0
 38 81  1  0  0  0  0
 40 82  1  0  0  0  0
 41 83  1  0  0  0  0
 44 84  1  0  0  0  0
 44 85  1  0  0  0  0
 45 86  1  0  0  0  0
 45 87  1  0  0  0  0
 45 88  1  0  0  0  0
 46 89  1  0  0  0  0
 52 90  1  0  0  0  0
M  END
