90

C         -5.48970       -0.82410        0.07660
C         -6.37690       -1.77720        0.48170
C         -6.08560       -2.94840        1.34850
O         -5.09260       -3.17850        2.00470
C         -7.24040       -3.85430        1.18620
C         -7.42610       -5.09220        1.73020
C         -8.60830       -5.80520        1.43180
C         -8.85220       -7.08680        1.96630
C         -9.99640       -7.77060        1.66260
C        -10.93390       -7.17690        0.80650
F        -12.05340       -7.86590        0.51810
C        -10.74800       -5.93670        0.26240
C         -9.57500       -5.21760        0.56480
C         -9.35480       -3.93250        0.01730
C         -8.20360       -3.25760        0.32700
C         -7.70680       -1.94840       -0.07940
C         -8.41320       -1.01780       -0.79610
C         -9.71620       -1.22860       -1.29310
N        -10.77340       -1.34060       -1.72660
C         -7.96290        0.28110       -1.11310
N         -7.68080        1.35750       -1.39840
C         -4.19400       -0.50820        0.59680
C         -3.84590       -0.68460        1.95260
C         -2.59390       -0.37640        2.42690
C         -1.64400        0.10870        1.53070
N         -0.34030        0.44840        1.73250
C          0.36250        0.40260        2.98850
C          0.27490        1.73540        3.72960
C          0.18890        0.91880        0.54860
C         -0.80910        0.86190       -0.46300
C         -1.98720        0.33550        0.16940
C         -3.25680        0.05020       -0.28410
C         -0.55020        1.26760       -1.76430
C          0.72920        1.72560       -2.02210
C          1.72690        1.77310       -1.01240
C          1.46950        1.37640        0.28970
C          2.91500        2.27610       -1.64670
C          4.18550        2.51550       -1.17820
C          5.16210        3.00180       -2.06270
C          4.79970        3.22160       -3.41990
C          3.53680        2.98820       -3.89810
C          2.57310        2.50970       -3.00770
N          1.26800        2.19540       -3.20880
C          0.57210        2.24620       -4.46790
C          0.69080        0.92520       -5.22630
C          6.51630        3.26870       -1.72220
C          7.23950        3.25930       -0.55460
C          6.79170        3.07970        0.84220
O          5.70770        2.75560        1.27460
C          7.97750        3.39150        1.68050
C          9.08190        3.67840        0.86360
C         10.30240        4.01520        1.42550
C         10.39560        4.05450        2.80900
F         11.56160        4.38140        3.37170
C          9.31040        3.76500        3.63310
F          9.44230        3.81090        4.96180
C          8.08300        3.42880        3.05950
F          7.04680        3.15580        3.84810
C          8.66550        3.54740       -0.53280
C          9.52180        3.62220       -1.60090
C         10.90420        3.88740       -1.49130
N         12.03230        4.09870       -1.47960
C          9.19700        3.41780       -2.96020
N          9.05050        3.25540       -4.08810
H         -5.76650       -0.24610       -0.79850
H         -6.67860       -5.52220        2.38010
H         -8.11470       -7.52340        2.62300
H        -10.19750       -8.75210        2.06170
H        -11.49210       -5.50990       -0.39170
H        -10.10150       -3.51840       -0.64100
H         -4.59290       -1.04000        2.64090
H         -2.36340       -0.50770        3.47260
H         -0.06960       -0.39620        3.59580
H          1.40800        0.15220        2.79080
H          0.71150        2.53070        3.13030
H          0.81330        1.67350        4.67100
H         -0.76310        1.98690        3.93490
H         -3.52310        0.22200       -1.31660
H         -1.31660        1.21890       -2.52120
H          2.23750        1.43110        1.04380
H          4.42520        2.32940       -0.14660
H          5.55650        3.58370       -4.10040
H          3.30500        3.16410       -4.93730
H          0.99210        3.06060       -5.06340
H         -0.47850        2.47530       -4.27230
H          0.27170        0.11240       -4.63790
H          0.15500        0.98720       -6.16930
H          1.73490        0.69970       -5.43100
H          7.09940        3.55720       -2.58940
H         11.17630        4.25120        0.84210
