
  xtb     02012220483D
 energy: -308.083236622748 gnorm: 0.000178937882 xtb: 6.4.1 (unknown)
184201  0     0  0            999 V2000
    0.3302    0.6980   -9.8954 C   0  0  0  0  0  0  0  0  0  0  0  0
    0.7643    1.7388  -10.6710 C   0  0  0  0  0  0  0  0  0  0  0  0
    0.9714    3.1513  -10.2745 C   0  0  0  0  0  0  0  0  0  0  0  0
    0.5616    3.7367   -9.2939 O   0  0  0  0  0  0  0  0  0  0  0  0
    1.8191    3.7373  -11.3317 C   0  0  0  0  0  0  0  0  0  0  0  0
    2.3738    4.9831  -11.3794 C   0  0  0  0  0  0  0  0  0  0  0  0
    3.1845    5.3337  -12.4819 C   0  0  0  0  0  0  0  0  0  0  0  0
    3.7910    6.6026  -12.5781 C   0  0  0  0  0  0  0  0  0  0  0  0
    4.5817    6.9265  -13.6453 C   0  0  0  0  0  0  0  0  0  0  0  0
    4.7830    5.9739  -14.6532 C   0  0  0  0  0  0  0  0  0  0  0  0
    5.5657    6.3105  -15.6954 F   0  0  0  0  0  0  0  0  0  0  0  0
    4.2176    4.7300  -14.6101 C   0  0  0  0  0  0  0  0  0  0  0  0
    3.4006    4.3790  -13.5178 C   0  0  0  0  0  0  0  0  0  0  0  0
    2.8043    3.0983  -13.4441 C   0  0  0  0  0  0  0  0  0  0  0  0
    2.0224    2.7822  -12.3653 C   0  0  0  0  0  0  0  0  0  0  0  0
    1.3012    1.5647  -12.0100 C   0  0  0  0  0  0  0  0  0  0  0  0
    1.1132    0.4874  -12.8371 C   0  0  0  0  0  0  0  0  0  0  0  0
    0.3263   -0.6458  -12.5414 C   0  0  0  0  0  0  0  0  0  0  0  0
   -0.3113   -1.5895  -12.3916 N   0  0  0  0  0  0  0  0  0  0  0  0
    1.6508    0.3923  -14.1373 C   0  0  0  0  0  0  0  0  0  0  0  0
    2.0638    0.2526  -15.1996 N   0  0  0  0  0  0  0  0  0  0  0  0
   -0.1770    0.6769   -8.5801 C   0  0  0  0  0  0  0  0  0  0  0  0
   -0.6475    1.6577   -7.7409 C   0  0  0  0  0  0  0  0  0  0  0  0
   -1.0255    1.1878   -6.4717 C   0  0  0  0  0  0  0  0  0  0  0  0
   -1.4872    2.0102   -5.4134 C   0  0  0  0  0  0  0  0  0  0  0  0
   -1.6287    3.3097   -5.7480 O   0  0  0  0  0  0  0  0  0  0  0  0
   -2.3612    4.2190   -4.9495 C   0  0  0  0  0  0  0  0  0  0  0  0
   -3.8563    3.9226   -4.9514 C   0  0  0  0  0  0  0  0  0  0  0  0
   -1.6542    1.3896   -4.1856 C   0  0  0  0  0  0  0  0  0  0  0  0
   -2.0114    2.1706   -2.6418 S   0  0  0  0  0  0  0  0  0  0  0  0
   -1.8392    0.6626   -1.8270 C   0  0  0  0  0  0  0  0  0  0  0  0
   -1.6849    0.2883   -0.4541 C   0  0  0  0  0  0  0  0  0  0  0  0
   -1.3057   -1.0725   -0.4509 C   0  0  0  0  0  0  0  0  0  0  0  0
   -1.3910   -1.6547   -1.8574 C   0  0  0  0  0  0  0  0  0  0  0  0
   -1.5870   -0.3938   -2.6664 C   0  0  0  0  0  0  0  0  0  0  0  0
   -1.4637   -0.0159   -4.0246 C   0  0  0  0  0  0  0  0  0  0  0  0
   -1.1153   -0.8492   -5.1123 C   0  0  0  0  0  0  0  0  0  0  0  0
   -0.8590   -0.2156   -6.3173 C   0  0  0  0  0  0  0  0  0  0  0  0
   -0.2478   -0.9057   -7.8030 S   0  0  0  0  0  0  0  0  0  0  0  0
   -1.0529   -2.1729   -4.8392 O   0  0  0  0  0  0  0  0  0  0  0  0
   -1.0094   -3.1142   -5.8955 C   0  0  0  0  0  0  0  0  0  0  0  0
   -1.3208   -4.4825   -5.3114 C   0  0  0  0  0  0  0  0  0  0  0  0
   -2.6151   -2.5564   -1.9620 C   0  0  0  0  0  0  0  0  0  0  0  0
   -2.8864   -3.5045   -0.9813 C   0  0  0  0  0  0  0  0  0  0  0  0
   -3.9753   -4.3492   -1.0896 C   0  0  0  0  0  0  0  0  0  0  0  0
   -4.8370   -4.2711   -2.1748 C   0  0  0  0  0  0  0  0  0  0  0  0
   -5.9839   -5.2280   -2.3238 C   0  0  0  0  0  0  0  0  0  0  0  0
   -5.5486   -6.4600   -3.1203 C   0  0  0  0  0  0  0  0  0  0  0  0
   -4.5799   -3.3088   -3.1406 C   0  0  0  0  0  0  0  0  0  0  0  0
   -3.4916   -2.4616   -3.0346 C   0  0  0  0  0  0  0  0  0  0  0  0
   -0.0948   -2.3618   -2.2064 C   0  0  0  0  0  0  0  0  0  0  0  0
    0.0281   -3.7424   -2.2179 C   0  0  0  0  0  0  0  0  0  0  0  0
    1.2359   -4.3371   -2.5379 C   0  0  0  0  0  0  0  0  0  0  0  0
    2.3502   -3.5734   -2.8536 C   0  0  0  0  0  0  0  0  0  0  0  0
    3.6319   -4.2250   -3.2855 C   0  0  0  0  0  0  0  0  0  0  0  0
    3.6203   -4.4565   -4.7982 C   0  0  0  0  0  0  0  0  0  0  0  0
    2.2297   -2.1904   -2.8153 C   0  0  0  0  0  0  0  0  0  0  0  0
    1.0290   -1.5930   -2.4867 C   0  0  0  0  0  0  0  0  0  0  0  0
   -0.8286   -1.6577    0.6982 C   0  0  0  0  0  0  0  0  0  0  0  0
   -0.7997   -0.8703    1.8458 C   0  0  0  0  0  0  0  0  0  0  0  0
   -0.2404   -1.1235    3.1370 C   0  0  0  0  0  0  0  0  0  0  0  0
   -0.3639   -0.0350    3.9656 C   0  0  0  0  0  0  0  0  0  0  0  0
   -1.0867    1.0809    3.2455 C   0  0  0  0  0  0  0  0  0  0  0  0
   -1.2699    0.4602    1.8636 C   0  0  0  0  0  0  0  0  0  0  0  0
   -1.7016    1.0600    0.7030 C   0  0  0  0  0  0  0  0  0  0  0  0
   -2.4558    1.3668    3.8299 C   0  0  0  0  0  0  0  0  0  0  0  0
   -2.9896    0.5761    4.8378 C   0  0  0  0  0  0  0  0  0  0  0  0
   -4.2486    0.8351    5.3495 C   0  0  0  0  0  0  0  0  0  0  0  0
   -5.0167    1.8838    4.8644 C   0  0  0  0  0  0  0  0  0  0  0  0
   -6.3551    2.2013    5.4656 C   0  0  0  0  0  0  0  0  0  0  0  0
   -6.1965    3.1751    6.6355 C   0  0  0  0  0  0  0  0  0  0  0  0
   -4.4912    2.6590    3.8390 C   0  0  0  0  0  0  0  0  0  0  0  0
   -3.2352    2.4015    3.3240 C   0  0  0  0  0  0  0  0  0  0  0  0
   -0.1705    2.2912    3.1475 C   0  0  0  0  0  0  0  0  0  0  0  0
    1.0128    2.1608    2.4287 C   0  0  0  0  0  0  0  0  0  0  0  0
    1.8943    3.2186    2.3192 C   0  0  0  0  0  0  0  0  0  0  0  0
    1.6257    4.4352    2.9324 C   0  0  0  0  0  0  0  0  0  0  0  0
    2.5578    5.6022    2.7771 C   0  0  0  0  0  0  0  0  0  0  0  0
    2.1389    6.4644    1.5844 C   0  0  0  0  0  0  0  0  0  0  0  0
    0.4475    4.5585    3.6550 C   0  0  0  0  0  0  0  0  0  0  0  0
   -0.4398    3.5033    3.7634 C   0  0  0  0  0  0  0  0  0  0  0  0
    0.2609   -0.2150    5.2222 C   0  0  0  0  0  0  0  0  0  0  0  0
    0.3017    0.7040    6.2958 C   0  0  0  0  0  0  0  0  0  0  0  0
   -0.3739    1.8589    6.0849 O   0  0  0  0  0  0  0  0  0  0  0  0
   -0.7666    2.6826    7.1657 C   0  0  0  0  0  0  0  0  0  0  0  0
   -1.8521    2.0455    8.0239 C   0  0  0  0  0  0  0  0  0  0  0  0
    1.0520    0.3329    7.4003 C   0  0  0  0  0  0  0  0  0  0  0  0
    1.6960   -0.9342    7.4712 C   0  0  0  0  0  0  0  0  0  0  0  0
    1.5969   -1.8870    6.4246 C   0  0  0  0  0  0  0  0  0  0  0  0
    2.2267   -3.0476    6.6755 O   0  0  0  0  0  0  0  0  0  0  0  0
    2.2991   -4.0852    5.7155 C   0  0  0  0  0  0  0  0  0  0  0  0
    3.1242   -5.2028    6.3333 C   0  0  0  0  0  0  0  0  0  0  0  0
    0.8863   -1.4955    5.3033 C   0  0  0  0  0  0  0  0  0  0  0  0
    0.6332   -2.4348    3.8289 S   0  0  0  0  0  0  0  0  0  0  0  0
    2.4319   -1.1262    8.6490 C   0  0  0  0  0  0  0  0  0  0  0  0
    2.4028   -0.0511    9.5075 C   0  0  0  0  0  0  0  0  0  0  0  0
    1.4069    1.2489    8.8464 S   0  0  0  0  0  0  0  0  0  0  0  0
    2.9928    0.2020   10.7584 C   0  0  0  0  0  0  0  0  0  0  0  0
    3.9077   -0.5059   11.4969 C   0  0  0  0  0  0  0  0  0  0  0  0
    4.6281   -1.7424   11.1300 C   0  0  0  0  0  0  0  0  0  0  0  0
    4.4676   -2.4736   10.1756 O   0  0  0  0  0  0  0  0  0  0  0  0
    5.6440   -1.9388   12.1903 C   0  0  0  0  0  0  0  0  0  0  0  0
    6.6020   -2.9282   12.2726 C   0  0  0  0  0  0  0  0  0  0  0  0
    7.4709   -2.9142   13.3568 C   0  0  0  0  0  0  0  0  0  0  0  0
    8.6920   -4.1151   13.5204 Cl  0  0  0  0  0  0  0  0  0  0  0  0
    7.3470   -1.9095   14.3185 C   0  0  0  0  0  0  0  0  0  0  0  0
    8.1915   -1.8972   15.3576 F   0  0  0  0  0  0  0  0  0  0  0  0
    6.3829   -0.9162   14.2435 C   0  0  0  0  0  0  0  0  0  0  0  0
    5.5170   -0.9330   13.1608 C   0  0  0  0  0  0  0  0  0  0  0  0
    4.4109   -0.0559   12.7836 C   0  0  0  0  0  0  0  0  0  0  0  0
    3.9292    0.9679   13.5590 C   0  0  0  0  0  0  0  0  0  0  0  0
    2.8140    1.7839   13.2726 C   0  0  0  0  0  0  0  0  0  0  0  0
    1.9144    2.4864   13.1412 N   0  0  0  0  0  0  0  0  0  0  0  0
    4.4789    1.3362   14.8055 C   0  0  0  0  0  0  0  0  0  0  0  0
    4.8774    1.6923   15.8214 N   0  0  0  0  0  0  0  0  0  0  0  0
    0.4464   -0.2933  -10.3199 H   0  0  0  0  0  0  0  0  0  0  0  0
    2.2013    5.6904  -10.5819 H   0  0  0  0  0  0  0  0  0  0  0  0
    3.6213    7.3193  -11.7886 H   0  0  0  0  0  0  0  0  0  0  0  0
    5.0544    7.8919  -13.7332 H   0  0  0  0  0  0  0  0  0  0  0  0
    4.3936    4.0220  -15.4049 H   0  0  0  0  0  0  0  0  0  0  0  0
    2.9920    2.3965  -14.2407 H   0  0  0  0  0  0  0  0  0  0  0  0
   -0.7033    2.6951   -8.0127 H   0  0  0  0  0  0  0  0  0  0  0  0
   -1.9719    4.2534   -3.9266 H   0  0  0  0  0  0  0  0  0  0  0  0
   -2.1704    5.1854   -5.4240 H   0  0  0  0  0  0  0  0  0  0  0  0
   -4.3814    4.7019   -4.4072 H   0  0  0  0  0  0  0  0  0  0  0  0
   -4.0640    2.9665   -4.4772 H   0  0  0  0  0  0  0  0  0  0  0  0
   -4.2260    3.8926   -5.9736 H   0  0  0  0  0  0  0  0  0  0  0  0
   -1.7527   -2.8551   -6.6595 H   0  0  0  0  0  0  0  0  0  0  0  0
   -0.0144   -3.1193   -6.3578 H   0  0  0  0  0  0  0  0  0  0  0  0
   -2.2791   -4.4570   -4.7988 H   0  0  0  0  0  0  0  0  0  0  0  0
   -1.3568   -5.2180   -6.1097 H   0  0  0  0  0  0  0  0  0  0  0  0
   -0.5534   -4.7615   -4.5963 H   0  0  0  0  0  0  0  0  0  0  0  0
   -2.2487   -3.5889   -0.1160 H   0  0  0  0  0  0  0  0  0  0  0  0
   -4.1588   -5.0797   -0.3142 H   0  0  0  0  0  0  0  0  0  0  0  0
   -6.3355   -5.5417   -1.3389 H   0  0  0  0  0  0  0  0  0  0  0  0
   -6.8106   -4.7383   -2.8423 H   0  0  0  0  0  0  0  0  0  0  0  0
   -4.7315   -6.9689   -2.6135 H   0  0  0  0  0  0  0  0  0  0  0  0
   -5.2074   -6.1692   -4.1115 H   0  0  0  0  0  0  0  0  0  0  0  0
   -6.3772   -7.1558   -3.2288 H   0  0  0  0  0  0  0  0  0  0  0  0
   -5.2425   -3.2162   -3.9898 H   0  0  0  0  0  0  0  0  0  0  0  0
   -3.3336   -1.7238   -3.8035 H   0  0  0  0  0  0  0  0  0  0  0  0
   -0.8245   -4.3651   -1.9938 H   0  0  0  0  0  0  0  0  0  0  0  0
    1.3105   -5.4161   -2.5477 H   0  0  0  0  0  0  0  0  0  0  0  0
    3.7536   -5.1829   -2.7756 H   0  0  0  0  0  0  0  0  0  0  0  0
    4.4797   -3.5882   -3.0249 H   0  0  0  0  0  0  0  0  0  0  0  0
    2.7934   -5.1069   -5.0753 H   0  0  0  0  0  0  0  0  0  0  0  0
    3.5018   -3.5114   -5.3237 H   0  0  0  0  0  0  0  0  0  0  0  0
    4.5498   -4.9195   -5.1210 H   0  0  0  0  0  0  0  0  0  0  0  0
    3.0869   -1.5735   -3.0462 H   0  0  0  0  0  0  0  0  0  0  0  0
    0.9624   -0.5144   -2.4568 H   0  0  0  0  0  0  0  0  0  0  0  0
   -0.4256   -2.6593    0.7136 H   0  0  0  0  0  0  0  0  0  0  0  0
   -1.9879    2.0990    0.6608 H   0  0  0  0  0  0  0  0  0  0  0  0
   -2.4217   -0.2501    5.2380 H   0  0  0  0  0  0  0  0  0  0  0  0
   -4.6411    0.2074    6.1379 H   0  0  0  0  0  0  0  0  0  0  0  0
   -6.8281    1.2843    5.8229 H   0  0  0  0  0  0  0  0  0  0  0  0
   -7.0041    2.6488    4.7103 H   0  0  0  0  0  0  0  0  0  0  0  0
   -5.7352    4.1005    6.2976 H   0  0  0  0  0  0  0  0  0  0  0  0
   -7.1655    3.4087    7.0702 H   0  0  0  0  0  0  0  0  0  0  0  0
   -5.5656    2.7407    7.4081 H   0  0  0  0  0  0  0  0  0  0  0  0
   -5.0747    3.4746    3.4355 H   0  0  0  0  0  0  0  0  0  0  0  0
   -2.8555    3.0222    2.5268 H   0  0  0  0  0  0  0  0  0  0  0  0
    1.2465    1.2216    1.9465 H   0  0  0  0  0  0  0  0  0  0  0  0
    2.8065    3.0955    1.7526 H   0  0  0  0  0  0  0  0  0  0  0  0
    2.5429    6.2110    3.6834 H   0  0  0  0  0  0  0  0  0  0  0  0
    3.5775    5.2444    2.6221 H   0  0  0  0  0  0  0  0  0  0  0  0
    2.1573    5.8774    0.6688 H   0  0  0  0  0  0  0  0  0  0  0  0
    1.1291    6.8427    1.7274 H   0  0  0  0  0  0  0  0  0  0  0  0
    2.8136    7.3096    1.4695 H   0  0  0  0  0  0  0  0  0  0  0  0
    0.2207    5.4947    4.1459 H   0  0  0  0  0  0  0  0  0  0  0  0
   -1.3445    3.6287    4.3360 H   0  0  0  0  0  0  0  0  0  0  0  0
    0.0947    2.9715    7.7773 H   0  0  0  0  0  0  0  0  0  0  0  0
   -1.1552    3.5808    6.6793 H   0  0  0  0  0  0  0  0  0  0  0  0
   -1.4853    1.1413    8.5035 H   0  0  0  0  0  0  0  0  0  0  0  0
   -2.7083    1.7914    7.4031 H   0  0  0  0  0  0  0  0  0  0  0  0
   -2.1617    2.7452    8.7944 H   0  0  0  0  0  0  0  0  0  0  0  0
    1.2927   -4.4458    5.4687 H   0  0  0  0  0  0  0  0  0  0  0  0
    2.7787   -3.7206    4.7989 H   0  0  0  0  0  0  0  0  0  0  0  0
    2.6450   -5.5600    7.2404 H   0  0  0  0  0  0  0  0  0  0  0  0
    4.1132   -4.8336    6.5895 H   0  0  0  0  0  0  0  0  0  0  0  0
    3.2177   -6.0239    5.6291 H   0  0  0  0  0  0  0  0  0  0  0  0
    2.9755   -2.0302    8.8514 H   0  0  0  0  0  0  0  0  0  0  0  0
    2.6784    1.1481   11.1837 H   0  0  0  0  0  0  0  0  0  0  0  0
    6.6720   -3.6896   11.5122 H   0  0  0  0  0  0  0  0  0  0  0  0
    6.3449   -0.1702   15.0201 H   0  0  0  0  0  0  0  0  0  0  0  0
  1  2  2  0  0  0  0
  2  3  1  0  0  0  0
  3  4  2  0  0  0  0
  3  5  1  0  0  0  0
  5  6  2  0  0  0  0
  6  7  1  0  0  0  0
  7  8  2  0  0  0  0
  8  9  1  0  0  0  0
  9 10  2  0  0  0  0
 10 11  1  0  0  0  0
 10 12  1  0  0  0  0
 12 13  2  0  0  0  0
 13 14  1  0  0  0  0
 14 15  2  0  0  0  0
 15 16  1  0  0  0  0
 16 17  2  0  0  0  0
 17 18  1  0  0  0  0
 18 19  3  0  0  0  0
 17 20  1  0  0  0  0
 20 21  3  0  0  0  0
  1 22  1  0  0  0  0
 22 23  2  0  0  0  0
 23 24  1  0  0  0  0
 24 25  2  0  0  0  0
 25 26  1  0  0  0  0
 26 27  1  0  0  0  0
 27 28  1  0  0  0  0
 25 29  1  0  0  0  0
 29 30  1  0  0  0  0
 30 31  1  0  0  0  0
 31 32  1  0  0  0  0
 32 33  2  0  0  0  0
 33 34  1  0  0  0  0
 34 35  1  0  0  0  0
 35 36  1  0  0  0  0
 36 37  1  0  0  0  0
 37 38  2  0  0  0  0
 38 39  1  0  0  0  0
 37 40  1  0  0  0  0
 40 41  1  0  0  0  0
 41 42  1  0  0  0  0
 34 43  1  0  0  0  0
 43 44  2  0  0  0  0
 44 45  1  0  0  0  0
 45 46  2  0  0  0  0
 46 47  1  0  0  0  0
 47 48  1  0  0  0  0
 46 49  1  0  0  0  0
 49 50  2  0  0  0  0
 34 51  1  0  0  0  0
 51 52  2  0  0  0  0
 52 53  1  0  0  0  0
 53 54  2  0  0  0  0
 54 55  1  0  0  0  0
 55 56  1  0  0  0  0
 54 57  1  0  0  0  0
 57 58  2  0  0  0  0
 33 59  1  0  0  0  0
 59 60  2  0  0  0  0
 60 61  1  0  0  0  0
 61 62  2  0  0  0  0
 62 63  1  0  0  0  0
 63 64  1  0  0  0  0
 64 65  2  0  0  0  0
 63 66  1  0  0  0  0
 66 67  2  0  0  0  0
 67 68  1  0  0  0  0
 68 69  2  0  0  0  0
 69 70  1  0  0  0  0
 70 71  1  0  0  0  0
 69 72  1  0  0  0  0
 72 73  2  0  0  0  0
 63 74  1  0  0  0  0
 74 75  2  0  0  0  0
 75 76  1  0  0  0  0
 76 77  2  0  0  0  0
 77 78  1  0  0  0  0
 78 79  1  0  0  0  0
 77 80  1  0  0  0  0
 80 81  2  0  0  0  0
 62 82  1  0  0  0  0
 82 83  2  0  0  0  0
 83 84  1  0  0  0  0
 84 85  1  0  0  0  0
 85 86  1  0  0  0  0
 83 87  1  0  0  0  0
 87 88  2  0  0  0  0
 88 89  1  0  0  0  0
 89 90  1  0  0  0  0
 90 91  1  0  0  0  0
 91 92  1  0  0  0  0
 89 93  2  0  0  0  0
 93 94  1  0  0  0  0
 88 95  1  0  0  0  0
 95 96  2  0  0  0  0
 96 97  1  0  0  0  0
 96 98  1  0  0  0  0
 98 99  2  0  0  0  0
 99100  1  0  0  0  0
100101  2  0  0  0  0
100102  1  0  0  0  0
102103  2  0  0  0  0
103104  1  0  0  0  0
104105  1  0  0  0  0
104106  2  0  0  0  0
106107  1  0  0  0  0
106108  1  0  0  0  0
108109  2  0  0  0  0
109110  1  0  0  0  0
110111  2  0  0  0  0
111112  1  0  0  0  0
112113  3  0  0  0  0
111114  1  0  0  0  0
114115  3  0  0  0  0
 16  2  1  0  0  0  0
 39 22  1  0  0  0  0
 50 43  1  0  0  0  0
 58 51  1  0  0  0  0
 64 60  1  0  0  0  0
 73 66  1  0  0  0  0
 81 74  1  0  0  0  0
 93 82  1  0  0  0  0
110 99  1  0  0  0  0
 15  5  1  0  0  0  0
 38 24  1  0  0  0  0
 94 61  1  0  0  0  0
109102  1  0  0  0  0
 13  7  1  0  0  0  0
 36 29  2  0  0  0  0
 97 87  1  0  0  0  0
 35 31  2  0  0  0  0
 65 32  1  0  0  0  0
  1116  1  0  0  0  0
  6117  1  0  0  0  0
  8118  1  0  0  0  0
  9119  1  0  0  0  0
 12120  1  0  0  0  0
 14121  1  0  0  0  0
 23122  1  0  0  0  0
 27123  1  0  0  0  0
 27124  1  0  0  0  0
 28125  1  0  0  0  0
 28126  1  0  0  0  0
 28127  1  0  0  0  0
 41128  1  0  0  0  0
 41129  1  0  0  0  0
 42130  1  0  0  0  0
 42131  1  0  0  0  0
 42132  1  0  0  0  0
 44133  1  0  0  0  0
 45134  1  0  0  0  0
 47135  1  0  0  0  0
 47136  1  0  0  0  0
 48137  1  0  0  0  0
 48138  1  0  0  0  0
 48139  1  0  0  0  0
 49140  1  0  0  0  0
 50141  1  0  0  0  0
 52142  1  0  0  0  0
 53143  1  0  0  0  0
 55144  1  0  0  0  0
 55145  1  0  0  0  0
 56146  1  0  0  0  0
 56147  1  0  0  0  0
 56148  1  0  0  0  0
 57149  1  0  0  0  0
 58150  1  0  0  0  0
 59151  1  0  0  0  0
 65152  1  0  0  0  0
 67153  1  0  0  0  0
 68154  1  0  0  0  0
 70155  1  0  0  0  0
 70156  1  0  0  0  0
 71157  1  0  0  0  0
 71158  1  0  0  0  0
 71159  1  0  0  0  0
 72160  1  0  0  0  0
 73161  1  0  0  0  0
 75162  1  0  0  0  0
 76163  1  0  0  0  0
 78164  1  0  0  0  0
 78165  1  0  0  0  0
 79166  1  0  0  0  0
 79167  1  0  0  0  0
 79168  1  0  0  0  0
 80169  1  0  0  0  0
 81170  1  0  0  0  0
 85171  1  0  0  0  0
 85172  1  0  0  0  0
 86173  1  0  0  0  0
 86174  1  0  0  0  0
 86175  1  0  0  0  0
 91176  1  0  0  0  0
 91177  1  0  0  0  0
 92178  1  0  0  0  0
 92179  1  0  0  0  0
 92180  1  0  0  0  0
 95181  1  0  0  0  0
 98182  1  0  0  0  0
103183  1  0  0  0  0
108184  1  0  0  0  0
M  END
