184

C          0.33020        0.69800       -9.89540
C          0.76430        1.73880      -10.67100
C          0.97140        3.15130      -10.27450
O          0.56160        3.73670       -9.29390
C          1.81910        3.73730      -11.33170
C          2.37380        4.98310      -11.37940
C          3.18450        5.33370      -12.48190
C          3.79100        6.60260      -12.57810
C          4.58170        6.92650      -13.64530
C          4.78300        5.97390      -14.65320
F          5.56570        6.31050      -15.69540
C          4.21760        4.73000      -14.61010
C          3.40060        4.37900      -13.51780
C          2.80430        3.09830      -13.44410
C          2.02240        2.78220      -12.36530
C          1.30120        1.56470      -12.01000
C          1.11320        0.48740      -12.83710
C          0.32630       -0.64580      -12.54140
N         -0.31130       -1.58950      -12.39160
C          1.65080        0.39230      -14.13730
N          2.06380        0.25260      -15.19960
C         -0.17700        0.67690       -8.58010
C         -0.64750        1.65770       -7.74090
C         -1.02550        1.18780       -6.47170
C         -1.48720        2.01020       -5.41340
O         -1.62870        3.30970       -5.74800
C         -2.36120        4.21900       -4.94950
C         -3.85630        3.92260       -4.95140
C         -1.65420        1.38960       -4.18560
S         -2.01140        2.17060       -2.64180
C         -1.83920        0.66260       -1.82700
C         -1.68490        0.28830       -0.45410
C         -1.30570       -1.07250       -0.45090
C         -1.39100       -1.65470       -1.85740
C         -1.58700       -0.39380       -2.66640
C         -1.46370       -0.01590       -4.02460
C         -1.11530       -0.84920       -5.11230
C         -0.85900       -0.21560       -6.31730
S         -0.24780       -0.90570       -7.80300
O         -1.05290       -2.17290       -4.83920
C         -1.00940       -3.11420       -5.89550
C         -1.32080       -4.48250       -5.31140
C         -2.61510       -2.55640       -1.96200
C         -2.88640       -3.50450       -0.98130
C         -3.97530       -4.34920       -1.08960
C         -4.83700       -4.27110       -2.17480
C         -5.98390       -5.22800       -2.32380
C         -5.54860       -6.46000       -3.12030
C         -4.57990       -3.30880       -3.14060
C         -3.49160       -2.46160       -3.03460
C         -0.09480       -2.36180       -2.20640
C          0.02810       -3.74240       -2.21790
C          1.23590       -4.33710       -2.53790
C          2.35020       -3.57340       -2.85360
C          3.63190       -4.22500       -3.28550
C          3.62030       -4.45650       -4.79820
C          2.22970       -2.19040       -2.81530
C          1.02900       -1.59300       -2.48670
C         -0.82860       -1.65770        0.69820
C         -0.79970       -0.87030        1.84580
C         -0.24040       -1.12350        3.13700
C         -0.36390       -0.03500        3.96560
C         -1.08670        1.08090        3.24550
C         -1.26990        0.46020        1.86360
C         -1.70160        1.06000        0.70300
C         -2.45580        1.36680        3.82990
C         -2.98960        0.57610        4.83780
C         -4.24860        0.83510        5.34950
C         -5.01670        1.88380        4.86440
C         -6.35510        2.20130        5.46560
C         -6.19650        3.17510        6.63550
C         -4.49120        2.65900        3.83900
C         -3.23520        2.40150        3.32400
C         -0.17050        2.29120        3.14750
C          1.01280        2.16080        2.42870
C          1.89430        3.21860        2.31920
C          1.62570        4.43520        2.93240
C          2.55780        5.60220        2.77710
C          2.13890        6.46440        1.58440
C          0.44750        4.55850        3.65500
C         -0.43980        3.50330        3.76340
C          0.26090       -0.21500        5.22220
C          0.30170        0.70400        6.29580
O         -0.37390        1.85890        6.08490
C         -0.76660        2.68260        7.16570
C         -1.85210        2.04550        8.02390
C          1.05200        0.33290        7.40030
C          1.69600       -0.93420        7.47120
C          1.59690       -1.88700        6.42460
O          2.22670       -3.04760        6.67550
C          2.29910       -4.08520        5.71550
C          3.12420       -5.20280        6.33330
C          0.88630       -1.49550        5.30330
S          0.63320       -2.43480        3.82890
C          2.43190       -1.12620        8.64900
C          2.40280       -0.05110        9.50750
S          1.40690        1.24890        8.84640
C          2.99280        0.20200       10.75840
C          3.90770       -0.50590       11.49690
C          4.62810       -1.74240       11.13000
O          4.46760       -2.47360       10.17560
C          5.64400       -1.93880       12.19030
C          6.60200       -2.92820       12.27260
C          7.47090       -2.91420       13.35680
Cl         8.69200       -4.11510       13.52040
C          7.34700       -1.90950       14.31850
F          8.19150       -1.89720       15.35760
C          6.38290       -0.91620       14.24350
C          5.51700       -0.93300       13.16080
C          4.41090       -0.05590       12.78360
C          3.92920        0.96790       13.55900
C          2.81400        1.78390       13.27260
N          1.91440        2.48640       13.14120
C          4.47890        1.33620       14.80550
N          4.87740        1.69230       15.82140
H          0.44640       -0.29330      -10.31990
H          2.20130        5.69040      -10.58190
H          3.62130        7.31930      -11.78860
H          5.05440        7.89190      -13.73320
H          4.39360        4.02200      -15.40490
H          2.99200        2.39650      -14.24070
H         -0.70330        2.69510       -8.01270
H         -1.97190        4.25340       -3.92660
H         -2.17040        5.18540       -5.42400
H         -4.38140        4.70190       -4.40720
H         -4.06400        2.96650       -4.47720
H         -4.22600        3.89260       -5.97360
H         -1.75270       -2.85510       -6.65950
H         -0.01440       -3.11930       -6.35780
H         -2.27910       -4.45700       -4.79880
H         -1.35680       -5.21800       -6.10970
H         -0.55340       -4.76150       -4.59630
H         -2.24870       -3.58890       -0.11600
H         -4.15880       -5.07970       -0.31420
H         -6.33550       -5.54170       -1.33890
H         -6.81060       -4.73830       -2.84230
H         -4.73150       -6.96890       -2.61350
H         -5.20740       -6.16920       -4.11150
H         -6.37720       -7.15580       -3.22880
H         -5.24250       -3.21620       -3.98980
H         -3.33360       -1.72380       -3.80350
H         -0.82450       -4.36510       -1.99380
H          1.31050       -5.41610       -2.54770
H          3.75360       -5.18290       -2.77560
H          4.47970       -3.58820       -3.02490
H          2.79340       -5.10690       -5.07530
H          3.50180       -3.51140       -5.32370
H          4.54980       -4.91950       -5.12100
H          3.08690       -1.57350       -3.04620
H          0.96240       -0.51440       -2.45680
H         -0.42560       -2.65930        0.71360
H         -1.98790        2.09900        0.66080
H         -2.42170       -0.25010        5.23800
H         -4.64110        0.20740        6.13790
H         -6.82810        1.28430        5.82290
H         -7.00410        2.64880        4.71030
H         -5.73520        4.10050        6.29760
H         -7.16550        3.40870        7.07020
H         -5.56560        2.74070        7.40810
H         -5.07470        3.47460        3.43550
H         -2.85550        3.02220        2.52680
H          1.24650        1.22160        1.94650
H          2.80650        3.09550        1.75260
H          2.54290        6.21100        3.68340
H          3.57750        5.24440        2.62210
H          2.15730        5.87740        0.66880
H          1.12910        6.84270        1.72740
H          2.81360        7.30960        1.46950
H          0.22070        5.49470        4.14590
H         -1.34450        3.62870        4.33600
H          0.09470        2.97150        7.77730
H         -1.15520        3.58080        6.67930
H         -1.48530        1.14130        8.50350
H         -2.70830        1.79140        7.40310
H         -2.16170        2.74520        8.79440
H          1.29270       -4.44580        5.46870
H          2.77870       -3.72060        4.79890
H          2.64500       -5.56000        7.24040
H          4.11320       -4.83360        6.58950
H          3.21770       -6.02390        5.62910
H          2.97550       -2.03020        8.85140
H          2.67840        1.14810       11.18370
H          6.67200       -3.68960       11.51220
H          6.34490       -0.17020       15.02010
