208

C         -3.25070       -8.45600       -4.72390
C         -4.27620       -9.33690       -4.50700
C         -5.16460       -9.46060       -3.32730
O         -5.05720       -8.95400       -2.22900
C         -6.25640      -10.36130       -3.74220
C         -7.36450      -10.72810       -3.03480
C         -8.30530      -11.59630       -3.63110
C         -9.46950      -12.00530       -2.94920
C        -10.37510      -12.84150       -3.54060
C        -10.13020      -13.29200       -4.84490
F        -11.03380      -14.11360       -5.41070
C         -9.01750      -12.92720       -5.55020
C         -8.07350      -12.06680       -4.95620
C         -6.91180      -11.67370       -5.66080
C         -6.01190      -10.83380       -5.06010
C         -4.74880      -10.26660       -5.52230
C         -4.11540      -10.61830       -6.68610
C         -4.63540      -11.54310       -7.61630
N         -4.99930      -12.28160       -8.41660
C         -2.85140      -10.16590       -7.12230
N         -1.82640       -9.87640       -7.55290
C         -2.67390       -7.46480       -3.90330
C         -2.87330       -7.11650       -2.58770
C         -2.09040       -6.02820       -2.16640
C         -2.02550       -5.44910       -0.87980
C         -2.85530       -5.90850        0.21430
C         -2.49750       -6.09640        1.52200
C         -3.56280       -6.53260        2.33060
C         -4.73770       -6.66560        1.65330
C         -6.07340       -7.06370        2.17870
C         -7.00490       -5.85460        2.29810
S         -4.54470       -6.25820       -0.01520
C         -1.13920       -4.39520       -0.71970
S         -1.01690       -3.49150        0.77720
C          0.07020       -2.40130        0.00750
C          0.65300       -1.16010        0.41330
C          0.58420       -0.47230        1.62100
C          1.18740        0.76260        1.67200
C          1.28030        1.74210        2.84150
C         -0.09590        1.94820        3.44470
C         -1.07350        2.51610        2.63270
C         -2.36110        2.69470        3.09460
C         -2.71780        2.29850        4.37810
C         -4.13350        2.44280        4.85690
C         -4.98720        1.27190        4.36630
C         -1.74220        1.73150        5.18330
C         -0.44510        1.56520        4.72960
C          2.33450        1.18480        3.78900
C          2.14560       -0.04520        4.41090
C          3.10270       -0.56910        5.25850
C          4.29200        0.10500        5.50060
C          5.30640       -0.43890        6.46400
C          5.01580        0.06090        7.88080
C          4.49470        1.31630        4.85640
C          3.53560        1.84630        4.01140
C          1.78860        2.97930        2.13320
C          2.14240        2.65800        0.84410
C          1.79380        1.30910        0.52060
C          1.88530        0.61160       -0.67890
C          1.31570       -0.63960       -0.71550
C          1.24770       -1.62000       -1.88240
C          2.68900       -2.02410       -2.11560
C          3.21550       -3.13700       -1.47090
C          4.54550       -3.48190       -1.62470
C          5.39260       -2.71880       -2.41590
C          6.81460       -3.13760       -2.65120
C          6.90660       -4.01190       -3.90390
C          4.87650       -1.57970       -3.01870
C          3.54990       -1.22600       -2.85900
C          0.50610       -0.99950       -3.05240
C          0.92760       -1.08490       -4.36950
C          0.18070       -0.50680       -5.38060
C         -1.01370        0.14450       -5.11420
C         -1.85020        0.69290       -6.23310
C         -2.77410       -0.39790       -6.77910
C         -1.44200        0.21490       -3.79510
C         -0.69090       -0.34280       -2.78010
C          0.37960       -2.71780       -1.29620
C         -0.30150       -3.87700       -1.75650
C         -0.32490       -4.50570       -3.01850
C         -1.24000       -5.53880       -3.19190
S         -1.45130       -6.44310       -4.65980
C          0.59350       -4.21610       -4.11160
C          1.94810       -4.35950       -4.11140
C          2.52610       -4.20590       -5.38880
C          1.61590       -3.96870       -6.37110
C          1.85640       -3.82790       -7.83570
C          1.47530       -2.44810       -8.36970
S          0.00830       -3.90150       -5.72230
S          2.77340        3.97220       -0.07380
C          2.53980        5.03170        1.30370
C          2.86040        6.38140        1.29130
C          3.36080        7.03470        0.09880
C          2.94210        6.85390       -1.19070
C          3.62130        7.66390       -2.12020
C          4.56910        8.46260       -1.55800
C          5.50030        9.41400       -2.22420
C          6.92520        8.85810       -2.27210
S          4.63390        8.22630        0.15640
C          2.61040        7.09430        2.48530
C          2.79000        8.46270        2.73640
C          2.35380        8.86780        3.97680
S          1.73480        7.52080        4.91340
C          2.02080        6.42940        3.59070
C          1.71770        5.07670        3.60660
C          1.10300        4.52790        4.81390
C          1.65670        3.79430        5.81580
C          0.78130        3.60060        6.90650
C         -0.43050        4.19230        6.74020
C         -1.57830        4.25010        7.68790
C         -1.65730        5.61780        8.36920
S         -0.51950        5.01250        5.21820
C          1.99550        4.34870        2.43640
C          2.39740       10.16330        4.53540
C          2.66150       11.33720        3.89510
C          3.06220       12.53280        4.67660
O          2.93680       12.69980        5.86490
C          3.71220       13.43440        3.69040
C          4.42270       14.60200        3.90930
Cl         4.51390       15.30840        5.45940
C          5.08150       15.19260        2.82010
Cl         5.94910       16.64940        3.03960
C          5.06660       14.57580        1.56960
Cl         5.95930       15.26200        0.28190
C          4.34090       13.39430        1.35380
Cl         4.48740       12.59490       -0.15420
C          3.61190       12.86200        2.40610
C          2.73120       11.69800        2.49210
C          1.86970       11.27400        1.51650
C          0.89690       10.27100        1.72720
N          0.07650        9.47730        1.83960
C          1.70900       11.86600        0.24590
N          1.46910       12.31790       -0.78100
H         -2.80990       -8.48150       -5.71410
H         -7.52260      -10.35630       -2.03340
H         -9.63610      -11.64450       -1.94530
H        -11.27070      -13.16340       -3.03340
H         -8.86070      -13.29480       -6.55220
H         -6.76960      -12.04500       -6.66270
H         -3.56240       -7.64560       -1.95710
H         -1.49330       -5.96730        1.88420
H         -3.46030       -6.74630        3.37990
H         -6.52430       -7.79870        1.50710
H         -5.94350       -7.52710        3.15930
H         -7.97310       -6.16070        2.68620
H         -7.15010       -5.39360        1.32340
H         -6.57810       -5.11330        2.97070
H          0.04000       -0.89120        2.45300
H         -0.81810        2.82240        1.62780
H         -3.10110        3.14830        2.45110
H         -4.55530        3.37800        4.48260
H         -4.15670        2.46900        5.94840
H         -4.98720        1.23190        3.27950
H         -6.01350        1.37790        4.71040
H         -4.58970        0.33160        4.74220
H         -1.99210        1.41970        6.18770
H          0.29340        1.14920        5.39670
H          1.24360       -0.60880        4.23460
H          2.92430       -1.52310        5.73440
H          5.27850       -1.53030        6.45450
H          6.30750       -0.11940        6.16790
H          4.02490       -0.25690        8.19800
H          5.05330        1.14750        7.91390
H          5.74800       -0.33330        8.58160
H          5.41730        1.85730        5.01410
H          3.73730        2.78980        3.52750
H          2.35630        1.05840       -1.54010
H          2.57810       -3.74650       -0.84580
H          4.92920       -4.35920       -1.12280
H          7.18390       -3.70000       -1.79140
H          7.44560       -2.25600       -2.78040
H          6.55810       -3.46100       -4.77490
H          6.28960       -4.90080       -3.79060
H          7.93410       -4.32250       -4.07820
H          5.52420       -0.95400       -3.61660
H          3.18670       -0.32030       -3.32040
H          1.83590       -1.61020       -4.62060
H          0.53130       -0.57080       -6.39930
H         -1.20500        1.05360       -7.03690
H         -2.45180        1.53040       -5.87450
H         -3.37610       -0.01360       -7.59910
H         -2.19090       -1.24260       -7.13920
H         -3.43910       -0.75560       -5.99630
H         -2.37150        0.71320       -3.55910
H         -1.03970       -0.27060       -1.75930
H          2.51310       -4.60730       -3.23300
H          3.58340       -4.29200       -5.56800
H          2.91400       -4.01900       -8.03060
H          1.27260       -4.58550       -8.36590
H          2.07010       -1.67700       -7.88480
H          1.65280       -2.39820       -9.44130
H          0.42150       -2.25300       -8.18350
H          2.13990        6.19240       -1.46270
H          3.40750        7.65940       -3.17410
H          5.14210        9.60010       -3.23860
H          5.50530       10.36360       -1.68380
H          7.58730        9.56480       -2.76540
H          7.29460        8.68000       -1.26450
H          6.94680        7.91870       -2.81990
H          3.26460        9.13240        2.04490
H          2.66050        3.41190        5.78530
H          1.05080        3.04060        7.78470
H         -2.50850        4.06650        7.14580
H         -1.45550        3.46950        8.44190
H         -1.78890        6.39920        7.62450
H         -2.49570        5.64870        9.06060
H         -0.74190        5.81870        8.92090
H          2.28410       10.23400        5.61160
