
  xtb     02012216253D
 energy: -342.505275626166 gnorm: 0.000496313732 xtb: 6.4.1 (unknown)
208229  0     0  0            999 V2000
   -7.0186   -5.5328    5.0942 C   0  0  0  0  0  0  0  0  0  0  0  0
   -7.7901   -6.6095    4.7475 C   0  0  0  0  0  0  0  0  0  0  0  0
   -7.9200   -7.2758    3.4303 C   0  0  0  0  0  0  0  0  0  0  0  0
   -7.5474   -6.8975    2.3383 O   0  0  0  0  0  0  0  0  0  0  0  0
   -8.6219   -8.5462    3.6935 C   0  0  0  0  0  0  0  0  0  0  0  0
   -8.9080   -9.5511    2.8155 C   0  0  0  0  0  0  0  0  0  0  0  0
   -9.5787  -10.7027    3.2828 C   0  0  0  0  0  0  0  0  0  0  0  0
   -9.8952  -11.7736    2.4223 C   0  0  0  0  0  0  0  0  0  0  0  0
  -10.5403  -12.8851    2.8889 C   0  0  0  0  0  0  0  0  0  0  0  0
  -10.8868  -12.9479    4.2454 C   0  0  0  0  0  0  0  0  0  0  0  0
  -11.5210  -14.0505    4.6860 F   0  0  0  0  0  0  0  0  0  0  0  0
  -10.6037  -11.9382    5.1223 C   0  0  0  0  0  0  0  0  0  0  0  0
   -9.9399  -10.7854    4.6589 C   0  0  0  0  0  0  0  0  0  0  0  0
   -9.6347   -9.7242    5.5428 C   0  0  0  0  0  0  0  0  0  0  0  0
   -8.9860   -8.6163    5.0655 C   0  0  0  0  0  0  0  0  0  0  0  0
   -8.5443   -7.3879    5.7188 C   0  0  0  0  0  0  0  0  0  0  0  0
   -8.8580   -7.0302    7.0044 C   0  0  0  0  0  0  0  0  0  0  0  0
   -8.5315   -5.8110    7.6364 C   0  0  0  0  0  0  0  0  0  0  0  0
   -8.3341   -4.8469    8.2291 N   0  0  0  0  0  0  0  0  0  0  0  0
   -9.6109   -7.8374    7.8834 C   0  0  0  0  0  0  0  0  0  0  0  0
  -10.2130   -8.4432    8.6507 N   0  0  0  0  0  0  0  0  0  0  0  0
   -6.1984   -4.6806    4.3263 C   0  0  0  0  0  0  0  0  0  0  0  0
   -6.0031   -4.5577    2.9694 C   0  0  0  0  0  0  0  0  0  0  0  0
   -5.0610   -3.5752    2.6200 C   0  0  0  0  0  0  0  0  0  0  0  0
   -4.6298   -3.1860    1.3320 C   0  0  0  0  0  0  0  0  0  0  0  0
   -5.1165   -3.8334    0.1313 C   0  0  0  0  0  0  0  0  0  0  0  0
   -5.4791   -3.2538   -1.0542 C   0  0  0  0  0  0  0  0  0  0  0  0
   -5.8801   -4.1875   -2.0270 C   0  0  0  0  0  0  0  0  0  0  0  0
   -5.8128   -5.4794   -1.5986 C   0  0  0  0  0  0  0  0  0  0  0  0
   -6.1152   -6.7252   -2.3570 C   0  0  0  0  0  0  0  0  0  0  0  0
   -4.8320   -7.4630   -2.7457 C   0  0  0  0  0  0  0  0  0  0  0  0
   -5.2576   -5.5657    0.0358 S   0  0  0  0  0  0  0  0  0  0  0  0
   -3.6949   -2.1632    1.2736 C   0  0  0  0  0  0  0  0  0  0  0  0
   -3.0216   -1.5710   -0.2332 S   0  0  0  0  0  0  0  0  0  0  0  0
   -2.0058   -0.5029    0.6577 C   0  0  0  0  0  0  0  0  0  0  0  0
   -1.0322    0.4732    0.2780 C   0  0  0  0  0  0  0  0  0  0  0  0
   -0.6074    0.8841   -0.9810 C   0  0  0  0  0  0  0  0  0  0  0  0
    0.3439    1.8764   -1.0303 C   0  0  0  0  0  0  0  0  0  0  0  0
    0.9929    2.5308   -2.2502 C   0  0  0  0  0  0  0  0  0  0  0  0
   -0.1070    3.1800   -3.0776 C   0  0  0  0  0  0  0  0  0  0  0  0
   -0.3192    2.9239   -4.4227 C   0  0  0  0  0  0  0  0  0  0  0  0
   -1.3728    3.5198   -5.0940 C   0  0  0  0  0  0  0  0  0  0  0  0
   -2.2239    4.4070   -4.4534 C   0  0  0  0  0  0  0  0  0  0  0  0
   -3.3864    5.0234   -5.1769 C   0  0  0  0  0  0  0  0  0  0  0  0
   -4.6363    4.1554   -5.0196 C   0  0  0  0  0  0  0  0  0  0  0  0
   -1.9958    4.6794   -3.1100 C   0  0  0  0  0  0  0  0  0  0  0  0
   -0.9584    4.0720   -2.4318 C   0  0  0  0  0  0  0  0  0  0  0  0
    1.8223    1.4858   -2.9844 C   0  0  0  0  0  0  0  0  0  0  0  0
    3.2115    1.5040   -2.9631 C   0  0  0  0  0  0  0  0  0  0  0  0
    3.9496    0.5373   -3.6206 C   0  0  0  0  0  0  0  0  0  0  0  0
    3.3295   -0.4959   -4.3067 C   0  0  0  0  0  0  0  0  0  0  0  0
    4.1386   -1.5309   -5.0326 C   0  0  0  0  0  0  0  0  0  0  0  0
    4.4720   -1.0701   -6.4525 C   0  0  0  0  0  0  0  0  0  0  0  0
    1.9415   -0.5293   -4.3106 C   0  0  0  0  0  0  0  0  0  0  0  0
    1.2009    0.4379   -3.6573 C   0  0  0  0  0  0  0  0  0  0  0  0
    1.8638    3.5728   -1.5809 C   0  0  0  0  0  0  0  0  0  0  0  0
    1.7621    3.4636   -0.2147 C   0  0  0  0  0  0  0  0  0  0  0  0
    0.8224    2.4553    0.1646 C   0  0  0  0  0  0  0  0  0  0  0  0
    0.3890    2.0526    1.4234 C   0  0  0  0  0  0  0  0  0  0  0  0
   -0.5406    1.0404    1.4715 C   0  0  0  0  0  0  0  0  0  0  0  0
   -1.1841    0.3804    2.6897 C   0  0  0  0  0  0  0  0  0  0  0  0
   -0.0741   -0.3439    3.4298 C   0  0  0  0  0  0  0  0  0  0  0  0
    0.8776    0.3667    4.1538 C   0  0  0  0  0  0  0  0  0  0  0  0
    1.9037   -0.2866    4.8089 C   0  0  0  0  0  0  0  0  0  0  0  0
    2.0303   -1.6677    4.7443 C   0  0  0  0  0  0  0  0  0  0  0  0
    3.1046   -2.3806    5.5128 C   0  0  0  0  0  0  0  0  0  0  0  0
    2.6087   -2.7258    6.9189 C   0  0  0  0  0  0  0  0  0  0  0  0
    1.1065   -2.3720    3.9863 C   0  0  0  0  0  0  0  0  0  0  0  0
    0.0734   -1.7217    3.3353 C   0  0  0  0  0  0  0  0  0  0  0  0
   -1.9484    1.4187    3.4939 C   0  0  0  0  0  0  0  0  0  0  0  0
   -1.7729    1.6321    4.8511 C   0  0  0  0  0  0  0  0  0  0  0  0
   -2.5148    2.5956    5.5125 C   0  0  0  0  0  0  0  0  0  0  0  0
   -3.4602    3.3584    4.8455 C   0  0  0  0  0  0  0  0  0  0  0  0
   -4.3171    4.3481    5.5799 C   0  0  0  0  0  0  0  0  0  0  0  0
   -5.6694    3.7219    5.9271 C   0  0  0  0  0  0  0  0  0  0  0  0
   -3.6367    3.1399    3.4845 C   0  0  0  0  0  0  0  0  0  0  0  0
   -2.8899    2.1902    2.8183 C   0  0  0  0  0  0  0  0  0  0  0  0
   -2.1541   -0.5729    2.0225 C   0  0  0  0  0  0  0  0  0  0  0  0
   -3.1388   -1.5141    2.4202 C   0  0  0  0  0  0  0  0  0  0  0  0
   -3.5980   -1.8854    3.6951 C   0  0  0  0  0  0  0  0  0  0  0  0
   -4.5428   -2.8993    3.7550 C   0  0  0  0  0  0  0  0  0  0  0  0
   -5.2200   -3.5203    5.2272 S   0  0  0  0  0  0  0  0  0  0  0  0
   -3.1966   -1.2779    4.9639 C   0  0  0  0  0  0  0  0  0  0  0  0
   -2.1198   -1.5400    5.7506 C   0  0  0  0  0  0  0  0  0  0  0  0
   -2.1863   -0.9011    7.0091 C   0  0  0  0  0  0  0  0  0  0  0  0
   -3.3170   -0.1689    7.1872 C   0  0  0  0  0  0  0  0  0  0  0  0
   -3.7562    0.5841    8.3955 C   0  0  0  0  0  0  0  0  0  0  0  0
   -4.8914   -0.1466    9.1153 C   0  0  0  0  0  0  0  0  0  0  0  0
   -4.3343   -0.2472    5.7867 S   0  0  0  0  0  0  0  0  0  0  0  0
    2.8390    4.4820    0.6662 S   0  0  0  0  0  0  0  0  0  0  0  0
    3.5481    5.0220   -0.8454 C   0  0  0  0  0  0  0  0  0  0  0  0
    4.7403    5.7363   -0.9195 C   0  0  0  0  0  0  0  0  0  0  0  0
    5.3934    6.1961    0.2875 C   0  0  0  0  0  0  0  0  0  0  0  0
    4.7977    6.7251    1.4007 C   0  0  0  0  0  0  0  0  0  0  0  0
    5.7086    7.0376    2.4267 C   0  0  0  0  0  0  0  0  0  0  0  0
    6.9994    6.7326    2.1177 C   0  0  0  0  0  0  0  0  0  0  0  0
    8.2258    6.9405    2.9366 C   0  0  0  0  0  0  0  0  0  0  0  0
    9.0780    8.0839    2.3818 C   0  0  0  0  0  0  0  0  0  0  0  0
    7.1136    6.0677    0.5234 S   0  0  0  0  0  0  0  0  0  0  0  0
    5.2807    5.9238   -2.2110 C   0  0  0  0  0  0  0  0  0  0  0  0
    6.5294    6.4516   -2.6015 C   0  0  0  0  0  0  0  0  0  0  0  0
    6.7554    6.3884   -3.9543 C   0  0  0  0  0  0  0  0  0  0  0  0
    5.3327    5.8513   -4.8295 S   0  0  0  0  0  0  0  0  0  0  0  0
    4.5200    5.5100   -3.3331 C   0  0  0  0  0  0  0  0  0  0  0  0
    3.3154    4.8373   -3.2646 C   0  0  0  0  0  0  0  0  0  0  0  0
    2.6303    4.5221   -4.5131 C   0  0  0  0  0  0  0  0  0  0  0  0
    1.5424    5.1484   -5.0365 C   0  0  0  0  0  0  0  0  0  0  0  0
    1.2604    4.7464   -6.3598 C   0  0  0  0  0  0  0  0  0  0  0  0
    2.1300    3.8190   -6.8416 C   0  0  0  0  0  0  0  0  0  0  0  0
    2.1465    3.1828   -8.1906 C   0  0  0  0  0  0  0  0  0  0  0  0
    2.5809    1.7218   -8.1358 C   0  0  0  0  0  0  0  0  0  0  0  0
    3.3339    3.4186   -5.6599 S   0  0  0  0  0  0  0  0  0  0  0  0
    2.8610    4.4969   -1.9790 C   0  0  0  0  0  0  0  0  0  0  0  0
    7.9691    6.6669   -4.6318 C   0  0  0  0  0  0  0  0  0  0  0  0
    8.3775    6.1322   -5.8158 C   0  0  0  0  0  0  0  0  0  0  0  0
    9.4407    6.7967   -6.6110 C   0  0  0  0  0  0  0  0  0  0  0  0
   10.2025    7.6544   -6.2338 O   0  0  0  0  0  0  0  0  0  0  0  0
    9.3119    6.2190   -7.9710 C   0  0  0  0  0  0  0  0  0  0  0  0
    8.3436    5.1955   -7.9592 C   0  0  0  0  0  0  0  0  0  0  0  0
    8.0255    4.5198   -9.1256 C   0  0  0  0  0  0  0  0  0  0  0  0
    8.6810    4.8742  -10.2950 C   0  0  0  0  0  0  0  0  0  0  0  0
    9.6421    5.8742  -10.3032 C   0  0  0  0  0  0  0  0  0  0  0  0
   10.5075    6.3008  -11.9279 Br  0  0  0  0  0  0  0  0  0  0  0  0
    9.9776    6.5687   -9.1352 C   0  0  0  0  0  0  0  0  0  0  0  0
   11.1649    7.8012   -9.1439 Cl  0  0  0  0  0  0  0  0  0  0  0  0
    7.8635    5.0217   -6.5917 C   0  0  0  0  0  0  0  0  0  0  0  0
    7.2659    3.8888   -6.1036 C   0  0  0  0  0  0  0  0  0  0  0  0
    7.1379    3.6037   -4.7255 C   0  0  0  0  0  0  0  0  0  0  0  0
    7.0878    3.2874   -3.6231 N   0  0  0  0  0  0  0  0  0  0  0  0
    6.7662    2.8403   -6.8996 C   0  0  0  0  0  0  0  0  0  0  0  0
    6.3002    1.9717   -7.4889 N   0  0  0  0  0  0  0  0  0  0  0  0
   -6.9847   -5.2991    6.1524 H   0  0  0  0  0  0  0  0  0  0  0  0
   -8.6218   -9.4689    1.7776 H   0  0  0  0  0  0  0  0  0  0  0  0
   -9.6175  -11.7020    1.3814 H   0  0  0  0  0  0  0  0  0  0  0  0
  -10.7892  -13.7132    2.2444 H   0  0  0  0  0  0  0  0  0  0  0  0
  -10.8865  -12.0204    6.1602 H   0  0  0  0  0  0  0  0  0  0  0  0
   -9.9178   -9.8215    6.5783 H   0  0  0  0  0  0  0  0  0  0  0  0
   -6.5362   -5.1631    2.2610 H   0  0  0  0  0  0  0  0  0  0  0  0
   -5.4986   -2.1902   -1.2105 H   0  0  0  0  0  0  0  0  0  0  0  0
   -6.2119   -3.9101   -3.0118 H   0  0  0  0  0  0  0  0  0  0  0  0
   -6.7354   -7.3835   -1.7441 H   0  0  0  0  0  0  0  0  0  0  0  0
   -6.6760   -6.4630   -3.2566 H   0  0  0  0  0  0  0  0  0  0  0  0
   -4.2757   -7.7448   -1.8545 H   0  0  0  0  0  0  0  0  0  0  0  0
   -4.2003   -6.8252   -3.3599 H   0  0  0  0  0  0  0  0  0  0  0  0
   -5.0693   -8.3630   -3.3075 H   0  0  0  0  0  0  0  0  0  0  0  0
   -1.0311    0.4353   -1.8647 H   0  0  0  0  0  0  0  0  0  0  0  0
    0.3418    2.2663   -4.9650 H   0  0  0  0  0  0  0  0  0  0  0  0
   -1.5255    3.2945   -6.1400 H   0  0  0  0  0  0  0  0  0  0  0  0
   -3.5871    6.0187   -4.7747 H   0  0  0  0  0  0  0  0  0  0  0  0
   -3.1507    5.1251   -6.2383 H   0  0  0  0  0  0  0  0  0  0  0  0
   -4.4601    3.1623   -5.4270 H   0  0  0  0  0  0  0  0  0  0  0  0
   -5.4788    4.6017   -5.5429 H   0  0  0  0  0  0  0  0  0  0  0  0
   -4.8949    4.0521   -3.9681 H   0  0  0  0  0  0  0  0  0  0  0  0
   -2.6400    5.3736   -2.5889 H   0  0  0  0  0  0  0  0  0  0  0  0
   -0.8062    4.2923   -1.3843 H   0  0  0  0  0  0  0  0  0  0  0  0
    3.7487    2.2719   -2.4302 H   0  0  0  0  0  0  0  0  0  0  0  0
    5.0282    0.5926   -3.5917 H   0  0  0  0  0  0  0  0  0  0  0  0
    5.0679   -1.7119   -4.4885 H   0  0  0  0  0  0  0  0  0  0  0  0
    3.5815   -2.4694   -5.0792 H   0  0  0  0  0  0  0  0  0  0  0  0
    3.5607   -0.9214   -7.0263 H   0  0  0  0  0  0  0  0  0  0  0  0
    5.0213   -0.1319   -6.4306 H   0  0  0  0  0  0  0  0  0  0  0  0
    5.0814   -1.8155   -6.9582 H   0  0  0  0  0  0  0  0  0  0  0  0
    1.4280   -1.3289   -4.8267 H   0  0  0  0  0  0  0  0  0  0  0  0
    0.1241    0.3700   -3.6789 H   0  0  0  0  0  0  0  0  0  0  0  0
    0.7702    2.5383    2.3071 H   0  0  0  0  0  0  0  0  0  0  0  0
    0.8193    1.4422    4.2165 H   0  0  0  0  0  0  0  0  0  0  0  0
    2.6218    0.2883    5.3764 H   0  0  0  0  0  0  0  0  0  0  0  0
    3.3851   -3.2993    4.9940 H   0  0  0  0  0  0  0  0  0  0  0  0
    3.9899   -1.7461    5.5887 H   0  0  0  0  0  0  0  0  0  0  0  0
    2.3333   -1.8204    7.4553 H   0  0  0  0  0  0  0  0  0  0  0  0
    3.3842   -3.2404    7.4813 H   0  0  0  0  0  0  0  0  0  0  0  0
    1.7340   -3.3703    6.8642 H   0  0  0  0  0  0  0  0  0  0  0  0
    1.1918   -3.4465    3.9029 H   0  0  0  0  0  0  0  0  0  0  0  0
   -0.6259   -2.3052    2.7555 H   0  0  0  0  0  0  0  0  0  0  0  0
   -1.0731    1.0355    5.4140 H   0  0  0  0  0  0  0  0  0  0  0  0
   -2.3546    2.7458    6.5707 H   0  0  0  0  0  0  0  0  0  0  0  0
   -4.4797    5.2320    4.9591 H   0  0  0  0  0  0  0  0  0  0  0  0
   -3.8169    4.6632    6.4979 H   0  0  0  0  0  0  0  0  0  0  0  0
   -5.5303    2.8305    6.5347 H   0  0  0  0  0  0  0  0  0  0  0  0
   -6.1955    3.4309    5.0212 H   0  0  0  0  0  0  0  0  0  0  0  0
   -6.2870    4.4276    6.4778 H   0  0  0  0  0  0  0  0  0  0  0  0
   -4.3670    3.7223    2.9409 H   0  0  0  0  0  0  0  0  0  0  0  0
   -3.0398    2.0409    1.7580 H   0  0  0  0  0  0  0  0  0  0  0  0
   -1.3078   -2.1758    5.4484 H   0  0  0  0  0  0  0  0  0  0  0  0
   -1.4173   -0.9930    7.7560 H   0  0  0  0  0  0  0  0  0  0  0  0
   -4.1002    1.5804    8.1066 H   0  0  0  0  0  0  0  0  0  0  0  0
   -2.9038    0.6974    9.0692 H   0  0  0  0  0  0  0  0  0  0  0  0
   -5.1986    0.4081    9.9984 H   0  0  0  0  0  0  0  0  0  0  0  0
   -4.5688   -1.1390    9.4212 H   0  0  0  0  0  0  0  0  0  0  0  0
   -5.7482   -0.2538    8.4542 H   0  0  0  0  0  0  0  0  0  0  0  0
    3.7428    6.9213    1.4678 H   0  0  0  0  0  0  0  0  0  0  0  0
    5.4145    7.4691    3.3669 H   0  0  0  0  0  0  0  0  0  0  0  0
    8.8213    6.0240    2.9463 H   0  0  0  0  0  0  0  0  0  0  0  0
    7.9282    7.1667    3.9625 H   0  0  0  0  0  0  0  0  0  0  0  0
    8.5074    9.0099    2.3686 H   0  0  0  0  0  0  0  0  0  0  0  0
    9.3959    7.8583    1.3664 H   0  0  0  0  0  0  0  0  0  0  0  0
    9.9614    8.2283    2.9983 H   0  0  0  0  0  0  0  0  0  0  0  0
    7.2834    6.7910   -1.9151 H   0  0  0  0  0  0  0  0  0  0  0  0
    0.9651    5.8771   -4.4956 H   0  0  0  0  0  0  0  0  0  0  0  0
    0.4381    5.1397   -6.9304 H   0  0  0  0  0  0  0  0  0  0  0  0
    1.1468    3.2668   -8.6247 H   0  0  0  0  0  0  0  0  0  0  0  0
    2.8349    3.7346   -8.8398 H   0  0  0  0  0  0  0  0  0  0  0  0
    2.5198    1.2711   -9.1233 H   0  0  0  0  0  0  0  0  0  0  0  0
    3.6078    1.6487   -7.7851 H   0  0  0  0  0  0  0  0  0  0  0  0
    1.9427    1.1623   -7.4549 H   0  0  0  0  0  0  0  0  0  0  0  0
    8.6238    7.4098   -4.1885 H   0  0  0  0  0  0  0  0  0  0  0  0
    7.2797    3.7420   -9.1414 H   0  0  0  0  0  0  0  0  0  0  0  0
    8.4466    4.3671  -11.2183 H   0  0  0  0  0  0  0  0  0  0  0  0
  1  2  2  0  0  0  0
  2  3  1  0  0  0  0
  3  4  2  0  0  0  0
  3  5  1  0  0  0  0
  5  6  2  0  0  0  0
  6  7  1  0  0  0  0
  7  8  2  0  0  0  0
  8  9  1  0  0  0  0
  9 10  2  0  0  0  0
 10 11  1  0  0  0  0
 10 12  1  0  0  0  0
 12 13  2  0  0  0  0
 13 14  1  0  0  0  0
 14 15  2  0  0  0  0
 15 16  1  0  0  0  0
 16 17  2  0  0  0  0
 17 18  1  0  0  0  0
 18 19  3  0  0  0  0
 17 20  1  0  0  0  0
 20 21  3  0  0  0  0
  1 22  1  0  0  0  0
 22 23  2  0  0  0  0
 23 24  1  0  0  0  0
 24 25  2  0  0  0  0
 25 26  1  0  0  0  0
 26 27  2  0  0  0  0
 27 28  1  0  0  0  0
 28 29  2  0  0  0  0
 29 30  1  0  0  0  0
 30 31  1  0  0  0  0
 29 32  1  0  0  0  0
 25 33  1  0  0  0  0
 33 34  1  0  0  0  0
 34 35  1  0  0  0  0
 35 36  1  0  0  0  0
 36 37  2  0  0  0  0
 37 38  1  0  0  0  0
 38 39  1  0  0  0  0
 39 40  1  0  0  0  0
 40 41  2  0  0  0  0
 41 42  1  0  0  0  0
 42 43  2  0  0  0  0
 43 44  1  0  0  0  0
 44 45  1  0  0  0  0
 43 46  1  0  0  0  0
 46 47  2  0  0  0  0
 39 48  1  0  0  0  0
 48 49  2  0  0  0  0
 49 50  1  0  0  0  0
 50 51  2  0  0  0  0
 51 52  1  0  0  0  0
 52 53  1  0  0  0  0
 51 54  1  0  0  0  0
 54 55  2  0  0  0  0
 39 56  1  0  0  0  0
 56 57  2  0  0  0  0
 57 58  1  0  0  0  0
 58 59  1  0  0  0  0
 59 60  2  0  0  0  0
 60 61  1  0  0  0  0
 61 62  1  0  0  0  0
 62 63  2  0  0  0  0
 63 64  1  0  0  0  0
 64 65  2  0  0  0  0
 65 66  1  0  0  0  0
 66 67  1  0  0  0  0
 65 68  1  0  0  0  0
 68 69  2  0  0  0  0
 61 70  1  0  0  0  0
 70 71  2  0  0  0  0
 71 72  1  0  0  0  0
 72 73  2  0  0  0  0
 73 74  1  0  0  0  0
 74 75  1  0  0  0  0
 73 76  1  0  0  0  0
 76 77  2  0  0  0  0
 61 78  1  0  0  0  0
 78 79  1  0  0  0  0
 79 80  1  0  0  0  0
 80 81  2  0  0  0  0
 81 82  1  0  0  0  0
 80 83  1  0  0  0  0
 83 84  2  0  0  0  0
 84 85  1  0  0  0  0
 85 86  2  0  0  0  0
 86 87  1  0  0  0  0
 87 88  1  0  0  0  0
 86 89  1  0  0  0  0
 57 90  1  0  0  0  0
 90 91  1  0  0  0  0
 91 92  2  0  0  0  0
 92 93  1  0  0  0  0
 93 94  2  0  0  0  0
 94 95  1  0  0  0  0
 95 96  2  0  0  0  0
 96 97  1  0  0  0  0
 97 98  1  0  0  0  0
 96 99  1  0  0  0  0
 92100  1  0  0  0  0
100101  1  0  0  0  0
101102  2  0  0  0  0
102103  1  0  0  0  0
103104  1  0  0  0  0
104105  1  0  0  0  0
105106  1  0  0  0  0
106107  2  0  0  0  0
107108  1  0  0  0  0
108109  2  0  0  0  0
109110  1  0  0  0  0
110111  1  0  0  0  0
109112  1  0  0  0  0
105113  2  0  0  0  0
102114  1  0  0  0  0
114115  2  0  0  0  0
115116  1  0  0  0  0
116117  2  0  0  0  0
116118  1  0  0  0  0
118119  2  0  0  0  0
119120  1  0  0  0  0
120121  2  0  0  0  0
121122  1  0  0  0  0
122123  1  0  0  0  0
122124  2  0  0  0  0
124125  1  0  0  0  0
119126  1  0  0  0  0
126127  2  0  0  0  0
127128  1  0  0  0  0
128129  3  0  0  0  0
127130  1  0  0  0  0
130131  3  0  0  0  0
 16  2  1  0  0  0  0
 82 22  1  0  0  0  0
 89 83  1  0  0  0  0
113 91  1  0  0  0  0
126115  1  0  0  0  0
 15  5  1  0  0  0  0
 81 24  1  0  0  0  0
 99 93  1  0  0  0  0
104100  2  0  0  0  0
112106  1  0  0  0  0
124118  1  0  0  0  0
 13  7  1  0  0  0  0
 32 26  1  0  0  0  0
 79 33  2  0  0  0  0
 78 35  2  0  0  0  0
 60 36  1  0  0  0  0
 69 62  1  0  0  0  0
 77 70  1  0  0  0  0
 58 38  2  0  0  0  0
 47 40  1  0  0  0  0
 55 48  1  0  0  0  0
113 56  1  0  0  0  0
  1132  1  0  0  0  0
  6133  1  0  0  0  0
  8134  1  0  0  0  0
  9135  1  0  0  0  0
 12136  1  0  0  0  0
 14137  1  0  0  0  0
 23138  1  0  0  0  0
 27139  1  0  0  0  0
 28140  1  0  0  0  0
 30141  1  0  0  0  0
 30142  1  0  0  0  0
 31143  1  0  0  0  0
 31144  1  0  0  0  0
 31145  1  0  0  0  0
 37146  1  0  0  0  0
 41147  1  0  0  0  0
 42148  1  0  0  0  0
 44149  1  0  0  0  0
 44150  1  0  0  0  0
 45151  1  0  0  0  0
 45152  1  0  0  0  0
 45153  1  0  0  0  0
 46154  1  0  0  0  0
 47155  1  0  0  0  0
 49156  1  0  0  0  0
 50157  1  0  0  0  0
 52158  1  0  0  0  0
 52159  1  0  0  0  0
 53160  1  0  0  0  0
 53161  1  0  0  0  0
 53162  1  0  0  0  0
 54163  1  0  0  0  0
 55164  1  0  0  0  0
 59165  1  0  0  0  0
 63166  1  0  0  0  0
 64167  1  0  0  0  0
 66168  1  0  0  0  0
 66169  1  0  0  0  0
 67170  1  0  0  0  0
 67171  1  0  0  0  0
 67172  1  0  0  0  0
 68173  1  0  0  0  0
 69174  1  0  0  0  0
 71175  1  0  0  0  0
 72176  1  0  0  0  0
 74177  1  0  0  0  0
 74178  1  0  0  0  0
 75179  1  0  0  0  0
 75180  1  0  0  0  0
 75181  1  0  0  0  0
 76182  1  0  0  0  0
 77183  1  0  0  0  0
 84184  1  0  0  0  0
 85185  1  0  0  0  0
 87186  1  0  0  0  0
 87187  1  0  0  0  0
 88188  1  0  0  0  0
 88189  1  0  0  0  0
 88190  1  0  0  0  0
 94191  1  0  0  0  0
 95192  1  0  0  0  0
 97193  1  0  0  0  0
 97194  1  0  0  0  0
 98195  1  0  0  0  0
 98196  1  0  0  0  0
 98197  1  0  0  0  0
101198  1  0  0  0  0
107199  1  0  0  0  0
108200  1  0  0  0  0
110201  1  0  0  0  0
110202  1  0  0  0  0
111203  1  0  0  0  0
111204  1  0  0  0  0
111205  1  0  0  0  0
114206  1  0  0  0  0
120207  1  0  0  0  0
121208  1  0  0  0  0
M  END
