
  xtb     02012219333D
 energy: -196.607470824174 gnorm: 0.000737999736 xtb: 6.4.1 (unknown)
103115  0     0  0            999 V2000
   -4.2003   -2.6912    4.9551 C   0  0  0  0  0  0  0  0  0  0  0  0
   -3.8122   -1.9407    6.0400 C   0  0  0  0  0  0  0  0  0  0  0  0
   -2.8646   -0.8247    6.0217 C   0  0  0  0  0  0  0  0  0  0  0  0
   -2.2486   -0.3866    5.0633 O   0  0  0  0  0  0  0  0  0  0  0  0
   -2.7941   -0.3207    7.4025 C   0  0  0  0  0  0  0  0  0  0  0  0
   -2.0579    0.7155    7.8984 C   0  0  0  0  0  0  0  0  0  0  0  0
   -2.1459    1.0250    9.2740 C   0  0  0  0  0  0  0  0  0  0  0  0
   -1.4090    2.0844    9.8410 C   0  0  0  0  0  0  0  0  0  0  0  0
   -1.5027    2.3731   11.1742 C   0  0  0  0  0  0  0  0  0  0  0  0
   -2.3476    1.5961   11.9779 C   0  0  0  0  0  0  0  0  0  0  0  0
   -2.4265    1.8947   13.2874 F   0  0  0  0  0  0  0  0  0  0  0  0
   -3.0844    0.5579   11.4787 C   0  0  0  0  0  0  0  0  0  0  0  0
   -3.0002    0.2469   10.1078 C   0  0  0  0  0  0  0  0  0  0  0  0
   -3.7514   -0.8215    9.5630 C   0  0  0  0  0  0  0  0  0  0  0  0
   -3.6508   -1.1032    8.2271 C   0  0  0  0  0  0  0  0  0  0  0  0
   -4.2897   -2.1221    7.3958 C   0  0  0  0  0  0  0  0  0  0  0  0
   -5.1683   -3.0727    7.8530 C   0  0  0  0  0  0  0  0  0  0  0  0
   -5.7911   -4.0669    7.0717 C   0  0  0  0  0  0  0  0  0  0  0  0
   -6.3327   -4.9093    6.5072 N   0  0  0  0  0  0  0  0  0  0  0  0
   -5.5737   -3.1911    9.1987 C   0  0  0  0  0  0  0  0  0  0  0  0
   -5.9484   -3.3435   10.2733 N   0  0  0  0  0  0  0  0  0  0  0  0
   -3.8089   -2.6381    3.6148 C   0  0  0  0  0  0  0  0  0  0  0  0
   -4.3374   -3.4973    2.6329 C   0  0  0  0  0  0  0  0  0  0  0  0
   -5.4086   -4.5158    2.8476 C   0  0  0  0  0  0  0  0  0  0  0  0
   -6.7948   -3.8672    2.7957 C   0  0  0  0  0  0  0  0  0  0  0  0
   -3.7732   -3.2495    1.3898 C   0  0  0  0  0  0  0  0  0  0  0  0
   -4.0207   -3.9755   -0.1881 S   0  0  0  0  0  0  0  0  0  0  0  0
   -2.8226   -2.9089   -0.8347 C   0  0  0  0  0  0  0  0  0  0  0  0
   -2.2156   -2.6150   -2.0655 C   0  0  0  0  0  0  0  0  0  0  0  0
   -2.4641   -3.0371   -3.3931 C   0  0  0  0  0  0  0  0  0  0  0  0
   -1.7495   -2.4115   -4.4748 C   0  0  0  0  0  0  0  0  0  0  0  0
   -2.1451   -2.8501   -5.6585 N   0  0  0  0  0  0  0  0  0  0  0  0
   -3.3050   -3.9575   -5.4389 S   0  0  0  0  0  0  0  0  0  0  0  0
   -3.3517   -3.9193   -3.8222 N   0  0  0  0  0  0  0  0  0  0  0  0
   -0.7044   -1.5045   -4.1785 C   0  0  0  0  0  0  0  0  0  0  0  0
    0.2607   -0.8622   -4.9684 C   0  0  0  0  0  0  0  0  0  0  0  0
    0.6552   -0.6558   -6.6391 S   0  0  0  0  0  0  0  0  0  0  0  0
    2.0550    0.2878   -6.1617 C   0  0  0  0  0  0  0  0  0  0  0  0
    3.0548    0.9109   -6.8915 C   0  0  0  0  0  0  0  0  0  0  0  0
    3.0785    0.9283   -8.3845 C   0  0  0  0  0  0  0  0  0  0  0  0
    2.4534    2.2189   -8.9223 C   0  0  0  0  0  0  0  0  0  0  0  0
    3.9823    1.5529   -6.0459 C   0  0  0  0  0  0  0  0  0  0  0  0
    3.5710    1.3607   -4.3381 S   0  0  0  0  0  0  0  0  0  0  0  0
    2.1909    0.4252   -4.7670 C   0  0  0  0  0  0  0  0  0  0  0  0
    1.1596   -0.2300   -4.0939 C   0  0  0  0  0  0  0  0  0  0  0  0
    0.7732   -0.4377   -2.7927 N   0  0  0  0  0  0  0  0  0  0  0  0
   -0.3856   -1.1855   -2.8298 C   0  0  0  0  0  0  0  0  0  0  0  0
   -1.2510   -1.6052   -1.7977 C   0  0  0  0  0  0  0  0  0  0  0  0
   -1.3199   -1.2409   -0.4685 N   0  0  0  0  0  0  0  0  0  0  0  0
   -2.2668   -2.0421    0.1192 C   0  0  0  0  0  0  0  0  0  0  0  0
   -2.8097   -2.2253    1.3923 C   0  0  0  0  0  0  0  0  0  0  0  0
   -2.6017   -1.5311    2.9547 S   0  0  0  0  0  0  0  0  0  0  0  0
   -1.0092    0.0595    0.0925 C   0  0  0  0  0  0  0  0  0  0  0  0
   -2.2641    0.9235    0.2101 C   0  0  0  0  0  0  0  0  0  0  0  0
    1.7521   -0.4076   -1.7233 C   0  0  0  0  0  0  0  0  0  0  0  0
    2.8863   -1.3979   -1.9848 C   0  0  0  0  0  0  0  0  0  0  0  0
    5.0979    2.2357   -6.5294 C   0  0  0  0  0  0  0  0  0  0  0  0
    6.0967    2.9208   -5.8730 C   0  0  0  0  0  0  0  0  0  0  0  0
    6.1963    3.1290   -4.4298 C   0  0  0  0  0  0  0  0  0  0  0  0
    5.4492    2.7215   -3.5575 O   0  0  0  0  0  0  0  0  0  0  0  0
    7.4081    3.9492   -4.2191 C   0  0  0  0  0  0  0  0  0  0  0  0
    7.9274    4.4233   -3.0315 C   0  0  0  0  0  0  0  0  0  0  0  0
    9.0869    5.1795   -3.0945 C   0  0  0  0  0  0  0  0  0  0  0  0
    9.6259    5.6611   -1.9673 F   0  0  0  0  0  0  0  0  0  0  0  0
    9.6965    5.4436   -4.3206 C   0  0  0  0  0  0  0  0  0  0  0  0
   10.8147    6.1774   -4.3527 F   0  0  0  0  0  0  0  0  0  0  0  0
    9.1737    4.9654   -5.5137 C   0  0  0  0  0  0  0  0  0  0  0  0
    8.0142    4.2087   -5.4596 C   0  0  0  0  0  0  0  0  0  0  0  0
    7.2216    3.5695   -6.5127 C   0  0  0  0  0  0  0  0  0  0  0  0
    7.5316    3.5887   -7.8491 C   0  0  0  0  0  0  0  0  0  0  0  0
    8.6616    4.2388   -8.3889 C   0  0  0  0  0  0  0  0  0  0  0  0
    9.5621    4.7432   -8.8909 N   0  0  0  0  0  0  0  0  0  0  0  0
    6.7913    2.9694   -8.8774 C   0  0  0  0  0  0  0  0  0  0  0  0
    6.2474    2.4926   -9.7705 N   0  0  0  0  0  0  0  0  0  0  0  0
   -4.9347   -3.4596    5.1537 H   0  0  0  0  0  0  0  0  0  0  0  0
   -1.4162    1.2926    7.2495 H   0  0  0  0  0  0  0  0  0  0  0  0
   -0.7647    2.6686    9.2012 H   0  0  0  0  0  0  0  0  0  0  0  0
   -0.9460    3.1799   11.6238 H   0  0  0  0  0  0  0  0  0  0  0  0
   -3.7246   -0.0191   12.1275 H   0  0  0  0  0  0  0  0  0  0  0  0
   -4.3884   -1.3883   10.2224 H   0  0  0  0  0  0  0  0  0  0  0  0
   -5.3344   -5.2608    2.0528 H   0  0  0  0  0  0  0  0  0  0  0  0
   -5.2829   -5.0240    3.8047 H   0  0  0  0  0  0  0  0  0  0  0  0
   -6.9539   -3.3906    1.8311 H   0  0  0  0  0  0  0  0  0  0  0  0
   -7.5599   -4.6241    2.9421 H   0  0  0  0  0  0  0  0  0  0  0  0
   -6.8989   -3.1169    3.5759 H   0  0  0  0  0  0  0  0  0  0  0  0
    4.0970    0.8341   -8.7637 H   0  0  0  0  0  0  0  0  0  0  0  0
    2.4993    0.0758   -8.7446 H   0  0  0  0  0  0  0  0  0  0  0  0
    3.0071    3.0889   -8.5773 H   0  0  0  0  0  0  0  0  0  0  0  0
    2.4688    2.2093  -10.0082 H   0  0  0  0  0  0  0  0  0  0  0  0
    1.4225    2.3080   -8.5876 H   0  0  0  0  0  0  0  0  0  0  0  0
   -0.5664   -0.0840    1.0828 H   0  0  0  0  0  0  0  0  0  0  0  0
   -0.3019    0.5702   -0.5580 H   0  0  0  0  0  0  0  0  0  0  0  0
   -2.7384    1.0341   -0.7629 H   0  0  0  0  0  0  0  0  0  0  0  0
   -2.9771    0.4844    0.9017 H   0  0  0  0  0  0  0  0  0  0  0  0
   -1.9901    1.9074    0.5797 H   0  0  0  0  0  0  0  0  0  0  0  0
    2.1570    0.6062   -1.6480 H   0  0  0  0  0  0  0  0  0  0  0  0
    1.2680   -0.6823   -0.7883 H   0  0  0  0  0  0  0  0  0  0  0  0
    3.4443   -1.1276   -2.8764 H   0  0  0  0  0  0  0  0  0  0  0  0
    3.5685   -1.3944   -1.1396 H   0  0  0  0  0  0  0  0  0  0  0  0
    2.4881   -2.4028   -2.1094 H   0  0  0  0  0  0  0  0  0  0  0  0
    5.1773    2.2129   -7.6074 H   0  0  0  0  0  0  0  0  0  0  0  0
    7.4524    4.2163   -2.0859 H   0  0  0  0  0  0  0  0  0  0  0  0
    9.6844    5.1990   -6.4332 H   0  0  0  0  0  0  0  0  0  0  0  0
  1  2  2  0  0  0  0
  2  3  1  0  0  0  0
  3  4  2  0  0  0  0
  3  5  1  0  0  0  0
  5  6  2  0  0  0  0
  6  7  1  0  0  0  0
  7  8  2  0  0  0  0
  8  9  1  0  0  0  0
  9 10  2  0  0  0  0
 10 11  1  0  0  0  0
 10 12  1  0  0  0  0
 12 13  2  0  0  0  0
 13 14  1  0  0  0  0
 14 15  2  0  0  0  0
 15 16  1  0  0  0  0
 16 17  2  0  0  0  0
 17 18  1  0  0  0  0
 18 19  3  0  0  0  0
 17 20  1  0  0  0  0
 20 21  3  0  0  0  0
  1 22  1  0  0  0  0
 22 23  2  0  0  0  0
 23 24  1  0  0  0  0
 24 25  1  0  0  0  0
 23 26  1  0  0  0  0
 26 27  1  0  0  0  0
 27 28  1  0  0  0  0
 28 29  1  0  0  0  0
 29 30  1  0  0  0  0
 30 31  1  0  0  0  0
 31 32  2  0  0  0  0
 32 33  1  0  0  0  0
 33 34  1  0  0  0  0
 31 35  1  0  0  0  0
 35 36  1  0  0  0  0
 36 37  1  0  0  0  0
 37 38  1  0  0  0  0
 38 39  1  0  0  0  0
 39 40  1  0  0  0  0
 40 41  1  0  0  0  0
 39 42  2  0  0  0  0
 42 43  1  0  0  0  0
 43 44  1  0  0  0  0
 44 45  1  0  0  0  0
 45 46  1  0  0  0  0
 46 47  1  0  0  0  0
 47 48  1  0  0  0  0
 48 49  1  0  0  0  0
 49 50  1  0  0  0  0
 50 51  1  0  0  0  0
 51 52  1  0  0  0  0
 49 53  1  0  0  0  0
 53 54  1  0  0  0  0
 46 55  1  0  0  0  0
 55 56  1  0  0  0  0
 42 57  1  0  0  0  0
 57 58  2  0  0  0  0
 58 59  1  0  0  0  0
 59 60  2  0  0  0  0
 59 61  1  0  0  0  0
 61 62  2  0  0  0  0
 62 63  1  0  0  0  0
 63 64  1  0  0  0  0
 63 65  2  0  0  0  0
 65 66  1  0  0  0  0
 65 67  1  0  0  0  0
 67 68  2  0  0  0  0
 68 69  1  0  0  0  0
 69 70  2  0  0  0  0
 70 71  1  0  0  0  0
 71 72  3  0  0  0  0
 70 73  1  0  0  0  0
 73 74  3  0  0  0  0
 16  2  1  0  0  0  0
 52 22  1  0  0  0  0
 69 58  1  0  0  0  0
 15  5  1  0  0  0  0
 51 26  2  0  0  0  0
 68 61  1  0  0  0  0
 13  7  1  0  0  0  0
 50 28  2  0  0  0  0
 48 29  2  0  0  0  0
 34 30  2  0  0  0  0
 47 35  2  0  0  0  0
 45 36  2  0  0  0  0
 44 38  2  0  0  0  0
  1 75  1  0  0  0  0
  6 76  1  0  0  0  0
  8 77  1  0  0  0  0
  9 78  1  0  0  0  0
 12 79  1  0  0  0  0
 14 80  1  0  0  0  0
 24 81  1  0  0  0  0
 24 82  1  0  0  0  0
 25 83  1  0  0  0  0
 25 84  1  0  0  0  0
 25 85  1  0  0  0  0
 40 86  1  0  0  0  0
 40 87  1  0  0  0  0
 41 88  1  0  0  0  0
 41 89  1  0  0  0  0
 41 90  1  0  0  0  0
 53 91  1  0  0  0  0
 53 92  1  0  0  0  0
 54 93  1  0  0  0  0
 54 94  1  0  0  0  0
 54 95  1  0  0  0  0
 55 96  1  0  0  0  0
 55 97  1  0  0  0  0
 56 98  1  0  0  0  0
 56 99  1  0  0  0  0
 56100  1  0  0  0  0
 57101  1  0  0  0  0
 62102  1  0  0  0  0
 67103  1  0  0  0  0
M  END
