
  xtb     02012221013D
 energy: -195.778955358566 gnorm: 0.000608248793 xtb: 6.4.1 (unknown)
103115  0     0  0            999 V2000
   -1.9863   -6.9035    1.5091 C   0  0  0  0  0  0  0  0  0  0  0  0
   -3.2832   -6.6245    1.8267 C   0  0  0  0  0  0  0  0  0  0  0  0
   -4.3524   -7.5974    1.4835 C   0  0  0  0  0  0  0  0  0  0  0  0
   -4.2038   -8.7502    1.1450 O   0  0  0  0  0  0  0  0  0  0  0  0
   -5.6131   -6.8337    1.5814 C   0  0  0  0  0  0  0  0  0  0  0  0
   -6.8814   -7.2214    1.2599 C   0  0  0  0  0  0  0  0  0  0  0  0
   -7.9430   -6.3004    1.4093 C   0  0  0  0  0  0  0  0  0  0  0  0
   -9.2715   -6.6511    1.0933 C   0  0  0  0  0  0  0  0  0  0  0  0
  -10.2909   -5.7510    1.2344 C   0  0  0  0  0  0  0  0  0  0  0  0
   -9.9976   -4.4627    1.7015 C   0  0  0  0  0  0  0  0  0  0  0  0
  -11.0131   -3.5892    1.8320 F   0  0  0  0  0  0  0  0  0  0  0  0
   -8.7282   -4.0710    2.0237 C   0  0  0  0  0  0  0  0  0  0  0  0
   -7.6665   -4.9861    1.8868 C   0  0  0  0  0  0  0  0  0  0  0  0
   -6.3436   -4.6146    2.2225 C   0  0  0  0  0  0  0  0  0  0  0  0
   -5.3347   -5.5268    2.0771 C   0  0  0  0  0  0  0  0  0  0  0  0
   -3.9090   -5.4451    2.3790 C   0  0  0  0  0  0  0  0  0  0  0  0
   -3.3359   -4.5653    3.2621 C   0  0  0  0  0  0  0  0  0  0  0  0
   -2.0316   -4.7266    3.7729 C   0  0  0  0  0  0  0  0  0  0  0  0
   -0.9936   -4.8572    4.2466 N   0  0  0  0  0  0  0  0  0  0  0  0
   -4.0032   -3.4539    3.8105 C   0  0  0  0  0  0  0  0  0  0  0  0
   -4.4864   -2.5124    4.2565 N   0  0  0  0  0  0  0  0  0  0  0  0
   -0.9086   -6.0108    1.3332 C   0  0  0  0  0  0  0  0  0  0  0  0
    0.4439   -6.3311    1.3154 C   0  0  0  0  0  0  0  0  0  0  0  0
    1.0090   -7.6966    1.5267 C   0  0  0  0  0  0  0  0  0  0  0  0
    1.1718   -8.4208    0.1874 C   0  0  0  0  0  0  0  0  0  0  0  0
    1.2332   -5.2031    1.0748 C   0  0  0  0  0  0  0  0  0  0  0  0
    2.9650   -4.9715    1.0004 S   0  0  0  0  0  0  0  0  0  0  0  0
    2.7007   -3.2854    0.7318 C   0  0  0  0  0  0  0  0  0  0  0  0
    3.4418   -2.1056    0.5908 C   0  0  0  0  0  0  0  0  0  0  0  0
    4.8346   -1.8860    0.6707 C   0  0  0  0  0  0  0  0  0  0  0  0
    5.3245   -0.5421    0.6199 C   0  0  0  0  0  0  0  0  0  0  0  0
    6.6395   -0.4767    0.7574 N   0  0  0  0  0  0  0  0  0  0  0  0
    7.2113   -1.9804    0.9321 S   0  0  0  0  0  0  0  0  0  0  0  0
    5.8032   -2.7726    0.8394 N   0  0  0  0  0  0  0  0  0  0  0  0
    4.4071    0.5080    0.3954 C   0  0  0  0  0  0  0  0  0  0  0  0
    4.6215    1.8783    0.2132 C   0  0  0  0  0  0  0  0  0  0  0  0
    5.9281    3.0100    0.2294 S   0  0  0  0  0  0  0  0  0  0  0  0
    4.7878    4.2789   -0.1798 C   0  0  0  0  0  0  0  0  0  0  0  0
    4.9442    5.6414   -0.3823 C   0  0  0  0  0  0  0  0  0  0  0  0
    6.2707    6.3236   -0.3127 C   0  0  0  0  0  0  0  0  0  0  0  0
    6.8891    6.4597   -1.7071 C   0  0  0  0  0  0  0  0  0  0  0  0
    3.7187    6.2563   -0.7060 C   0  0  0  0  0  0  0  0  0  0  0  0
    2.3843    5.0994   -0.7404 S   0  0  0  0  0  0  0  0  0  0  0  0
    3.4634    3.8235   -0.3229 C   0  0  0  0  0  0  0  0  0  0  0  0
    3.3782    2.4491   -0.0879 C   0  0  0  0  0  0  0  0  0  0  0  0
    2.4053    1.4865   -0.0683 N   0  0  0  0  0  0  0  0  0  0  0  0
    3.0059    0.2780    0.2363 C   0  0  0  0  0  0  0  0  0  0  0  0
    2.5078   -1.0389    0.4303 C   0  0  0  0  0  0  0  0  0  0  0  0
    1.2298   -1.5730    0.4929 N   0  0  0  0  0  0  0  0  0  0  0  0
    1.3493   -2.9224    0.6855 C   0  0  0  0  0  0  0  0  0  0  0  0
    0.5080   -4.0191    0.8826 C   0  0  0  0  0  0  0  0  0  0  0  0
   -1.1878   -4.3018    0.9905 S   0  0  0  0  0  0  0  0  0  0  0  0
   -0.0445   -0.9409    0.7575 C   0  0  0  0  0  0  0  0  0  0  0  0
   -0.0433   -0.2210    2.1034 C   0  0  0  0  0  0  0  0  0  0  0  0
    1.1088    1.7798   -0.6373 C   0  0  0  0  0  0  0  0  0  0  0  0
    0.9186    1.0817   -1.9817 C   0  0  0  0  0  0  0  0  0  0  0  0
    3.6000    7.6233   -0.9556 C   0  0  0  0  0  0  0  0  0  0  0  0
    2.5079    8.3901   -1.2968 C   0  0  0  0  0  0  0  0  0  0  0  0
    1.1434    7.9069   -1.4989 C   0  0  0  0  0  0  0  0  0  0  0  0
    0.7270    6.7655   -1.3996 O   0  0  0  0  0  0  0  0  0  0  0  0
    0.3397    9.0943   -1.8557 C   0  0  0  0  0  0  0  0  0  0  0  0
   -1.0066    9.1670   -2.1434 C   0  0  0  0  0  0  0  0  0  0  0  0
   -1.5502   10.4092   -2.4520 C   0  0  0  0  0  0  0  0  0  0  0  0
   -3.2243   10.5416   -2.8145 Cl  0  0  0  0  0  0  0  0  0  0  0  0
   -0.7313   11.5407   -2.4636 C   0  0  0  0  0  0  0  0  0  0  0  0
   -1.4706   13.2303   -2.8837 Br  0  0  0  0  0  0  0  0  0  0  0  0
    0.6261   11.4653   -2.1732 C   0  0  0  0  0  0  0  0  0  0  0  0
    1.1687   10.2292   -1.8654 C   0  0  0  0  0  0  0  0  0  0  0  0
    2.5308    9.8210   -1.5189 C   0  0  0  0  0  0  0  0  0  0  0  0
    3.6055   10.6691   -1.4268 C   0  0  0  0  0  0  0  0  0  0  0  0
    4.9245   10.2987   -1.0925 C   0  0  0  0  0  0  0  0  0  0  0  0
    6.0214   10.0791   -0.8294 N   0  0  0  0  0  0  0  0  0  0  0  0
    3.5352   12.0592   -1.6584 C   0  0  0  0  0  0  0  0  0  0  0  0
    3.5445   13.1935   -1.8343 N   0  0  0  0  0  0  0  0  0  0  0  0
   -1.7851   -7.9444    1.2769 H   0  0  0  0  0  0  0  0  0  0  0  0
   -7.0747   -8.2194    0.8959 H   0  0  0  0  0  0  0  0  0  0  0  0
   -9.4727   -7.6495    0.7350 H   0  0  0  0  0  0  0  0  0  0  0  0
  -11.3121   -6.0035    0.9971 H   0  0  0  0  0  0  0  0  0  0  0  0
   -8.5397   -3.0720    2.3847 H   0  0  0  0  0  0  0  0  0  0  0  0
   -6.1586   -3.6130    2.5778 H   0  0  0  0  0  0  0  0  0  0  0  0
    0.3636   -8.2751    2.1875 H   0  0  0  0  0  0  0  0  0  0  0  0
    1.9871   -7.5959    2.0007 H   0  0  0  0  0  0  0  0  0  0  0  0
    1.5996   -9.4064    0.3487 H   0  0  0  0  0  0  0  0  0  0  0  0
    0.2103   -8.5366   -0.3075 H   0  0  0  0  0  0  0  0  0  0  0  0
    1.8329   -7.8588   -0.4681 H   0  0  0  0  0  0  0  0  0  0  0  0
    6.9315    5.7191    0.3116 H   0  0  0  0  0  0  0  0  0  0  0  0
    6.1811    7.3116    0.1411 H   0  0  0  0  0  0  0  0  0  0  0  0
    7.8607    6.9389   -1.6317 H   0  0  0  0  0  0  0  0  0  0  0  0
    6.2565    7.0642   -2.3527 H   0  0  0  0  0  0  0  0  0  0  0  0
    7.0159    5.4802   -2.1620 H   0  0  0  0  0  0  0  0  0  0  0  0
   -0.7876   -1.7417    0.7815 H   0  0  0  0  0  0  0  0  0  0  0  0
   -0.3210   -0.2749   -0.0587 H   0  0  0  0  0  0  0  0  0  0  0  0
   -1.0096    0.2453    2.2745 H   0  0  0  0  0  0  0  0  0  0  0  0
    0.7302    0.5427    2.1424 H   0  0  0  0  0  0  0  0  0  0  0  0
    0.1408   -0.9334    2.9045 H   0  0  0  0  0  0  0  0  0  0  0  0
    0.3157    1.5291    0.0670 H   0  0  0  0  0  0  0  0  0  0  0  0
    1.0728    2.8615   -0.7875 H   0  0  0  0  0  0  0  0  0  0  0  0
   -0.0702    1.3004   -2.3751 H   0  0  0  0  0  0  0  0  0  0  0  0
    1.6593    1.4400   -2.6927 H   0  0  0  0  0  0  0  0  0  0  0  0
    1.0322    0.0038   -1.8891 H   0  0  0  0  0  0  0  0  0  0  0  0
    4.5357    8.1567   -0.8611 H   0  0  0  0  0  0  0  0  0  0  0  0
   -1.6213    8.2810   -2.1283 H   0  0  0  0  0  0  0  0  0  0  0  0
    1.2192   12.3651   -2.1942 H   0  0  0  0  0  0  0  0  0  0  0  0
  1  2  2  0  0  0  0
  2  3  1  0  0  0  0
  3  4  2  0  0  0  0
  3  5  1  0  0  0  0
  5  6  2  0  0  0  0
  6  7  1  0  0  0  0
  7  8  2  0  0  0  0
  8  9  1  0  0  0  0
  9 10  2  0  0  0  0
 10 11  1  0  0  0  0
 10 12  1  0  0  0  0
 12 13  2  0  0  0  0
 13 14  1  0  0  0  0
 14 15  2  0  0  0  0
 15 16  1  0  0  0  0
 16 17  2  0  0  0  0
 17 18  1  0  0  0  0
 18 19  3  0  0  0  0
 17 20  1  0  0  0  0
 20 21  3  0  0  0  0
  1 22  1  0  0  0  0
 22 23  2  0  0  0  0
 23 24  1  0  0  0  0
 24 25  1  0  0  0  0
 23 26  1  0  0  0  0
 26 27  1  0  0  0  0
 27 28  1  0  0  0  0
 28 29  1  0  0  0  0
 29 30  1  0  0  0  0
 30 31  1  0  0  0  0
 31 32  2  0  0  0  0
 32 33  1  0  0  0  0
 33 34  1  0  0  0  0
 31 35  1  0  0  0  0
 35 36  1  0  0  0  0
 36 37  1  0  0  0  0
 37 38  1  0  0  0  0
 38 39  1  0  0  0  0
 39 40  1  0  0  0  0
 40 41  1  0  0  0  0
 39 42  2  0  0  0  0
 42 43  1  0  0  0  0
 43 44  1  0  0  0  0
 44 45  1  0  0  0  0
 45 46  1  0  0  0  0
 46 47  1  0  0  0  0
 47 48  1  0  0  0  0
 48 49  1  0  0  0  0
 49 50  1  0  0  0  0
 50 51  1  0  0  0  0
 51 52  1  0  0  0  0
 49 53  1  0  0  0  0
 53 54  1  0  0  0  0
 46 55  1  0  0  0  0
 55 56  1  0  0  0  0
 42 57  1  0  0  0  0
 57 58  2  0  0  0  0
 58 59  1  0  0  0  0
 59 60  2  0  0  0  0
 59 61  1  0  0  0  0
 61 62  2  0  0  0  0
 62 63  1  0  0  0  0
 63 64  1  0  0  0  0
 63 65  2  0  0  0  0
 65 66  1  0  0  0  0
 65 67  1  0  0  0  0
 67 68  2  0  0  0  0
 68 69  1  0  0  0  0
 69 70  2  0  0  0  0
 70 71  1  0  0  0  0
 71 72  3  0  0  0  0
 70 73  1  0  0  0  0
 73 74  3  0  0  0  0
 16  2  1  0  0  0  0
 52 22  1  0  0  0  0
 69 58  1  0  0  0  0
 15  5  1  0  0  0  0
 51 26  2  0  0  0  0
 68 61  1  0  0  0  0
 13  7  1  0  0  0  0
 50 28  2  0  0  0  0
 48 29  2  0  0  0  0
 34 30  2  0  0  0  0
 47 35  2  0  0  0  0
 45 36  2  0  0  0  0
 44 38  2  0  0  0  0
  1 75  1  0  0  0  0
  6 76  1  0  0  0  0
  8 77  1  0  0  0  0
  9 78  1  0  0  0  0
 12 79  1  0  0  0  0
 14 80  1  0  0  0  0
 24 81  1  0  0  0  0
 24 82  1  0  0  0  0
 25 83  1  0  0  0  0
 25 84  1  0  0  0  0
 25 85  1  0  0  0  0
 40 86  1  0  0  0  0
 40 87  1  0  0  0  0
 41 88  1  0  0  0  0
 41 89  1  0  0  0  0
 41 90  1  0  0  0  0
 53 91  1  0  0  0  0
 53 92  1  0  0  0  0
 54 93  1  0  0  0  0
 54 94  1  0  0  0  0
 54 95  1  0  0  0  0
 55 96  1  0  0  0  0
 55 97  1  0  0  0  0
 56 98  1  0  0  0  0
 56 99  1  0  0  0  0
 56100  1  0  0  0  0
 57101  1  0  0  0  0
 62102  1  0  0  0  0
 67103  1  0  0  0  0
M  END
