103

C          1.61900        2.03760       -6.71610
C          2.98340        2.11570       -6.56260
C          3.73220        1.82000       -5.33970
O          3.28970        1.42230       -4.27370
C          5.14390        2.10800       -5.64060
C          6.23120        2.01130       -4.82170
C          7.50480        2.35750       -5.32590
C          8.66180        2.28310       -4.52410
C          9.88790        2.62500       -5.02340
C          9.98250        3.05300       -6.35430
F         11.19720        3.38530       -6.82780
C          8.89240        3.14280       -7.17490
C          7.62170        2.79590       -6.67660
C          6.47530        2.88310       -7.50150
C          5.25100        2.54470       -6.99120
C          3.91560        2.54320       -7.58590
C          3.63340        2.88460       -8.88520
C          4.60450        3.28920       -9.82460
N          5.33950        3.62720      -10.63950
C          2.35690        2.88120       -9.48300
N          1.35300        2.90440      -10.04280
C          0.61450        1.66020       -5.82150
C         -0.75170        1.67170       -6.15870
C         -1.32270        2.01180       -7.49590
C         -1.29870        0.78990       -8.41870
C         -1.53790        1.25750       -5.09330
S         -3.27320        1.07540       -4.91350
C         -3.01510        0.55140       -3.28660
C         -3.75730        0.07280       -2.20010
C         -5.12910       -0.24130       -2.07760
C         -5.58860       -0.87790       -0.87810
N         -6.87830       -1.17270       -0.92390
S         -7.46510       -0.68690       -2.35170
N         -6.09610       -0.08230       -2.96740
C         -4.68150       -1.05620        0.19020
C         -4.87850       -1.52780        1.49540
S         -6.13510       -2.21500        2.46030
C         -5.03070       -2.26590        3.81490
C         -5.17530       -2.71530        5.12910
C         -6.45220       -3.26950        5.66810
C         -7.37200       -2.13770        6.13490
C         -3.99130       -2.57930        5.84680
S         -2.71000       -1.84750        4.87520
C         -3.75710       -1.76330        3.50970
C         -3.66940       -1.34950        2.18000
N         -2.72330       -0.82050        1.34010
C         -3.32090       -0.64290        0.10100
C         -2.82720       -0.19300       -1.15050
N         -1.55580        0.07010       -1.61880
C         -1.66690        0.52760       -2.90490
C         -0.81120        0.92410       -3.93610
S          0.88530        1.12710       -4.16080
C         -0.26830       -0.36920       -1.12700
C          0.59940        0.79280       -0.64690
C         -1.60920       -0.10380        1.92430
C         -1.94220        1.37770        2.08770
C         -3.79810       -2.87450        7.21060
C         -2.62990       -3.03900        7.89800
C         -2.60680       -2.85050        9.36830
O         -3.55760       -2.76840       10.11140
C         -1.17040       -2.72520        9.71410
C         -0.60040       -2.43020       10.93490
C          0.78490       -2.34660       10.98740
Br         1.62760       -1.94010       12.64150
C          1.57280       -2.54870        9.86180
C          0.99190       -2.85550        8.64040
C         -0.38920       -2.94610        8.56470
C         -1.27740       -3.29140        7.45730
C         -0.91150       -3.99470        6.33800
C          0.42260       -4.25950        5.97540
N          1.49350       -4.47110        5.61930
C         -1.84860       -4.60430        5.47780
N         -2.58590       -5.16080        4.79610
H          1.23840        2.32220       -7.68740
H          6.12140        1.67720       -3.80080
H          8.56380        1.95030       -3.50160
H         10.78260        2.57490       -4.42320
H          9.00240        3.47670       -8.19480
H          6.59980        3.22020       -8.51770
H         -2.35730        2.33020       -7.35350
H         -0.77450        2.82970       -7.96500
H         -0.27780        0.45680       -8.58920
H         -1.74130        1.04440       -9.37720
H         -1.86380       -0.02800       -7.97760
H         -6.94870       -3.82830        4.87250
H         -6.25110       -3.95190        6.49350
H         -8.30150       -2.55010        6.51770
H         -7.60310       -1.47190        5.30680
H         -6.89840       -1.55830        6.92430
H          0.24820       -0.86270       -1.95760
H         -0.42730       -1.11920       -0.35100
H          0.89160        1.41070       -1.49130
H          0.07270        1.41850        0.06830
H          1.50280        0.40660       -0.18340
H         -1.42720       -0.55280        2.90400
H         -0.70730       -0.22460        1.33240
H         -2.15280        1.83110        1.12110
H         -2.81770        1.50070        2.72140
H         -1.10620        1.89750        2.54750
H         -4.69310       -2.88540        7.82460
H         -1.21380       -2.27450       11.80880
H          2.64600       -2.46790        9.94100
H          1.61560       -3.00720        7.77420
