
  xtb     02012220533D
 energy: -192.388686884512 gnorm: 0.000679460618 xtb: 6.4.1 (unknown)
103115  0     0  0            999 V2000
   -1.6520    0.2662   -6.6379 C   0  0  0  0  0  0  0  0  0  0  0  0
   -1.1492    1.5022   -6.9722 C   0  0  0  0  0  0  0  0  0  0  0  0
   -0.4766    2.4331   -6.0647 C   0  0  0  0  0  0  0  0  0  0  0  0
   -0.2299    2.2711   -4.8799 O   0  0  0  0  0  0  0  0  0  0  0  0
   -0.1574    3.6285   -6.8618 C   0  0  0  0  0  0  0  0  0  0  0  0
    0.4614    4.7793   -6.4688 C   0  0  0  0  0  0  0  0  0  0  0  0
    0.6608    5.8103   -7.4140 C   0  0  0  0  0  0  0  0  0  0  0  0
    1.2927    7.0207   -7.0643 C   0  0  0  0  0  0  0  0  0  0  0  0
    1.4772    8.0115   -7.9885 C   0  0  0  0  0  0  0  0  0  0  0  0
    1.0268    7.8077   -9.2996 C   0  0  0  0  0  0  0  0  0  0  0  0
    1.2166    8.7941  -10.1949 F   0  0  0  0  0  0  0  0  0  0  0  0
    0.4087    6.6526   -9.6914 C   0  0  0  0  0  0  0  0  0  0  0  0
    0.2105    5.6219   -8.7526 C   0  0  0  0  0  0  0  0  0  0  0  0
   -0.4268    4.4159   -9.1295 C   0  0  0  0  0  0  0  0  0  0  0  0
   -0.6090    3.4304   -8.1971 C   0  0  0  0  0  0  0  0  0  0  0  0
   -1.2222    2.1062   -8.2868 C   0  0  0  0  0  0  0  0  0  0  0  0
   -1.7519    1.5614   -9.4304 C   0  0  0  0  0  0  0  0  0  0  0  0
   -1.7820    2.2191  -10.6776 C   0  0  0  0  0  0  0  0  0  0  0  0
   -1.8375    2.6950  -11.7211 N   0  0  0  0  0  0  0  0  0  0  0  0
   -2.3337    0.2827   -9.5452 C   0  0  0  0  0  0  0  0  0  0  0  0
   -2.8195   -0.7442   -9.7213 N   0  0  0  0  0  0  0  0  0  0  0  0
   -1.6433   -0.4314   -5.4279 C   0  0  0  0  0  0  0  0  0  0  0  0
   -2.2182   -1.7074   -5.2783 C   0  0  0  0  0  0  0  0  0  0  0  0
   -2.8600   -2.5099   -6.3621 C   0  0  0  0  0  0  0  0  0  0  0  0
   -1.8043   -3.2654   -7.1744 C   0  0  0  0  0  0  0  0  0  0  0  0
   -2.0607   -2.1838   -3.9852 C   0  0  0  0  0  0  0  0  0  0  0  0
   -2.5422   -3.6862   -3.2187 S   0  0  0  0  0  0  0  0  0  0  0  0
   -1.8194   -3.1295   -1.7504 C   0  0  0  0  0  0  0  0  0  0  0  0
   -1.5503   -3.6034   -0.4607 C   0  0  0  0  0  0  0  0  0  0  0  0
   -1.7344   -4.8778    0.1228 C   0  0  0  0  0  0  0  0  0  0  0  0
   -1.1500   -5.1444    1.4059 C   0  0  0  0  0  0  0  0  0  0  0  0
   -1.3305   -6.3971    1.7923 N   0  0  0  0  0  0  0  0  0  0  0  0
   -2.1709   -7.1729    0.6470 S   0  0  0  0  0  0  0  0  0  0  0  0
   -2.3323   -5.9408   -0.3905 N   0  0  0  0  0  0  0  0  0  0  0  0
   -0.5248   -4.0880    2.1062 C   0  0  0  0  0  0  0  0  0  0  0  0
    0.0517   -4.0294    3.3826 C   0  0  0  0  0  0  0  0  0  0  0  0
    0.4276   -5.0822    4.7024 S   0  0  0  0  0  0  0  0  0  0  0  0
    1.0606   -3.7021    5.5830 C   0  0  0  0  0  0  0  0  0  0  0  0
    1.6269   -3.5745    6.8425 C   0  0  0  0  0  0  0  0  0  0  0  0
    1.8546   -4.7385    7.7501 C   0  0  0  0  0  0  0  0  0  0  0  0
    3.2758   -5.2858    7.5892 C   0  0  0  0  0  0  0  0  0  0  0  0
    1.9959   -2.2407    7.1054 C   0  0  0  0  0  0  0  0  0  0  0  0
    1.6069   -1.1639    5.7605 S   0  0  0  0  0  0  0  0  0  0  0  0
    0.9720   -2.4926    4.8697 C   0  0  0  0  0  0  0  0  0  0  0  0
    0.4002   -2.6922    3.6123 C   0  0  0  0  0  0  0  0  0  0  0  0
    0.0782   -1.9252    2.5216 N   0  0  0  0  0  0  0  0  0  0  0  0
   -0.4660   -2.7679    1.5695 C   0  0  0  0  0  0  0  0  0  0  0  0
   -0.8573   -2.5610    0.2228 C   0  0  0  0  0  0  0  0  0  0  0  0
   -0.6738   -1.5100   -0.6519 N   0  0  0  0  0  0  0  0  0  0  0  0
   -1.2551   -1.8491   -1.8448 C   0  0  0  0  0  0  0  0  0  0  0  0
   -1.3802   -1.3029   -3.1248 C   0  0  0  0  0  0  0  0  0  0  0  0
   -0.9202    0.1515   -3.9270 S   0  0  0  0  0  0  0  0  0  0  0  0
    0.2378   -0.3890   -0.5828 C   0  0  0  0  0  0  0  0  0  0  0  0
   -0.4966    0.9506   -0.5178 C   0  0  0  0  0  0  0  0  0  0  0  0
   -0.1475   -0.5100    2.7301 C   0  0  0  0  0  0  0  0  0  0  0  0
   -1.3761   -0.2769    3.6092 C   0  0  0  0  0  0  0  0  0  0  0  0
    2.6046   -1.8446    8.2976 C   0  0  0  0  0  0  0  0  0  0  0  0
    3.0534   -0.6140    8.7195 C   0  0  0  0  0  0  0  0  0  0  0  0
    2.9852    0.6366    7.9644 C   0  0  0  0  0  0  0  0  0  0  0  0
    2.5094    0.8198    6.8570 O   0  0  0  0  0  0  0  0  0  0  0  0
    3.6127    1.6648    8.8196 C   0  0  0  0  0  0  0  0  0  0  0  0
    3.8004    3.0049    8.5516 C   0  0  0  0  0  0  0  0  0  0  0  0
    4.4246    3.7563    9.5361 C   0  0  0  0  0  0  0  0  0  0  0  0
    4.6311    5.0667    9.3209 F   0  0  0  0  0  0  0  0  0  0  0  0
    4.8449    3.2046   10.7365 C   0  0  0  0  0  0  0  0  0  0  0  0
    4.6483    1.8552   10.9917 C   0  0  0  0  0  0  0  0  0  0  0  0
    4.0271    1.0759   10.0268 C   0  0  0  0  0  0  0  0  0  0  0  0
    3.6844   -0.3471    9.9961 C   0  0  0  0  0  0  0  0  0  0  0  0
    3.9266   -1.2364   11.0125 C   0  0  0  0  0  0  0  0  0  0  0  0
    3.6014   -2.6086   11.0066 C   0  0  0  0  0  0  0  0  0  0  0  0
    3.3702   -3.7321   11.0801 N   0  0  0  0  0  0  0  0  0  0  0  0
    4.5453   -0.8941   12.2333 C   0  0  0  0  0  0  0  0  0  0  0  0
    5.0419   -0.6848   13.2469 N   0  0  0  0  0  0  0  0  0  0  0  0
   -2.1427   -0.2731   -7.4364 H   0  0  0  0  0  0  0  0  0  0  0  0
    0.7944    4.9025   -5.4490 H   0  0  0  0  0  0  0  0  0  0  0  0
    1.6310    7.1545   -6.0477 H   0  0  0  0  0  0  0  0  0  0  0  0
    1.9582    8.9436   -7.7374 H   0  0  0  0  0  0  0  0  0  0  0  0
    0.0750    6.5300  -10.7100 H   0  0  0  0  0  0  0  0  0  0  0  0
   -0.7551    4.3077  -10.1504 H   0  0  0  0  0  0  0  0  0  0  0  0
   -3.4441   -1.8754   -7.0299 H   0  0  0  0  0  0  0  0  0  0  0  0
   -3.5351   -3.2313   -5.8975 H   0  0  0  0  0  0  0  0  0  0  0  0
   -1.1174   -2.5718   -7.6535 H   0  0  0  0  0  0  0  0  0  0  0  0
   -1.2349   -3.9305   -6.5292 H   0  0  0  0  0  0  0  0  0  0  0  0
   -2.2885   -3.8560   -7.9465 H   0  0  0  0  0  0  0  0  0  0  0  0
    1.6891   -4.4630    8.7925 H   0  0  0  0  0  0  0  0  0  0  0  0
    1.1408   -5.5211    7.4854 H   0  0  0  0  0  0  0  0  0  0  0  0
    3.4181   -6.1361    8.2496 H   0  0  0  0  0  0  0  0  0  0  0  0
    4.0125   -4.5268    7.8421 H   0  0  0  0  0  0  0  0  0  0  0  0
    3.4442   -5.6064    6.5638 H   0  0  0  0  0  0  0  0  0  0  0  0
    0.9085   -0.5329    0.2653 H   0  0  0  0  0  0  0  0  0  0  0  0
    0.8479   -0.4029   -1.4927 H   0  0  0  0  0  0  0  0  0  0  0  0
    0.2084    1.7442   -0.2871 H   0  0  0  0  0  0  0  0  0  0  0  0
   -1.2811    0.9433    0.2361 H   0  0  0  0  0  0  0  0  0  0  0  0
   -0.9548    1.1724   -1.4774 H   0  0  0  0  0  0  0  0  0  0  0  0
    0.7400   -0.0999    3.2207 H   0  0  0  0  0  0  0  0  0  0  0  0
   -0.2971   -0.0100    1.7815 H   0  0  0  0  0  0  0  0  0  0  0  0
   -1.2421   -0.7278    4.5887 H   0  0  0  0  0  0  0  0  0  0  0  0
   -2.2614   -0.7071    3.1449 H   0  0  0  0  0  0  0  0  0  0  0  0
   -1.5315    0.7901    3.7407 H   0  0  0  0  0  0  0  0  0  0  0  0
    2.7467   -2.6593    8.9941 H   0  0  0  0  0  0  0  0  0  0  0  0
    3.4781    3.4468    7.6224 H   0  0  0  0  0  0  0  0  0  0  0  0
    5.3253    3.8372   11.4662 H   0  0  0  0  0  0  0  0  0  0  0  0
    4.9803    1.4399   11.9285 H   0  0  0  0  0  0  0  0  0  0  0  0
  1  2  2  0  0  0  0
  2  3  1  0  0  0  0
  3  4  2  0  0  0  0
  3  5  1  0  0  0  0
  5  6  2  0  0  0  0
  6  7  1  0  0  0  0
  7  8  2  0  0  0  0
  8  9  1  0  0  0  0
  9 10  2  0  0  0  0
 10 11  1  0  0  0  0
 10 12  1  0  0  0  0
 12 13  2  0  0  0  0
 13 14  1  0  0  0  0
 14 15  2  0  0  0  0
 15 16  1  0  0  0  0
 16 17  2  0  0  0  0
 17 18  1  0  0  0  0
 18 19  3  0  0  0  0
 17 20  1  0  0  0  0
 20 21  3  0  0  0  0
  1 22  1  0  0  0  0
 22 23  2  0  0  0  0
 23 24  1  0  0  0  0
 24 25  1  0  0  0  0
 23 26  1  0  0  0  0
 26 27  1  0  0  0  0
 27 28  1  0  0  0  0
 28 29  1  0  0  0  0
 29 30  1  0  0  0  0
 30 31  1  0  0  0  0
 31 32  2  0  0  0  0
 32 33  1  0  0  0  0
 33 34  1  0  0  0  0
 31 35  1  0  0  0  0
 35 36  1  0  0  0  0
 36 37  1  0  0  0  0
 37 38  1  0  0  0  0
 38 39  1  0  0  0  0
 39 40  1  0  0  0  0
 40 41  1  0  0  0  0
 39 42  2  0  0  0  0
 42 43  1  0  0  0  0
 43 44  1  0  0  0  0
 44 45  1  0  0  0  0
 45 46  1  0  0  0  0
 46 47  1  0  0  0  0
 47 48  1  0  0  0  0
 48 49  1  0  0  0  0
 49 50  1  0  0  0  0
 50 51  1  0  0  0  0
 51 52  1  0  0  0  0
 49 53  1  0  0  0  0
 53 54  1  0  0  0  0
 46 55  1  0  0  0  0
 55 56  1  0  0  0  0
 42 57  1  0  0  0  0
 57 58  2  0  0  0  0
 58 59  1  0  0  0  0
 59 60  2  0  0  0  0
 59 61  1  0  0  0  0
 61 62  2  0  0  0  0
 62 63  1  0  0  0  0
 63 64  1  0  0  0  0
 63 65  2  0  0  0  0
 65 66  1  0  0  0  0
 66 67  2  0  0  0  0
 67 68  1  0  0  0  0
 68 69  2  0  0  0  0
 69 70  1  0  0  0  0
 70 71  3  0  0  0  0
 69 72  1  0  0  0  0
 72 73  3  0  0  0  0
 16  2  1  0  0  0  0
 52 22  1  0  0  0  0
 68 58  1  0  0  0  0
 15  5  1  0  0  0  0
 51 26  2  0  0  0  0
 67 61  1  0  0  0  0
 13  7  1  0  0  0  0
 50 28  2  0  0  0  0
 48 29  2  0  0  0  0
 34 30  2  0  0  0  0
 47 35  2  0  0  0  0
 45 36  2  0  0  0  0
 44 38  2  0  0  0  0
  1 74  1  0  0  0  0
  6 75  1  0  0  0  0
  8 76  1  0  0  0  0
  9 77  1  0  0  0  0
 12 78  1  0  0  0  0
 14 79  1  0  0  0  0
 24 80  1  0  0  0  0
 24 81  1  0  0  0  0
 25 82  1  0  0  0  0
 25 83  1  0  0  0  0
 25 84  1  0  0  0  0
 40 85  1  0  0  0  0
 40 86  1  0  0  0  0
 41 87  1  0  0  0  0
 41 88  1  0  0  0  0
 41 89  1  0  0  0  0
 53 90  1  0  0  0  0
 53 91  1  0  0  0  0
 54 92  1  0  0  0  0
 54 93  1  0  0  0  0
 54 94  1  0  0  0  0
 55 95  1  0  0  0  0
 55 96  1  0  0  0  0
 56 97  1  0  0  0  0
 56 98  1  0  0  0  0
 56 99  1  0  0  0  0
 57100  1  0  0  0  0
 62101  1  0  0  0  0
 65102  1  0  0  0  0
 66103  1  0  0  0  0
M  END
