
  xtb     02012219543D
 energy: -195.787338225884 gnorm: 0.000732260572 xtb: 6.4.1 (unknown)
103115  0     0  0            999 V2000
    2.8760    6.2508   -1.8994 C   0  0  0  0  0  0  0  0  0  0  0  0
    2.1479    6.4195   -3.0535 C   0  0  0  0  0  0  0  0  0  0  0  0
    1.1099    5.5183   -3.5570 C   0  0  0  0  0  0  0  0  0  0  0  0
    0.6966    4.4947   -3.0357 O   0  0  0  0  0  0  0  0  0  0  0  0
    0.6479    6.0930   -4.8311 C   0  0  0  0  0  0  0  0  0  0  0  0
   -0.3007    5.6201   -5.6904 C   0  0  0  0  0  0  0  0  0  0  0  0
   -0.5828    6.3448   -6.8700 C   0  0  0  0  0  0  0  0  0  0  0  0
   -1.5496    5.9021   -7.7953 C   0  0  0  0  0  0  0  0  0  0  0  0
   -1.8136    6.6135   -8.9328 C   0  0  0  0  0  0  0  0  0  0  0  0
   -1.1061    7.7996   -9.1701 C   0  0  0  0  0  0  0  0  0  0  0  0
   -1.3804    8.4866  -10.2938 F   0  0  0  0  0  0  0  0  0  0  0  0
   -0.1577    8.2728   -8.3062 C   0  0  0  0  0  0  0  0  0  0  0  0
    0.1277    7.5521   -7.1306 C   0  0  0  0  0  0  0  0  0  0  0  0
    1.1056    8.0166   -6.2195 C   0  0  0  0  0  0  0  0  0  0  0  0
    1.3644    7.2969   -5.0842 C   0  0  0  0  0  0  0  0  0  0  0  0
    2.2992    7.5203   -3.9829 C   0  0  0  0  0  0  0  0  0  0  0  0
    3.1498    8.5928   -3.8781 C   0  0  0  0  0  0  0  0  0  0  0  0
    4.0499    8.8349   -2.8208 C   0  0  0  0  0  0  0  0  0  0  0  0
    4.8086    9.1044   -2.0003 N   0  0  0  0  0  0  0  0  0  0  0  0
    3.2400    9.6256   -4.8344 C   0  0  0  0  0  0  0  0  0  0  0  0
    3.3675   10.4977   -5.5705 N   0  0  0  0  0  0  0  0  0  0  0  0
    2.8484    5.2404   -0.9352 C   0  0  0  0  0  0  0  0  0  0  0  0
    3.7146    5.2234    0.1732 C   0  0  0  0  0  0  0  0  0  0  0  0
    4.7827    6.2259    0.4640 C   0  0  0  0  0  0  0  0  0  0  0  0
    6.0613    5.8978   -0.3123 C   0  0  0  0  0  0  0  0  0  0  0  0
    3.5031    4.1023    0.9626 C   0  0  0  0  0  0  0  0  0  0  0  0
    4.2779    3.5369    2.4312 S   0  0  0  0  0  0  0  0  0  0  0  0
    3.2235    2.1675    2.4163 C   0  0  0  0  0  0  0  0  0  0  0  0
    2.9604    1.0288    3.1848 C   0  0  0  0  0  0  0  0  0  0  0  0
    3.5193    0.6067    4.4113 C   0  0  0  0  0  0  0  0  0  0  0  0
    3.0008   -0.5721    5.0343 C   0  0  0  0  0  0  0  0  0  0  0  0
    3.5842   -0.8317    6.1939 N   0  0  0  0  0  0  0  0  0  0  0  0
    4.6957    0.3112    6.4742 S   0  0  0  0  0  0  0  0  0  0  0  0
    4.4735    1.1808    5.1268 N   0  0  0  0  0  0  0  0  0  0  0  0
    2.0083   -1.3165    4.3594 C   0  0  0  0  0  0  0  0  0  0  0  0
    1.4141   -2.5381    4.6909 C   0  0  0  0  0  0  0  0  0  0  0  0
    1.4503   -3.7038    5.9666 S   0  0  0  0  0  0  0  0  0  0  0  0
    0.3152   -4.6829    5.0551 C   0  0  0  0  0  0  0  0  0  0  0  0
   -0.2716   -5.9111    5.3157 C   0  0  0  0  0  0  0  0  0  0  0  0
   -0.0364   -6.6683    6.5810 C   0  0  0  0  0  0  0  0  0  0  0  0
   -1.1315   -6.3664    7.6081 C   0  0  0  0  0  0  0  0  0  0  0  0
   -1.1376   -6.2982    4.2737 C   0  0  0  0  0  0  0  0  0  0  0  0
   -1.1823   -5.1055    2.9714 S   0  0  0  0  0  0  0  0  0  0  0  0
   -0.0635   -4.1119    3.8250 C   0  0  0  0  0  0  0  0  0  0  0  0
    0.5702   -2.8828    3.6274 C   0  0  0  0  0  0  0  0  0  0  0  0
    0.6065   -1.9072    2.6677 N   0  0  0  0  0  0  0  0  0  0  0  0
    1.4834   -0.9232    3.0895 C   0  0  0  0  0  0  0  0  0  0  0  0
    1.9082    0.3150    2.5334 C   0  0  0  0  0  0  0  0  0  0  0  0
    1.5377    1.0336    1.4089 N   0  0  0  0  0  0  0  0  0  0  0  0
    2.3271    2.1499    1.3410 C   0  0  0  0  0  0  0  0  0  0  0  0
    2.4786    3.2570    0.5002 C   0  0  0  0  0  0  0  0  0  0  0  0
    1.7637    3.8475   -0.9534 S   0  0  0  0  0  0  0  0  0  0  0  0
    0.3409    0.9748    0.5987 C   0  0  0  0  0  0  0  0  0  0  0  0
   -0.9090    1.2409    1.4343 C   0  0  0  0  0  0  0  0  0  0  0  0
    0.0505   -2.1875    1.3626 C   0  0  0  0  0  0  0  0  0  0  0  0
    1.1476   -2.4725    0.3398 C   0  0  0  0  0  0  0  0  0  0  0  0
   -1.8663   -7.4865    4.2992 C   0  0  0  0  0  0  0  0  0  0  0  0
   -2.7722   -8.0157    3.4064 C   0  0  0  0  0  0  0  0  0  0  0  0
   -3.1912   -7.4069    2.1459 C   0  0  0  0  0  0  0  0  0  0  0  0
   -2.8056   -6.3582    1.6605 O   0  0  0  0  0  0  0  0  0  0  0  0
   -4.1882   -8.3289    1.5607 C   0  0  0  0  0  0  0  0  0  0  0  0
   -4.3550   -9.4345    2.4152 C   0  0  0  0  0  0  0  0  0  0  0  0
   -5.2470  -10.4394    2.0784 C   0  0  0  0  0  0  0  0  0  0  0  0
   -5.9602  -10.3261    0.8934 C   0  0  0  0  0  0  0  0  0  0  0  0
   -5.7912   -9.2357    0.0546 C   0  0  0  0  0  0  0  0  0  0  0  0
   -6.7935   -9.1385   -1.5449 Br  0  0  0  0  0  0  0  0  0  0  0  0
   -4.8945   -8.2102    0.3755 C   0  0  0  0  0  0  0  0  0  0  0  0
   -4.6826   -6.8620   -0.6572 Cl  0  0  0  0  0  0  0  0  0  0  0  0
   -3.4757   -9.2674    3.5735 C   0  0  0  0  0  0  0  0  0  0  0  0
   -3.3649  -10.1616    4.6094 C   0  0  0  0  0  0  0  0  0  0  0  0
   -2.5214  -10.0244    5.7312 C   0  0  0  0  0  0  0  0  0  0  0  0
   -1.8627   -9.9914    6.6723 N   0  0  0  0  0  0  0  0  0  0  0  0
   -4.0910  -11.3676    4.6977 C   0  0  0  0  0  0  0  0  0  0  0  0
   -4.6502  -12.3607    4.8358 N   0  0  0  0  0  0  0  0  0  0  0  0
    3.6106    7.0164   -1.6913 H   0  0  0  0  0  0  0  0  0  0  0  0
   -0.8294    4.7039   -5.4737 H   0  0  0  0  0  0  0  0  0  0  0  0
   -2.0821    4.9854   -7.5904 H   0  0  0  0  0  0  0  0  0  0  0  0
   -2.5494    6.2884   -9.6510 H   0  0  0  0  0  0  0  0  0  0  0  0
    0.3684    9.1898   -8.5213 H   0  0  0  0  0  0  0  0  0  0  0  0
    1.6250    8.9330   -6.4485 H   0  0  0  0  0  0  0  0  0  0  0  0
    4.4551    7.2355    0.2123 H   0  0  0  0  0  0  0  0  0  0  0  0
    4.9984    6.1930    1.5338 H   0  0  0  0  0  0  0  0  0  0  0  0
    6.4278    4.9114   -0.0378 H   0  0  0  0  0  0  0  0  0  0  0  0
    5.8765    5.9147   -1.3839 H   0  0  0  0  0  0  0  0  0  0  0  0
    6.8280    6.6324   -0.0842 H   0  0  0  0  0  0  0  0  0  0  0  0
   -0.0002   -7.7428    6.3958 H   0  0  0  0  0  0  0  0  0  0  0  0
    0.9279   -6.3588    6.9887 H   0  0  0  0  0  0  0  0  0  0  0  0
   -0.9381   -6.9185    8.5231 H   0  0  0  0  0  0  0  0  0  0  0  0
   -1.1521   -5.3037    7.8376 H   0  0  0  0  0  0  0  0  0  0  0  0
   -2.1076   -6.6598    7.2292 H   0  0  0  0  0  0  0  0  0  0  0  0
    0.2801    0.0249    0.0695 H   0  0  0  0  0  0  0  0  0  0  0  0
    0.4399    1.7570   -0.1576 H   0  0  0  0  0  0  0  0  0  0  0  0
   -0.8647    2.2414    1.8582 H   0  0  0  0  0  0  0  0  0  0  0  0
   -0.9974    0.5300    2.2531 H   0  0  0  0  0  0  0  0  0  0  0  0
   -1.7944    1.1711    0.8086 H   0  0  0  0  0  0  0  0  0  0  0  0
   -0.6028   -1.3772    1.0421 H   0  0  0  0  0  0  0  0  0  0  0  0
   -0.5737   -3.0771    1.4755 H   0  0  0  0  0  0  0  0  0  0  0  0
    1.8414   -1.6385    0.2596 H   0  0  0  0  0  0  0  0  0  0  0  0
    0.7053   -2.6596   -0.6348 H   0  0  0  0  0  0  0  0  0  0  0  0
    1.7108   -3.3540    0.6373 H   0  0  0  0  0  0  0  0  0  0  0  0
   -1.6838   -8.0789    5.1851 H   0  0  0  0  0  0  0  0  0  0  0  0
   -5.4004  -11.2996    2.7078 H   0  0  0  0  0  0  0  0  0  0  0  0
   -6.6608  -11.0979    0.6144 H   0  0  0  0  0  0  0  0  0  0  0  0
  1  2  2  0  0  0  0
  2  3  1  0  0  0  0
  3  4  2  0  0  0  0
  3  5  1  0  0  0  0
  5  6  2  0  0  0  0
  6  7  1  0  0  0  0
  7  8  2  0  0  0  0
  8  9  1  0  0  0  0
  9 10  2  0  0  0  0
 10 11  1  0  0  0  0
 10 12  1  0  0  0  0
 12 13  2  0  0  0  0
 13 14  1  0  0  0  0
 14 15  2  0  0  0  0
 15 16  1  0  0  0  0
 16 17  2  0  0  0  0
 17 18  1  0  0  0  0
 18 19  3  0  0  0  0
 17 20  1  0  0  0  0
 20 21  3  0  0  0  0
  1 22  1  0  0  0  0
 22 23  2  0  0  0  0
 23 24  1  0  0  0  0
 24 25  1  0  0  0  0
 23 26  1  0  0  0  0
 26 27  1  0  0  0  0
 27 28  1  0  0  0  0
 28 29  1  0  0  0  0
 29 30  1  0  0  0  0
 30 31  1  0  0  0  0
 31 32  2  0  0  0  0
 32 33  1  0  0  0  0
 33 34  1  0  0  0  0
 31 35  1  0  0  0  0
 35 36  1  0  0  0  0
 36 37  1  0  0  0  0
 37 38  1  0  0  0  0
 38 39  1  0  0  0  0
 39 40  1  0  0  0  0
 40 41  1  0  0  0  0
 39 42  2  0  0  0  0
 42 43  1  0  0  0  0
 43 44  1  0  0  0  0
 44 45  1  0  0  0  0
 45 46  1  0  0  0  0
 46 47  1  0  0  0  0
 47 48  1  0  0  0  0
 48 49  1  0  0  0  0
 49 50  1  0  0  0  0
 50 51  1  0  0  0  0
 51 52  1  0  0  0  0
 49 53  1  0  0  0  0
 53 54  1  0  0  0  0
 46 55  1  0  0  0  0
 55 56  1  0  0  0  0
 42 57  1  0  0  0  0
 57 58  2  0  0  0  0
 58 59  1  0  0  0  0
 59 60  2  0  0  0  0
 59 61  1  0  0  0  0
 61 62  2  0  0  0  0
 62 63  1  0  0  0  0
 63 64  2  0  0  0  0
 64 65  1  0  0  0  0
 65 66  1  0  0  0  0
 65 67  2  0  0  0  0
 67 68  1  0  0  0  0
 62 69  1  0  0  0  0
 69 70  2  0  0  0  0
 70 71  1  0  0  0  0
 71 72  3  0  0  0  0
 70 73  1  0  0  0  0
 73 74  3  0  0  0  0
 16  2  1  0  0  0  0
 52 22  1  0  0  0  0
 69 58  1  0  0  0  0
 15  5  1  0  0  0  0
 51 26  2  0  0  0  0
 67 61  1  0  0  0  0
 13  7  1  0  0  0  0
 50 28  2  0  0  0  0
 48 29  2  0  0  0  0
 34 30  2  0  0  0  0
 47 35  2  0  0  0  0
 45 36  2  0  0  0  0
 44 38  2  0  0  0  0
  1 75  1  0  0  0  0
  6 76  1  0  0  0  0
  8 77  1  0  0  0  0
  9 78  1  0  0  0  0
 12 79  1  0  0  0  0
 14 80  1  0  0  0  0
 24 81  1  0  0  0  0
 24 82  1  0  0  0  0
 25 83  1  0  0  0  0
 25 84  1  0  0  0  0
 25 85  1  0  0  0  0
 40 86  1  0  0  0  0
 40 87  1  0  0  0  0
 41 88  1  0  0  0  0
 41 89  1  0  0  0  0
 41 90  1  0  0  0  0
 53 91  1  0  0  0  0
 53 92  1  0  0  0  0
 54 93  1  0  0  0  0
 54 94  1  0  0  0  0
 54 95  1  0  0  0  0
 55 96  1  0  0  0  0
 55 97  1  0  0  0  0
 56 98  1  0  0  0  0
 56 99  1  0  0  0  0
 56100  1  0  0  0  0
 57101  1  0  0  0  0
 63102  1  0  0  0  0
 64103  1  0  0  0  0
M  END
