
  xtb     02012219593D
 energy: -192.199676724165 gnorm: 0.000696491868 xtb: 6.4.1 (unknown)
103115  0     0  0            999 V2000
   -1.7418   -0.7763    6.0875 C   0  0  0  0  0  0  0  0  0  0  0  0
   -2.8922   -0.5659    6.7996 C   0  0  0  0  0  0  0  0  0  0  0  0
   -3.9638    0.3717    6.3920 C   0  0  0  0  0  0  0  0  0  0  0  0
   -3.9278    1.2073    5.5126 O   0  0  0  0  0  0  0  0  0  0  0  0
   -5.1407   -0.0074    7.1983 C   0  0  0  0  0  0  0  0  0  0  0  0
   -6.3999    0.5169    7.1621 C   0  0  0  0  0  0  0  0  0  0  0  0
   -7.3938   -0.0181    8.0122 C   0  0  0  0  0  0  0  0  0  0  0  0
   -8.7109    0.4842    8.0133 C   0  0  0  0  0  0  0  0  0  0  0  0
   -9.6677   -0.0492    8.8316 C   0  0  0  0  0  0  0  0  0  0  0  0
   -9.3200   -1.1093    9.6795 C   0  0  0  0  0  0  0  0  0  0  0  0
  -10.2751   -1.6218   10.4770 F   0  0  0  0  0  0  0  0  0  0  0  0
   -8.0574   -1.6323    9.7199 C   0  0  0  0  0  0  0  0  0  0  0  0
   -7.0599   -1.0958    8.8829 C   0  0  0  0  0  0  0  0  0  0  0  0
   -5.7454   -1.6185    8.8989 C   0  0  0  0  0  0  0  0  0  0  0  0
   -4.7988   -1.0802    8.0693 C   0  0  0  0  0  0  0  0  0  0  0  0
   -3.3931   -1.4093    7.8630 C   0  0  0  0  0  0  0  0  0  0  0  0
   -2.6507   -2.2924    8.6042 C   0  0  0  0  0  0  0  0  0  0  0  0
   -3.1742   -3.0790    9.6499 C   0  0  0  0  0  0  0  0  0  0  0  0
   -3.5516   -3.7473   10.5039 N   0  0  0  0  0  0  0  0  0  0  0  0
   -1.2642   -2.4924    8.4405 C   0  0  0  0  0  0  0  0  0  0  0  0
   -0.1331   -2.6808    8.3756 N   0  0  0  0  0  0  0  0  0  0  0  0
   -1.1700    0.0996    5.1420 C   0  0  0  0  0  0  0  0  0  0  0  0
   -1.0798    1.4881    5.1211 C   0  0  0  0  0  0  0  0  0  0  0  0
   -1.4951    2.3784    6.2428 C   0  0  0  0  0  0  0  0  0  0  0  0
   -0.3897    3.3457    6.6619 C   0  0  0  0  0  0  0  0  0  0  0  0
   -0.4326    1.9284    3.9578 C   0  0  0  0  0  0  0  0  0  0  0  0
   -0.0823    3.5191    3.3157 S   0  0  0  0  0  0  0  0  0  0  0  0
    0.5859    2.7893    1.8997 C   0  0  0  0  0  0  0  0  0  0  0  0
    1.1813    3.1680    0.6843 C   0  0  0  0  0  0  0  0  0  0  0  0
    1.6162    4.4087    0.1621 C   0  0  0  0  0  0  0  0  0  0  0  0
    2.3354    4.4331   -1.0854 C   0  0  0  0  0  0  0  0  0  0  0  0
    2.7442    5.6500   -1.4051 N   0  0  0  0  0  0  0  0  0  0  0  0
    2.2637    6.6778   -0.2515 S   0  0  0  0  0  0  0  0  0  0  0  0
    1.5155    5.6101    0.7070 N   0  0  0  0  0  0  0  0  0  0  0  0
    2.4535    3.2409   -1.8382 C   0  0  0  0  0  0  0  0  0  0  0  0
    2.9266    2.9632   -3.1304 C   0  0  0  0  0  0  0  0  0  0  0  0
    3.7281    3.7704   -4.4333 S   0  0  0  0  0  0  0  0  0  0  0  0
    3.6197    2.2947   -5.3767 C   0  0  0  0  0  0  0  0  0  0  0  0
    4.0190    1.9759   -6.6661 C   0  0  0  0  0  0  0  0  0  0  0  0
    4.7442    2.9374   -7.5495 C   0  0  0  0  0  0  0  0  0  0  0  0
    6.2582    2.7307   -7.4491 C   0  0  0  0  0  0  0  0  0  0  0  0
    3.6985    0.6423   -6.9864 C   0  0  0  0  0  0  0  0  0  0  0  0
    2.8956   -0.1902   -5.6515 S   0  0  0  0  0  0  0  0  0  0  0  0
    2.9912    1.2378   -4.6942 C   0  0  0  0  0  0  0  0  0  0  0  0
    2.6051    1.6262   -3.4105 C   0  0  0  0  0  0  0  0  0  0  0  0
    1.9762    1.0567   -2.3312 N   0  0  0  0  0  0  0  0  0  0  0  0
    1.9049    2.0235   -1.3498 C   0  0  0  0  0  0  0  0  0  0  0  0
    1.4311    1.9624   -0.0227 C   0  0  0  0  0  0  0  0  0  0  0  0
    1.0776    0.8814    0.7621 N   0  0  0  0  0  0  0  0  0  0  0  0
    0.5513    1.3880    1.9247 C   0  0  0  0  0  0  0  0  0  0  0  0
   -0.0198    0.8977    3.1003 C   0  0  0  0  0  0  0  0  0  0  0  0
   -0.3755   -0.6524    3.7563 S   0  0  0  0  0  0  0  0  0  0  0  0
    1.6890   -0.4331    0.7390 C   0  0  0  0  0  0  0  0  0  0  0  0
    2.7901   -0.5503    1.7923 C   0  0  0  0  0  0  0  0  0  0  0  0
    1.0679   -0.0574   -2.5219 C   0  0  0  0  0  0  0  0  0  0  0  0
   -0.0594    0.3099   -3.4860 C   0  0  0  0  0  0  0  0  0  0  0  0
    3.9827    0.0743   -8.2301 C   0  0  0  0  0  0  0  0  0  0  0  0
    3.7502   -1.1885   -8.7237 C   0  0  0  0  0  0  0  0  0  0  0  0
    3.1307   -2.2982   -7.9959 C   0  0  0  0  0  0  0  0  0  0  0  0
    2.7026   -2.2866   -6.8551 O   0  0  0  0  0  0  0  0  0  0  0  0
    3.1256   -3.4435   -8.9252 C   0  0  0  0  0  0  0  0  0  0  0  0
    2.6627   -4.7353   -8.7396 C   0  0  0  0  0  0  0  0  0  0  0  0
    1.9566   -5.2175   -7.2515 Cl  0  0  0  0  0  0  0  0  0  0  0  0
    2.7790   -5.6469   -9.7871 C   0  0  0  0  0  0  0  0  0  0  0  0
    3.3490   -5.2571  -10.9855 C   0  0  0  0  0  0  0  0  0  0  0  0
    3.8153   -3.9623  -11.1853 C   0  0  0  0  0  0  0  0  0  0  0  0
    3.7006   -3.0519  -10.1494 C   0  0  0  0  0  0  0  0  0  0  0  0
    4.0871   -1.6420  -10.0548 C   0  0  0  0  0  0  0  0  0  0  0  0
    4.6456   -0.9106  -11.0729 C   0  0  0  0  0  0  0  0  0  0  0  0
    5.0052    0.4516  -11.0090 C   0  0  0  0  0  0  0  0  0  0  0  0
    5.3244    1.5554  -11.0401 N   0  0  0  0  0  0  0  0  0  0  0  0
    4.9360   -1.4220  -12.3551 C   0  0  0  0  0  0  0  0  0  0  0  0
    5.1977   -1.7623  -13.4200 N   0  0  0  0  0  0  0  0  0  0  0  0
   -1.2492   -1.7375    6.1852 H   0  0  0  0  0  0  0  0  0  0  0  0
   -6.6361    1.3298    6.4918 H   0  0  0  0  0  0  0  0  0  0  0  0
   -8.9548    1.3011    7.3507 H   0  0  0  0  0  0  0  0  0  0  0  0
  -10.6803    0.3215    8.8426 H   0  0  0  0  0  0  0  0  0  0  0  0
   -7.8251   -2.4482   10.3863 H   0  0  0  0  0  0  0  0  0  0  0  0
   -5.5236   -2.4397    9.5616 H   0  0  0  0  0  0  0  0  0  0  0  0
   -2.3797    2.9394    5.9287 H   0  0  0  0  0  0  0  0  0  0  0  0
   -1.7811    1.7643    7.0985 H   0  0  0  0  0  0  0  0  0  0  0  0
    0.5152    2.7996    6.9201 H   0  0  0  0  0  0  0  0  0  0  0  0
   -0.7121    3.9093    7.5336 H   0  0  0  0  0  0  0  0  0  0  0  0
   -0.1578    4.0492    5.8675 H   0  0  0  0  0  0  0  0  0  0  0  0
    4.5012    3.9502   -7.2221 H   0  0  0  0  0  0  0  0  0  0  0  0
    4.4324    2.8304   -8.5893 H   0  0  0  0  0  0  0  0  0  0  0  0
    6.7697    3.4464   -8.0862 H   0  0  0  0  0  0  0  0  0  0  0  0
    6.5324    1.7278   -7.7679 H   0  0  0  0  0  0  0  0  0  0  0  0
    6.5923    2.8732   -6.4239 H   0  0  0  0  0  0  0  0  0  0  0  0
    0.9146   -1.1837    0.9264 H   0  0  0  0  0  0  0  0  0  0  0  0
    2.1335   -0.6012   -0.2402 H   0  0  0  0  0  0  0  0  0  0  0  0
    2.3875   -0.4404    2.7951 H   0  0  0  0  0  0  0  0  0  0  0  0
    3.2600   -1.5266    1.7161 H   0  0  0  0  0  0  0  0  0  0  0  0
    3.5463    0.2154    1.6323 H   0  0  0  0  0  0  0  0  0  0  0  0
    0.6259   -0.3293   -1.5657 H   0  0  0  0  0  0  0  0  0  0  0  0
    1.6351   -0.9033   -2.9218 H   0  0  0  0  0  0  0  0  0  0  0  0
    0.3303    0.5354   -4.4743 H   0  0  0  0  0  0  0  0  0  0  0  0
   -0.6046    1.1760   -3.1161 H   0  0  0  0  0  0  0  0  0  0  0  0
   -0.7471   -0.5265   -3.5715 H   0  0  0  0  0  0  0  0  0  0  0  0
    4.4698    0.7600   -8.9094 H   0  0  0  0  0  0  0  0  0  0  0  0
    2.4214   -6.6552   -9.6526 H   0  0  0  0  0  0  0  0  0  0  0  0
    3.4337   -5.9751  -11.7867 H   0  0  0  0  0  0  0  0  0  0  0  0
    4.2544   -3.6913  -12.1307 H   0  0  0  0  0  0  0  0  0  0  0  0
  1  2  2  0  0  0  0
  2  3  1  0  0  0  0
  3  4  2  0  0  0  0
  3  5  1  0  0  0  0
  5  6  2  0  0  0  0
  6  7  1  0  0  0  0
  7  8  2  0  0  0  0
  8  9  1  0  0  0  0
  9 10  2  0  0  0  0
 10 11  1  0  0  0  0
 10 12  1  0  0  0  0
 12 13  2  0  0  0  0
 13 14  1  0  0  0  0
 14 15  2  0  0  0  0
 15 16  1  0  0  0  0
 16 17  2  0  0  0  0
 17 18  1  0  0  0  0
 18 19  3  0  0  0  0
 17 20  1  0  0  0  0
 20 21  3  0  0  0  0
  1 22  1  0  0  0  0
 22 23  2  0  0  0  0
 23 24  1  0  0  0  0
 24 25  1  0  0  0  0
 23 26  1  0  0  0  0
 26 27  1  0  0  0  0
 27 28  1  0  0  0  0
 28 29  1  0  0  0  0
 29 30  1  0  0  0  0
 30 31  1  0  0  0  0
 31 32  2  0  0  0  0
 32 33  1  0  0  0  0
 33 34  1  0  0  0  0
 31 35  1  0  0  0  0
 35 36  1  0  0  0  0
 36 37  1  0  0  0  0
 37 38  1  0  0  0  0
 38 39  1  0  0  0  0
 39 40  1  0  0  0  0
 40 41  1  0  0  0  0
 39 42  2  0  0  0  0
 42 43  1  0  0  0  0
 43 44  1  0  0  0  0
 44 45  1  0  0  0  0
 45 46  1  0  0  0  0
 46 47  1  0  0  0  0
 47 48  1  0  0  0  0
 48 49  1  0  0  0  0
 49 50  1  0  0  0  0
 50 51  1  0  0  0  0
 51 52  1  0  0  0  0
 49 53  1  0  0  0  0
 53 54  1  0  0  0  0
 46 55  1  0  0  0  0
 55 56  1  0  0  0  0
 42 57  1  0  0  0  0
 57 58  2  0  0  0  0
 58 59  1  0  0  0  0
 59 60  2  0  0  0  0
 59 61  1  0  0  0  0
 61 62  2  0  0  0  0
 62 63  1  0  0  0  0
 62 64  1  0  0  0  0
 64 65  2  0  0  0  0
 65 66  1  0  0  0  0
 66 67  2  0  0  0  0
 67 68  1  0  0  0  0
 68 69  2  0  0  0  0
 69 70  1  0  0  0  0
 70 71  3  0  0  0  0
 69 72  1  0  0  0  0
 72 73  3  0  0  0  0
 16  2  1  0  0  0  0
 52 22  1  0  0  0  0
 68 58  1  0  0  0  0
 15  5  1  0  0  0  0
 51 26  2  0  0  0  0
 67 61  1  0  0  0  0
 13  7  1  0  0  0  0
 50 28  2  0  0  0  0
 48 29  2  0  0  0  0
 34 30  2  0  0  0  0
 47 35  2  0  0  0  0
 45 36  2  0  0  0  0
 44 38  2  0  0  0  0
  1 74  1  0  0  0  0
  6 75  1  0  0  0  0
  8 76  1  0  0  0  0
  9 77  1  0  0  0  0
 12 78  1  0  0  0  0
 14 79  1  0  0  0  0
 24 80  1  0  0  0  0
 24 81  1  0  0  0  0
 25 82  1  0  0  0  0
 25 83  1  0  0  0  0
 25 84  1  0  0  0  0
 40 85  1  0  0  0  0
 40 86  1  0  0  0  0
 41 87  1  0  0  0  0
 41 88  1  0  0  0  0
 41 89  1  0  0  0  0
 53 90  1  0  0  0  0
 53 91  1  0  0  0  0
 54 92  1  0  0  0  0
 54 93  1  0  0  0  0
 54 94  1  0  0  0  0
 55 95  1  0  0  0  0
 55 96  1  0  0  0  0
 56 97  1  0  0  0  0
 56 98  1  0  0  0  0
 56 99  1  0  0  0  0
 57100  1  0  0  0  0
 64101  1  0  0  0  0
 65102  1  0  0  0  0
 66103  1  0  0  0  0
M  END
