
  xtb     02012219473D
 energy: -200.823105515260 gnorm: 0.000500862676 xtb: 6.4.1 (unknown)
103115  0     0  0            999 V2000
   -6.0763    4.3416   -1.6356 C   0  0  0  0  0  0  0  0  0  0  0  0
   -6.6812    3.6583   -2.6629 C   0  0  0  0  0  0  0  0  0  0  0  0
   -6.1700    2.4503   -3.3141 C   0  0  0  0  0  0  0  0  0  0  0  0
   -5.1151    1.8778   -3.0925 O   0  0  0  0  0  0  0  0  0  0  0  0
   -7.1866    2.0553   -4.3033 C   0  0  0  0  0  0  0  0  0  0  0  0
   -7.1905    0.9846   -5.1493 C   0  0  0  0  0  0  0  0  0  0  0  0
   -8.2893    0.7973   -6.0177 C   0  0  0  0  0  0  0  0  0  0  0  0
   -8.3507   -0.2948   -6.9069 C   0  0  0  0  0  0  0  0  0  0  0  0
   -9.4214   -0.4655   -7.7401 C   0  0  0  0  0  0  0  0  0  0  0  0
  -10.4663    0.4674   -7.7015 C   0  0  0  0  0  0  0  0  0  0  0  0
  -11.5108    0.2833   -8.5292 F   0  0  0  0  0  0  0  0  0  0  0  0
  -10.4567    1.5442   -6.8589 C   0  0  0  0  0  0  0  0  0  0  0  0
   -9.3630    1.7338   -5.9924 C   0  0  0  0  0  0  0  0  0  0  0  0
   -9.3288    2.8354   -5.1054 C   0  0  0  0  0  0  0  0  0  0  0  0
   -8.2566    2.9941   -4.2694 C   0  0  0  0  0  0  0  0  0  0  0  0
   -7.9538    4.0073   -3.2607 C   0  0  0  0  0  0  0  0  0  0  0  0
   -8.7493    5.0858   -2.9635 C   0  0  0  0  0  0  0  0  0  0  0  0
   -8.4706    6.0799   -2.0037 C   0  0  0  0  0  0  0  0  0  0  0  0
   -8.3179    6.9296   -1.2444 N   0  0  0  0  0  0  0  0  0  0  0  0
   -9.9810    5.3573   -3.5950 C   0  0  0  0  0  0  0  0  0  0  0  0
  -10.9908    5.6366   -4.0647 N   0  0  0  0  0  0  0  0  0  0  0  0
   -4.8750    4.1128   -0.9595 C   0  0  0  0  0  0  0  0  0  0  0  0
   -4.4463    4.9146    0.1134 C   0  0  0  0  0  0  0  0  0  0  0  0
   -5.1938    6.0681    0.6977 C   0  0  0  0  0  0  0  0  0  0  0  0
   -6.2467    5.5868    1.7000 C   0  0  0  0  0  0  0  0  0  0  0  0
   -3.2353    4.4696    0.6231 C   0  0  0  0  0  0  0  0  0  0  0  0
   -2.2406    5.0466    1.9466 S   0  0  0  0  0  0  0  0  0  0  0  0
   -1.1121    3.7865    1.5961 C   0  0  0  0  0  0  0  0  0  0  0  0
    0.1243    3.3233    2.0555 C   0  0  0  0  0  0  0  0  0  0  0  0
    0.9716    3.8389    3.0607 C   0  0  0  0  0  0  0  0  0  0  0  0
    2.2440    3.2211    3.2701 C   0  0  0  0  0  0  0  0  0  0  0  0
    2.9539    3.8256    4.2097 N   0  0  0  0  0  0  0  0  0  0  0  0
    2.0878    5.0670    4.7846 S   0  0  0  0  0  0  0  0  0  0  0  0
    0.7763    4.8798    3.8549 N   0  0  0  0  0  0  0  0  0  0  0  0
    2.5698    2.0695    2.5204 C   0  0  0  0  0  0  0  0  0  0  0  0
    3.6902    1.2372    2.5911 C   0  0  0  0  0  0  0  0  0  0  0  0
    5.1850    1.1361    3.4515 S   0  0  0  0  0  0  0  0  0  0  0  0
    5.5311   -0.3574    2.5989 C   0  0  0  0  0  0  0  0  0  0  0  0
    6.6062   -1.2280    2.6527 C   0  0  0  0  0  0  0  0  0  0  0  0
    7.7991   -0.9885    3.5181 C   0  0  0  0  0  0  0  0  0  0  0  0
    8.9078   -0.2820    2.7325 C   0  0  0  0  0  0  0  0  0  0  0  0
    6.4412   -2.3044    1.7556 C   0  0  0  0  0  0  0  0  0  0  0  0
    4.9152   -2.2007    0.8700 S   0  0  0  0  0  0  0  0  0  0  0  0
    4.5215   -0.7396    1.6925 C   0  0  0  0  0  0  0  0  0  0  0  0
    3.4721    0.1816    1.6956 C   0  0  0  0  0  0  0  0  0  0  0  0
    2.2684    0.3476    1.0639 N   0  0  0  0  0  0  0  0  0  0  0  0
    1.6868    1.5072    1.5465 C   0  0  0  0  0  0  0  0  0  0  0  0
    0.4766    2.1947    1.2531 C   0  0  0  0  0  0  0  0  0  0  0  0
   -0.5291    2.0068    0.3192 N   0  0  0  0  0  0  0  0  0  0  0  0
   -1.4826    2.9676    0.5223 C   0  0  0  0  0  0  0  0  0  0  0  0
   -2.7031    3.3517   -0.0442 C   0  0  0  0  0  0  0  0  0  0  0  0
   -3.7322    2.8173   -1.3216 S   0  0  0  0  0  0  0  0  0  0  0  0
   -0.5487    1.2492   -0.9126 C   0  0  0  0  0  0  0  0  0  0  0  0
    0.5257    1.7358   -1.8826 C   0  0  0  0  0  0  0  0  0  0  0  0
    1.7015   -0.7655    0.3345 C   0  0  0  0  0  0  0  0  0  0  0  0
    0.5849   -1.4393    1.1285 C   0  0  0  0  0  0  0  0  0  0  0  0
    7.3893   -3.3131    1.6073 C   0  0  0  0  0  0  0  0  0  0  0  0
    7.4273   -4.4112    0.7728 C   0  0  0  0  0  0  0  0  0  0  0  0
    6.4116   -4.7721   -0.2129 C   0  0  0  0  0  0  0  0  0  0  0  0
    5.3600   -4.2070   -0.4451 O   0  0  0  0  0  0  0  0  0  0  0  0
    6.9217   -5.9898   -0.8870 C   0  0  0  0  0  0  0  0  0  0  0  0
    8.1605   -6.3491   -0.3273 C   0  0  0  0  0  0  0  0  0  0  0  0
    8.8443   -7.4591   -0.7919 C   0  0  0  0  0  0  0  0  0  0  0  0
    8.2715   -8.1975   -1.8183 C   0  0  0  0  0  0  0  0  0  0  0  0
    8.9157   -9.2712   -2.2821 F   0  0  0  0  0  0  0  0  0  0  0  0
    7.0453   -7.8546   -2.3823 C   0  0  0  0  0  0  0  0  0  0  0  0
    6.5276   -8.5911   -3.3694 F   0  0  0  0  0  0  0  0  0  0  0  0
    6.3602   -6.7334   -1.9085 C   0  0  0  0  0  0  0  0  0  0  0  0
    5.1892   -6.4064   -2.4488 F   0  0  0  0  0  0  0  0  0  0  0  0
    8.4950   -5.3821    0.7225 C   0  0  0  0  0  0  0  0  0  0  0  0
    9.6242   -5.4325    1.5021 C   0  0  0  0  0  0  0  0  0  0  0  0
    9.9619   -4.5205    2.5236 C   0  0  0  0  0  0  0  0  0  0  0  0
   10.3101   -3.8269    3.3712 N   0  0  0  0  0  0  0  0  0  0  0  0
   10.6207   -6.4249    1.3923 C   0  0  0  0  0  0  0  0  0  0  0  0
   11.4647   -7.2021    1.3550 N   0  0  0  0  0  0  0  0  0  0  0  0
   -6.6145    5.2020   -1.2629 H   0  0  0  0  0  0  0  0  0  0  0  0
   -6.3665    0.2867   -5.1550 H   0  0  0  0  0  0  0  0  0  0  0  0
   -7.5337   -1.0005   -6.9190 H   0  0  0  0  0  0  0  0  0  0  0  0
   -9.4847   -1.2963   -8.4248 H   0  0  0  0  0  0  0  0  0  0  0  0
  -11.2786    2.2430   -6.8556 H   0  0  0  0  0  0  0  0  0  0  0  0
  -10.1582    3.5239   -5.1111 H   0  0  0  0  0  0  0  0  0  0  0  0
   -5.6788    6.6577   -0.0816 H   0  0  0  0  0  0  0  0  0  0  0  0
   -4.4779    6.7094    1.2155 H   0  0  0  0  0  0  0  0  0  0  0  0
   -6.7715    6.4407    2.1186 H   0  0  0  0  0  0  0  0  0  0  0  0
   -5.7745    5.0346    2.5092 H   0  0  0  0  0  0  0  0  0  0  0  0
   -6.9740    4.9397    1.2154 H   0  0  0  0  0  0  0  0  0  0  0  0
    8.1839   -1.9239    3.9266 H   0  0  0  0  0  0  0  0  0  0  0  0
    7.4933   -0.3517    4.3505 H   0  0  0  0  0  0  0  0  0  0  0  0
    9.2329   -0.8900    1.8916 H   0  0  0  0  0  0  0  0  0  0  0  0
    8.5529    0.6738    2.3541 H   0  0  0  0  0  0  0  0  0  0  0  0
    9.7614   -0.1063    3.3806 H   0  0  0  0  0  0  0  0  0  0  0  0
   -1.5331    1.4086   -1.3591 H   0  0  0  0  0  0  0  0  0  0  0  0
   -0.4587    0.1828   -0.7090 H   0  0  0  0  0  0  0  0  0  0  0  0
    1.5164    1.6834   -1.4361 H   0  0  0  0  0  0  0  0  0  0  0  0
    0.5120    1.1299   -2.7842 H   0  0  0  0  0  0  0  0  0  0  0  0
    0.3340    2.7698   -2.1594 H   0  0  0  0  0  0  0  0  0  0  0  0
    2.5126   -1.4808    0.1788 H   0  0  0  0  0  0  0  0  0  0  0  0
    1.3627   -0.4472   -0.6501 H   0  0  0  0  0  0  0  0  0  0  0  0
    0.9812   -1.8411    2.0581 H   0  0  0  0  0  0  0  0  0  0  0  0
   -0.2072   -0.7351    1.3742 H   0  0  0  0  0  0  0  0  0  0  0  0
    0.1640   -2.2580    0.5516 H   0  0  0  0  0  0  0  0  0  0  0  0
    8.2431   -3.1952    2.2601 H   0  0  0  0  0  0  0  0  0  0  0  0
    9.7956   -7.7740   -0.3968 H   0  0  0  0  0  0  0  0  0  0  0  0
  1  2  2  0  0  0  0
  2  3  1  0  0  0  0
  3  4  2  0  0  0  0
  3  5  1  0  0  0  0
  5  6  2  0  0  0  0
  6  7  1  0  0  0  0
  7  8  2  0  0  0  0
  8  9  1  0  0  0  0
  9 10  2  0  0  0  0
 10 11  1  0  0  0  0
 10 12  1  0  0  0  0
 12 13  2  0  0  0  0
 13 14  1  0  0  0  0
 14 15  2  0  0  0  0
 15 16  1  0  0  0  0
 16 17  2  0  0  0  0
 17 18  1  0  0  0  0
 18 19  3  0  0  0  0
 17 20  1  0  0  0  0
 20 21  3  0  0  0  0
  1 22  1  0  0  0  0
 22 23  2  0  0  0  0
 23 24  1  0  0  0  0
 24 25  1  0  0  0  0
 23 26  1  0  0  0  0
 26 27  1  0  0  0  0
 27 28  1  0  0  0  0
 28 29  1  0  0  0  0
 29 30  1  0  0  0  0
 30 31  1  0  0  0  0
 31 32  2  0  0  0  0
 32 33  1  0  0  0  0
 33 34  1  0  0  0  0
 31 35  1  0  0  0  0
 35 36  1  0  0  0  0
 36 37  1  0  0  0  0
 37 38  1  0  0  0  0
 38 39  1  0  0  0  0
 39 40  1  0  0  0  0
 40 41  1  0  0  0  0
 39 42  2  0  0  0  0
 42 43  1  0  0  0  0
 43 44  1  0  0  0  0
 44 45  1  0  0  0  0
 45 46  1  0  0  0  0
 46 47  1  0  0  0  0
 47 48  1  0  0  0  0
 48 49  1  0  0  0  0
 49 50  1  0  0  0  0
 50 51  1  0  0  0  0
 51 52  1  0  0  0  0
 49 53  1  0  0  0  0
 53 54  1  0  0  0  0
 46 55  1  0  0  0  0
 55 56  1  0  0  0  0
 42 57  1  0  0  0  0
 57 58  2  0  0  0  0
 58 59  1  0  0  0  0
 59 60  2  0  0  0  0
 59 61  1  0  0  0  0
 61 62  2  0  0  0  0
 62 63  1  0  0  0  0
 63 64  2  0  0  0  0
 64 65  1  0  0  0  0
 64 66  1  0  0  0  0
 66 67  1  0  0  0  0
 66 68  2  0  0  0  0
 68 69  1  0  0  0  0
 62 70  1  0  0  0  0
 70 71  2  0  0  0  0
 71 72  1  0  0  0  0
 72 73  3  0  0  0  0
 71 74  1  0  0  0  0
 74 75  3  0  0  0  0
 16  2  1  0  0  0  0
 52 22  1  0  0  0  0
 70 58  1  0  0  0  0
 15  5  1  0  0  0  0
 51 26  2  0  0  0  0
 68 61  1  0  0  0  0
 13  7  1  0  0  0  0
 50 28  2  0  0  0  0
 48 29  2  0  0  0  0
 34 30  2  0  0  0  0
 47 35  2  0  0  0  0
 45 36  2  0  0  0  0
 44 38  2  0  0  0  0
  1 76  1  0  0  0  0
  6 77  1  0  0  0  0
  8 78  1  0  0  0  0
  9 79  1  0  0  0  0
 12 80  1  0  0  0  0
 14 81  1  0  0  0  0
 24 82  1  0  0  0  0
 24 83  1  0  0  0  0
 25 84  1  0  0  0  0
 25 85  1  0  0  0  0
 25 86  1  0  0  0  0
 40 87  1  0  0  0  0
 40 88  1  0  0  0  0
 41 89  1  0  0  0  0
 41 90  1  0  0  0  0
 41 91  1  0  0  0  0
 53 92  1  0  0  0  0
 53 93  1  0  0  0  0
 54 94  1  0  0  0  0
 54 95  1  0  0  0  0
 54 96  1  0  0  0  0
 55 97  1  0  0  0  0
 55 98  1  0  0  0  0
 56 99  1  0  0  0  0
 56100  1  0  0  0  0
 56101  1  0  0  0  0
 57102  1  0  0  0  0
 63103  1  0  0  0  0
M  END
