109

C         -4.67320       -4.60620       -4.64560
C         -4.22560       -4.35460       -5.92310
C         -3.25000       -3.33560       -6.30950
O         -2.65630       -2.55590       -5.58090
C         -3.11560       -3.42710       -7.77300
C         -2.33420       -2.68450       -8.60920
C         -2.36840       -2.94780       -9.99710
C         -1.58380       -2.21220      -10.90800
C         -1.62700       -2.47670      -12.24890
C         -2.46800       -3.49750      -12.71120
F         -2.49720       -3.74360      -14.03420
C         -3.24970       -4.24060      -11.87080
C         -3.21760       -3.98150      -10.48700
C         -4.01570       -4.73480       -9.59340
C         -3.96600       -4.46270       -8.25300
C         -4.65920       -5.05800       -7.11130
C         -5.54350       -6.10630       -7.18840
C         -6.21120       -6.70650       -6.10230
N         -6.79720       -7.24790       -5.27430
C         -5.90350       -6.74790       -8.39110
N         -6.24460       -7.30930       -9.33320
C         -4.33110       -4.02750       -3.42330
C         -4.90930       -4.42190       -2.20120
C         -5.99570       -5.43330       -2.03630
C         -7.36670       -4.80030       -2.29080
C         -4.38400       -3.70370       -1.13800
S         -4.70060       -3.74850        0.58780
C         -3.51290       -2.51030        0.80400
C         -2.95520       -1.74500        1.83520
C         -3.26990       -1.68380        3.21050
C         -2.60570       -0.71290        4.02840
N         -3.03030       -0.73070        5.28230
S         -4.16650       -1.87600        5.42160
N         -4.16080       -2.39150        3.88690
C         -1.59110        0.08240        3.45310
C         -0.72510        1.02040        4.03500
S         -0.43030        1.75540        5.57350
C          0.90710        2.63150        4.86960
C          1.81030        3.57830        5.40170
C          1.83310        3.94800        6.85060
C          2.39210        2.79370        7.68460
C          2.70170        4.00370        4.45230
S          2.43130        3.25560        2.88300
C          1.10070        2.35300        3.51850
C          0.16110        1.42870        3.03740
N         -0.13680        0.80400        1.85770
C         -1.22290       -0.03080        2.08210
C         -1.98180       -0.88690        1.23940
N         -1.98400       -1.11530       -0.12480
C         -2.90940       -2.09070       -0.38750
C         -3.40330       -2.76440       -1.50650
S         -3.12850       -2.75180       -3.20780
C         -1.48100       -0.30960       -1.21510
C         -2.07860        1.09510       -1.19310
C          0.84420        0.79760        0.79590
C          1.52390       -0.56390        0.67070
C          3.73040        5.02670        4.58040
C          3.36420        6.28920        5.01080
C          4.29660        7.31710        5.11330
C          5.61600        7.10050        4.77160
C          6.58240        8.20610        4.86750
O          6.27200        9.31640        5.24960
N          7.88440        7.92220        4.49020
C          8.85360        9.00970        4.58680
C          9.49320        9.05120        5.96860
C          8.36020        6.69030        4.07490
O          9.53040        6.53850        3.78820
C          7.37650        5.59570        3.99760
C          7.78830        4.34220        3.59700
C          6.87470        3.28820        3.54260
C          5.55690        3.49080        3.86340
C          5.08930        4.76420        4.24710
C          6.02730        5.82490        4.33690
H         -5.41830       -5.38450       -4.55470
H         -1.69770       -1.90510       -8.21760
H         -0.94340       -1.43040      -10.52770
H         -1.03340       -1.92310      -12.95910
H         -3.88580       -5.01920      -12.26200
H         -4.64730       -5.50840       -9.99880
H         -5.85560       -6.27750       -2.71300
H         -5.96080       -5.80690       -1.01110
H         -7.43190       -4.41850       -3.30700
H         -8.14640       -5.54350       -2.15160
H         -7.53830       -3.97880       -1.59890
H          0.81270        4.16420        7.17470
H          2.44720        4.83550        7.00340
H          1.78130        1.90290        7.56120
H          3.41040        2.56470        7.37690
H          2.40090        3.06420        8.73700
H         -0.39140       -0.28570       -1.20560
H         -1.78160       -0.81280       -2.13720
H         -1.86680        1.60140       -0.25390
H         -1.67190        1.68300       -2.01130
H         -3.15820        1.03960       -1.31170
H          1.59190        1.54950        1.06100
H          0.39630        1.11260       -0.14640
H          2.04270       -0.80570        1.59560
H          0.79870       -1.35020        0.47460
H          2.24930       -0.54360       -0.13810
H          2.32830        6.48670        5.24450
H          3.99960        8.30100        5.44340
H          8.31960        9.94050        4.38750
H          9.61260        8.83820        3.82160
H         10.01010        8.11580        6.17090
H         10.21130        9.86490        6.01530
H          8.73230        9.21130        6.72910
H          8.82650        4.19380        3.34110
H          7.21380        2.30600        3.25020
H          4.86630        2.66220        3.83300
