
  xtb     02012219403D
 energy: -201.976063068322 gnorm: 0.000267615411 xtb: 6.4.1 (unknown)
109122  0     0  0            999 V2000
   -2.4687    7.5515   -1.0322 C   0  0  0  0  0  0  0  0  0  0  0  0
   -1.6318    8.0167   -2.0209 C   0  0  0  0  0  0  0  0  0  0  0  0
   -0.6932    7.2130   -2.8043 C   0  0  0  0  0  0  0  0  0  0  0  0
   -0.5272    6.0040   -2.7592 O   0  0  0  0  0  0  0  0  0  0  0  0
    0.0324    8.1541   -3.6725 C   0  0  0  0  0  0  0  0  0  0  0  0
    1.0302    7.8973   -4.5668 C   0  0  0  0  0  0  0  0  0  0  0  0
    1.6013    8.9706   -5.2864 C   0  0  0  0  0  0  0  0  0  0  0  0
    2.6390    8.7657   -6.2179 C   0  0  0  0  0  0  0  0  0  0  0  0
    3.1868    9.8139   -6.9040 C   0  0  0  0  0  0  0  0  0  0  0  0
    2.6994   11.1063   -6.6684 C   0  0  0  0  0  0  0  0  0  0  0  0
    3.2513   12.1255   -7.3523 F   0  0  0  0  0  0  0  0  0  0  0  0
    1.6943   11.3600   -5.7768 C   0  0  0  0  0  0  0  0  0  0  0  0
    1.1191   10.2923   -5.0611 C   0  0  0  0  0  0  0  0  0  0  0  0
    0.0799   10.5253   -4.1290 C   0  0  0  0  0  0  0  0  0  0  0  0
   -0.4574    9.4704   -3.4418 C   0  0  0  0  0  0  0  0  0  0  0  0
   -1.5087    9.4012   -2.4277 C   0  0  0  0  0  0  0  0  0  0  0  0
   -2.2288   10.4762   -1.9683 C   0  0  0  0  0  0  0  0  0  0  0  0
   -2.0446   11.8000   -2.4182 C   0  0  0  0  0  0  0  0  0  0  0  0
   -1.9485   12.8989   -2.7371 N   0  0  0  0  0  0  0  0  0  0  0  0
   -3.2508   10.4335   -0.9986 C   0  0  0  0  0  0  0  0  0  0  0  0
   -4.0928   10.4842   -0.2176 N   0  0  0  0  0  0  0  0  0  0  0  0
   -2.6445    6.2688   -0.5100 C   0  0  0  0  0  0  0  0  0  0  0  0
   -3.5138    5.9911    0.5629 C   0  0  0  0  0  0  0  0  0  0  0  0
   -4.4267    6.9727    1.2213 C   0  0  0  0  0  0  0  0  0  0  0  0
   -5.7099    7.1536    0.4054 C   0  0  0  0  0  0  0  0  0  0  0  0
   -3.4573    4.6539    0.9263 C   0  0  0  0  0  0  0  0  0  0  0  0
   -4.2377    3.7413    2.2076 S   0  0  0  0  0  0  0  0  0  0  0  0
   -3.3512    2.3423    1.7073 C   0  0  0  0  0  0  0  0  0  0  0  0
   -3.1329    1.0213    2.1146 C   0  0  0  0  0  0  0  0  0  0  0  0
   -3.5927    0.3312    3.2580 C   0  0  0  0  0  0  0  0  0  0  0  0
   -3.0629   -0.9692    3.5371 C   0  0  0  0  0  0  0  0  0  0  0  0
   -3.5302   -1.4754    4.6674 N   0  0  0  0  0  0  0  0  0  0  0  0
   -4.5548   -0.4061    5.3217 S   0  0  0  0  0  0  0  0  0  0  0  0
   -4.4380    0.7446    4.1888 N   0  0  0  0  0  0  0  0  0  0  0  0
   -2.1820   -1.5596    2.6045 C   0  0  0  0  0  0  0  0  0  0  0  0
   -1.5938   -2.8307    2.5915 C   0  0  0  0  0  0  0  0  0  0  0  0
   -1.4762   -4.2304    3.5966 S   0  0  0  0  0  0  0  0  0  0  0  0
   -0.5026   -5.0085    2.3681 C   0  0  0  0  0  0  0  0  0  0  0  0
    0.1649   -6.2410    2.3239 C   0  0  0  0  0  0  0  0  0  0  0  0
    0.0406   -7.2996    3.3670 C   0  0  0  0  0  0  0  0  0  0  0  0
   -1.4181   -7.6397    3.6697 C   0  0  0  0  0  0  0  0  0  0  0  0
    0.8577   -6.3875    1.1291 C   0  0  0  0  0  0  0  0  0  0  0  0
    0.6132   -5.0255    0.0349 S   0  0  0  0  0  0  0  0  0  0  0  0
   -0.3168   -4.2073    1.2317 C   0  0  0  0  0  0  0  0  0  0  0  0
   -0.9187   -2.9535    1.3729 C   0  0  0  0  0  0  0  0  0  0  0  0
   -1.0485   -1.7992    0.6501 N   0  0  0  0  0  0  0  0  0  0  0  0
   -1.7981   -0.9061    1.3950 C   0  0  0  0  0  0  0  0  0  0  0  0
   -2.1979    0.4457    1.1982 C   0  0  0  0  0  0  0  0  0  0  0  0
   -1.8421    1.4222    0.2895 N   0  0  0  0  0  0  0  0  0  0  0  0
   -2.5316    2.5630    0.5944 C   0  0  0  0  0  0  0  0  0  0  0  0
   -2.5720    3.8858    0.1486 C   0  0  0  0  0  0  0  0  0  0  0  0
   -1.7841    4.8281   -1.0587 S   0  0  0  0  0  0  0  0  0  0  0  0
   -0.8398    1.4806   -0.7485 C   0  0  0  0  0  0  0  0  0  0  0  0
   -1.4614    1.4141   -2.1432 C   0  0  0  0  0  0  0  0  0  0  0  0
   -0.5817   -1.7717   -0.7166 C   0  0  0  0  0  0  0  0  0  0  0  0
    0.9355   -1.6001   -0.8018 C   0  0  0  0  0  0  0  0  0  0  0  0
    1.6920   -7.4294    0.6678 C   0  0  0  0  0  0  0  0  0  0  0  0
    2.6095   -8.1066    1.4230 C   0  0  0  0  0  0  0  0  0  0  0  0
    3.1846   -7.5811    2.6841 C   0  0  0  0  0  0  0  0  0  0  0  0
    2.7870   -6.6518    3.3548 O   0  0  0  0  0  0  0  0  0  0  0  0
    4.4265   -8.3516    2.8919 C   0  0  0  0  0  0  0  0  0  0  0  0
    5.3719   -8.1925    3.8631 C   0  0  0  0  0  0  0  0  0  0  0  0
    6.5155   -9.0223    3.8538 C   0  0  0  0  0  0  0  0  0  0  0  0
    7.5281   -8.8917    4.8258 C   0  0  0  0  0  0  0  0  0  0  0  0
    8.6381   -9.6895    4.7986 C   0  0  0  0  0  0  0  0  0  0  0  0
    8.7569  -10.6509    3.7860 C   0  0  0  0  0  0  0  0  0  0  0  0
    9.8566  -11.4262    3.7748 F   0  0  0  0  0  0  0  0  0  0  0  0
    7.8035  -10.8214    2.8210 C   0  0  0  0  0  0  0  0  0  0  0  0
    6.6551  -10.0062    2.8320 C   0  0  0  0  0  0  0  0  0  0  0  0
    5.6565  -10.1509    1.8404 C   0  0  0  0  0  0  0  0  0  0  0  0
    4.5586   -9.3338    1.8698 C   0  0  0  0  0  0  0  0  0  0  0  0
    3.4055   -9.2318    0.9836 C   0  0  0  0  0  0  0  0  0  0  0  0
    3.0783  -10.0942   -0.0303 C   0  0  0  0  0  0  0  0  0  0  0  0
    1.8891  -10.0013   -0.7830 C   0  0  0  0  0  0  0  0  0  0  0  0
    0.9260   -9.9871   -1.4082 N   0  0  0  0  0  0  0  0  0  0  0  0
    3.8660  -11.1994   -0.4094 C   0  0  0  0  0  0  0  0  0  0  0  0
    4.4753  -12.1070   -0.7603 N   0  0  0  0  0  0  0  0  0  0  0  0
   -3.0862    8.2967   -0.5500 H   0  0  0  0  0  0  0  0  0  0  0  0
    1.3823    6.8883   -4.7213 H   0  0  0  0  0  0  0  0  0  0  0  0
    2.9979    7.7606   -6.3817 H   0  0  0  0  0  0  0  0  0  0  0  0
    3.9818    9.6747   -7.6193 H   0  0  0  0  0  0  0  0  0  0  0  0
    1.3441   12.3684   -5.6209 H   0  0  0  0  0  0  0  0  0  0  0  0
   -0.2594   11.5378   -3.9826 H   0  0  0  0  0  0  0  0  0  0  0  0
   -3.9395    7.9408    1.3466 H   0  0  0  0  0  0  0  0  0  0  0  0
   -4.6836    6.5883    2.2103 H   0  0  0  0  0  0  0  0  0  0  0  0
   -6.3675    7.8574    0.9073 H   0  0  0  0  0  0  0  0  0  0  0  0
   -5.4855    7.5406   -0.5856 H   0  0  0  0  0  0  0  0  0  0  0  0
   -6.2282    6.2034    0.2996 H   0  0  0  0  0  0  0  0  0  0  0  0
    0.5592   -8.1989    3.0321 H   0  0  0  0  0  0  0  0  0  0  0  0
    0.5354   -6.9469    4.2757 H   0  0  0  0  0  0  0  0  0  0  0  0
   -1.9276   -7.9627    2.7643 H   0  0  0  0  0  0  0  0  0  0  0  0
   -1.4605   -8.4476    4.3956 H   0  0  0  0  0  0  0  0  0  0  0  0
   -1.9450   -6.7829    4.0799 H   0  0  0  0  0  0  0  0  0  0  0  0
   -0.1078    0.6948   -0.5925 H   0  0  0  0  0  0  0  0  0  0  0  0
   -0.3247    2.4419   -0.6482 H   0  0  0  0  0  0  0  0  0  0  0  0
   -2.1169    0.5518   -2.2503 H   0  0  0  0  0  0  0  0  0  0  0  0
   -2.0475    2.3091   -2.3322 H   0  0  0  0  0  0  0  0  0  0  0  0
   -0.6766    1.3570   -2.8918 H   0  0  0  0  0  0  0  0  0  0  0  0
   -1.1084   -0.9939   -1.2625 H   0  0  0  0  0  0  0  0  0  0  0  0
   -0.8467   -2.7331   -1.1708 H   0  0  0  0  0  0  0  0  0  0  0  0
    1.2316   -1.4658   -1.8383 H   0  0  0  0  0  0  0  0  0  0  0  0
    1.4356   -2.4832   -0.4143 H   0  0  0  0  0  0  0  0  0  0  0  0
    1.2771   -0.7447   -0.2229 H   0  0  0  0  0  0  0  0  0  0  0  0
    1.6552   -7.6250   -0.3983 H   0  0  0  0  0  0  0  0  0  0  0  0
    5.2518   -7.4386    4.6267 H   0  0  0  0  0  0  0  0  0  0  0  0
    7.4141   -8.1433    5.5956 H   0  0  0  0  0  0  0  0  0  0  0  0
    9.4235   -9.5995    5.5321 H   0  0  0  0  0  0  0  0  0  0  0  0
    7.9280  -11.5724    2.0566 H   0  0  0  0  0  0  0  0  0  0  0  0
    5.7926  -10.8963    1.0730 H   0  0  0  0  0  0  0  0  0  0  0  0
  1  2  2  0  0  0  0
  2  3  1  0  0  0  0
  3  4  2  0  0  0  0
  3  5  1  0  0  0  0
  5  6  2  0  0  0  0
  6  7  1  0  0  0  0
  7  8  2  0  0  0  0
  8  9  1  0  0  0  0
  9 10  2  0  0  0  0
 10 11  1  0  0  0  0
 10 12  1  0  0  0  0
 12 13  2  0  0  0  0
 13 14  1  0  0  0  0
 14 15  2  0  0  0  0
 15 16  1  0  0  0  0
 16 17  2  0  0  0  0
 17 18  1  0  0  0  0
 18 19  3  0  0  0  0
 17 20  1  0  0  0  0
 20 21  3  0  0  0  0
  1 22  1  0  0  0  0
 22 23  2  0  0  0  0
 23 24  1  0  0  0  0
 24 25  1  0  0  0  0
 23 26  1  0  0  0  0
 26 27  1  0  0  0  0
 27 28  1  0  0  0  0
 28 29  1  0  0  0  0
 29 30  1  0  0  0  0
 30 31  1  0  0  0  0
 31 32  2  0  0  0  0
 32 33  1  0  0  0  0
 33 34  1  0  0  0  0
 31 35  1  0  0  0  0
 35 36  1  0  0  0  0
 36 37  1  0  0  0  0
 37 38  1  0  0  0  0
 38 39  1  0  0  0  0
 39 40  1  0  0  0  0
 40 41  1  0  0  0  0
 39 42  2  0  0  0  0
 42 43  1  0  0  0  0
 43 44  1  0  0  0  0
 44 45  1  0  0  0  0
 45 46  1  0  0  0  0
 46 47  1  0  0  0  0
 47 48  1  0  0  0  0
 48 49  1  0  0  0  0
 49 50  1  0  0  0  0
 50 51  1  0  0  0  0
 51 52  1  0  0  0  0
 49 53  1  0  0  0  0
 53 54  1  0  0  0  0
 46 55  1  0  0  0  0
 55 56  1  0  0  0  0
 42 57  1  0  0  0  0
 57 58  2  0  0  0  0
 58 59  1  0  0  0  0
 59 60  2  0  0  0  0
 59 61  1  0  0  0  0
 61 62  2  0  0  0  0
 62 63  1  0  0  0  0
 63 64  2  0  0  0  0
 64 65  1  0  0  0  0
 65 66  2  0  0  0  0
 66 67  1  0  0  0  0
 66 68  1  0  0  0  0
 68 69  2  0  0  0  0
 69 70  1  0  0  0  0
 70 71  2  0  0  0  0
 71 72  1  0  0  0  0
 72 73  2  0  0  0  0
 73 74  1  0  0  0  0
 74 75  3  0  0  0  0
 73 76  1  0  0  0  0
 76 77  3  0  0  0  0
 16  2  1  0  0  0  0
 52 22  1  0  0  0  0
 72 58  1  0  0  0  0
 15  5  1  0  0  0  0
 51 26  2  0  0  0  0
 71 61  1  0  0  0  0
 13  7  1  0  0  0  0
 50 28  2  0  0  0  0
 69 63  1  0  0  0  0
 48 29  2  0  0  0  0
 34 30  2  0  0  0  0
 47 35  2  0  0  0  0
 45 36  2  0  0  0  0
 44 38  2  0  0  0  0
  1 78  1  0  0  0  0
  6 79  1  0  0  0  0
  8 80  1  0  0  0  0
  9 81  1  0  0  0  0
 12 82  1  0  0  0  0
 14 83  1  0  0  0  0
 24 84  1  0  0  0  0
 24 85  1  0  0  0  0
 25 86  1  0  0  0  0
 25 87  1  0  0  0  0
 25 88  1  0  0  0  0
 40 89  1  0  0  0  0
 40 90  1  0  0  0  0
 41 91  1  0  0  0  0
 41 92  1  0  0  0  0
 41 93  1  0  0  0  0
 53 94  1  0  0  0  0
 53 95  1  0  0  0  0
 54 96  1  0  0  0  0
 54 97  1  0  0  0  0
 54 98  1  0  0  0  0
 55 99  1  0  0  0  0
 55100  1  0  0  0  0
 56101  1  0  0  0  0
 56102  1  0  0  0  0
 56103  1  0  0  0  0
 57104  1  0  0  0  0
 62105  1  0  0  0  0
 64106  1  0  0  0  0
 65107  1  0  0  0  0
 68108  1  0  0  0  0
 70109  1  0  0  0  0
M  END
