103

C         -4.20030       -2.69120        4.95510
C         -3.81220       -1.94070        6.04000
C         -2.86460       -0.82470        6.02170
O         -2.24860       -0.38660        5.06330
C         -2.79410       -0.32070        7.40250
C         -2.05790        0.71550        7.89840
C         -2.14590        1.02500        9.27400
C         -1.40900        2.08440        9.84100
C         -1.50270        2.37310       11.17420
C         -2.34760        1.59610       11.97790
F         -2.42650        1.89470       13.28740
C         -3.08440        0.55790       11.47870
C         -3.00020        0.24690       10.10780
C         -3.75140       -0.82150        9.56300
C         -3.65080       -1.10320        8.22710
C         -4.28970       -2.12210        7.39580
C         -5.16830       -3.07270        7.85300
C         -5.79110       -4.06690        7.07170
N         -6.33270       -4.90930        6.50720
C         -5.57370       -3.19110        9.19870
N         -5.94840       -3.34350       10.27330
C         -3.80890       -2.63810        3.61480
C         -4.33740       -3.49730        2.63290
C         -5.40860       -4.51580        2.84760
C         -6.79480       -3.86720        2.79570
C         -3.77320       -3.24950        1.38980
S         -4.02070       -3.97550       -0.18810
C         -2.82260       -2.90890       -0.83470
C         -2.21560       -2.61500       -2.06550
C         -2.46410       -3.03710       -3.39310
C         -1.74950       -2.41150       -4.47480
N         -2.14510       -2.85010       -5.65850
S         -3.30500       -3.95750       -5.43890
N         -3.35170       -3.91930       -3.82220
C         -0.70440       -1.50450       -4.17850
C          0.26070       -0.86220       -4.96840
S          0.65520       -0.65580       -6.63910
C          2.05500        0.28780       -6.16170
C          3.05480        0.91090       -6.89150
C          3.07850        0.92830       -8.38450
C          2.45340        2.21890       -8.92230
C          3.98230        1.55290       -6.04590
S          3.57100        1.36070       -4.33810
C          2.19090        0.42520       -4.76700
C          1.15960       -0.23000       -4.09390
N          0.77320       -0.43770       -2.79270
C         -0.38560       -1.18550       -2.82980
C         -1.25100       -1.60520       -1.79770
N         -1.31990       -1.24090       -0.46850
C         -2.26680       -2.04210        0.11920
C         -2.80970       -2.22530        1.39230
S         -2.60170       -1.53110        2.95470
C         -1.00920        0.05950        0.09250
C         -2.26410        0.92350        0.21010
C          1.75210       -0.40760       -1.72330
C          2.88630       -1.39790       -1.98480
C          5.09790        2.23570       -6.52940
C          6.09670        2.92080       -5.87300
C          6.19630        3.12900       -4.42980
O          5.44920        2.72150       -3.55750
C          7.40810        3.94920       -4.21910
C          7.92740        4.42330       -3.03150
C          9.08690        5.17950       -3.09450
F          9.62590        5.66110       -1.96730
C          9.69650        5.44360       -4.32060
F         10.81470        6.17740       -4.35270
C          9.17370        4.96540       -5.51370
C          8.01420        4.20870       -5.45960
C          7.22160        3.56950       -6.51270
C          7.53160        3.58870       -7.84910
C          8.66160        4.23880       -8.38890
N          9.56210        4.74320       -8.89090
C          6.79130        2.96940       -8.87740
N          6.24740        2.49260       -9.77050
H         -4.93470       -3.45960        5.15370
H         -1.41620        1.29260        7.24950
H         -0.76470        2.66860        9.20120
H         -0.94600        3.17990       11.62380
H         -3.72460       -0.01910       12.12750
H         -4.38840       -1.38830       10.22240
H         -5.33440       -5.26080        2.05280
H         -5.28290       -5.02400        3.80470
H         -6.95390       -3.39060        1.83110
H         -7.55990       -4.62410        2.94210
H         -6.89890       -3.11690        3.57590
H          4.09700        0.83410       -8.76370
H          2.49930        0.07580       -8.74460
H          3.00710        3.08890       -8.57730
H          2.46880        2.20930      -10.00820
H          1.42250        2.30800       -8.58760
H         -0.56640       -0.08400        1.08280
H         -0.30190        0.57020       -0.55800
H         -2.73840        1.03410       -0.76290
H         -2.97710        0.48440        0.90170
H         -1.99010        1.90740        0.57970
H          2.15700        0.60620       -1.64800
H          1.26800       -0.68230       -0.78830
H          3.44430       -1.12760       -2.87640
H          3.56850       -1.39440       -1.13960
H          2.48810       -2.40280       -2.10940
H          5.17730        2.21290       -7.60740
H          7.45240        4.21630       -2.08590
H          9.68440        5.19900       -6.43320
