
  xtb     02012221333D
 energy: -167.294366807094 gnorm: 0.000754727565 xtb: 6.4.1 (unknown)
 90100  0     0  0            999 V2000
    0.1156   -5.1173    2.3223 C   0  0  0  0  0  0  0  0  0  0  0  0
   -0.1483   -5.8580    1.1951 C   0  0  0  0  0  0  0  0  0  0  0  0
   -0.5263   -5.3274   -0.1168 C   0  0  0  0  0  0  0  0  0  0  0  0
   -0.7260   -4.1617   -0.4182 O   0  0  0  0  0  0  0  0  0  0  0  0
   -0.6224   -6.4863   -1.0182 C   0  0  0  0  0  0  0  0  0  0  0  0
   -0.9234   -6.5123   -2.3489 C   0  0  0  0  0  0  0  0  0  0  0  0
   -0.9505   -7.7531   -3.0234 C   0  0  0  0  0  0  0  0  0  0  0  0
   -1.2524   -7.8399   -4.3976 C   0  0  0  0  0  0  0  0  0  0  0  0
   -1.2727   -9.0471   -5.0392 C   0  0  0  0  0  0  0  0  0  0  0  0
   -0.9877  -10.2081   -4.3080 C   0  0  0  0  0  0  0  0  0  0  0  0
   -1.0123  -11.3866   -4.9562 F   0  0  0  0  0  0  0  0  0  0  0  0
   -0.6891  -10.1799   -2.9738 C   0  0  0  0  0  0  0  0  0  0  0  0
   -0.6636   -8.9452   -2.2972 C   0  0  0  0  0  0  0  0  0  0  0  0
   -0.3578   -8.8853   -0.9168 C   0  0  0  0  0  0  0  0  0  0  0  0
   -0.3378   -7.6718   -0.2834 C   0  0  0  0  0  0  0  0  0  0  0  0
   -0.0607   -7.3018    1.1034 C   0  0  0  0  0  0  0  0  0  0  0  0
    0.2104   -8.1881    2.1157 C   0  0  0  0  0  0  0  0  0  0  0  0
    0.2728   -9.5868    1.9447 C   0  0  0  0  0  0  0  0  0  0  0  0
    0.3420  -10.7308    1.8765 N   0  0  0  0  0  0  0  0  0  0  0  0
    0.4527   -7.8533    3.4635 C   0  0  0  0  0  0  0  0  0  0  0  0
    0.6552   -7.6620    4.5789 N   0  0  0  0  0  0  0  0  0  0  0  0
    0.0857   -3.7367    2.5412 C   0  0  0  0  0  0  0  0  0  0  0  0
    0.4433   -3.1542    3.7714 C   0  0  0  0  0  0  0  0  0  0  0  0
    0.9299   -3.8883    4.9778 C   0  0  0  0  0  0  0  0  0  0  0  0
    2.4292   -4.1811    4.8709 C   0  0  0  0  0  0  0  0  0  0  0  0
    0.3453   -1.7707    3.7209 C   0  0  0  0  0  0  0  0  0  0  0  0
    0.6761   -0.5164    4.9022 S   0  0  0  0  0  0  0  0  0  0  0  0
    0.2207    0.6691    3.7282 C   0  0  0  0  0  0  0  0  0  0  0  0
    0.1026    2.0635    3.6169 C   0  0  0  0  0  0  0  0  0  0  0  0
    0.2177    3.1224    4.5480 C   0  0  0  0  0  0  0  0  0  0  0  0
   -0.1126    4.4609    4.1347 C   0  0  0  0  0  0  0  0  0  0  0  0
   -0.0310    5.3291    5.1298 N   0  0  0  0  0  0  0  0  0  0  0  0
    0.4280    4.5414    6.4669 S   0  0  0  0  0  0  0  0  0  0  0  0
    0.5389    3.0588    5.8300 N   0  0  0  0  0  0  0  0  0  0  0  0
   -0.3994    4.7111    2.7722 C   0  0  0  0  0  0  0  0  0  0  0  0
   -0.6083    5.8890    2.0373 C   0  0  0  0  0  0  0  0  0  0  0  0
   -0.7822    7.5869    2.3107 S   0  0  0  0  0  0  0  0  0  0  0  0
   -0.9448    7.8236    0.5837 C   0  0  0  0  0  0  0  0  0  0  0  0
   -1.1500    8.9694   -0.1887 C   0  0  0  0  0  0  0  0  0  0  0  0
   -1.2271   10.3212    0.4409 C   0  0  0  0  0  0  0  0  0  0  0  0
    0.1577   10.9726    0.4973 C   0  0  0  0  0  0  0  0  0  0  0  0
   -1.2240    8.6488   -1.5456 C   0  0  0  0  0  0  0  0  0  0  0  0
   -1.0460    6.9119   -1.8332 S   0  0  0  0  0  0  0  0  0  0  0  0
   -0.8602    6.6298   -0.1471 C   0  0  0  0  0  0  0  0  0  0  0  0
   -0.6706    5.5254    0.6830 C   0  0  0  0  0  0  0  0  0  0  0  0
   -0.5288    4.1664    0.5513 N   0  0  0  0  0  0  0  0  0  0  0  0
   -0.3967    3.6509    1.8260 C   0  0  0  0  0  0  0  0  0  0  0  0
   -0.3111    2.3183    2.2805 C   0  0  0  0  0  0  0  0  0  0  0  0
   -0.5095    1.1220    1.6216 N   0  0  0  0  0  0  0  0  0  0  0  0
   -0.1691    0.1208    2.4967 C   0  0  0  0  0  0  0  0  0  0  0  0
   -0.1011   -1.2739    2.4839 C   0  0  0  0  0  0  0  0  0  0  0  0
   -0.3858   -2.5308    1.3413 S   0  0  0  0  0  0  0  0  0  0  0  0
   -1.4550    0.8685    0.5512 C   0  0  0  0  0  0  0  0  0  0  0  0
   -2.7649    0.3001    1.0955 C   0  0  0  0  0  0  0  0  0  0  0  0
    0.0059    3.5994   -0.6723 C   0  0  0  0  0  0  0  0  0  0  0  0
    1.3714    4.1971   -1.0091 C   0  0  0  0  0  0  0  0  0  0  0  0
   -1.4215    9.5130   -2.6543 C   0  0  0  0  0  0  0  0  0  0  0  0
   -1.5752    9.1314   -3.9751 C   0  0  0  0  0  0  0  0  0  0  0  0
   -1.5772    7.8136   -4.4639 C   0  0  0  0  0  0  0  0  0  0  0  0
   -1.5926    6.7665   -4.9367 N   0  0  0  0  0  0  0  0  0  0  0  0
   -1.7624   10.1013   -4.9844 C   0  0  0  0  0  0  0  0  0  0  0  0
   -1.9196   10.8656   -5.8246 N   0  0  0  0  0  0  0  0  0  0  0  0
   -1.4561   10.9203   -2.4627 C   0  0  0  0  0  0  0  0  0  0  0  0
   -1.4754   12.0639   -2.3940 N   0  0  0  0  0  0  0  0  0  0  0  0
    0.4135   -5.6800    3.1963 H   0  0  0  0  0  0  0  0  0  0  0  0
   -1.1365   -5.5972   -2.8810 H   0  0  0  0  0  0  0  0  0  0  0  0
   -1.4685   -6.9314   -4.9397 H   0  0  0  0  0  0  0  0  0  0  0  0
   -1.5013   -9.1310   -6.0898 H   0  0  0  0  0  0  0  0  0  0  0  0
   -0.4751  -11.0941   -2.4426 H   0  0  0  0  0  0  0  0  0  0  0  0
   -0.1446   -9.8062   -0.3988 H   0  0  0  0  0  0  0  0  0  0  0  0
    0.7525   -3.2599    5.8529 H   0  0  0  0  0  0  0  0  0  0  0  0
    0.3868   -4.8245    5.1141 H   0  0  0  0  0  0  0  0  0  0  0  0
    2.9902   -3.2542    4.7762 H   0  0  0  0  0  0  0  0  0  0  0  0
    2.6401   -4.8048    4.0054 H   0  0  0  0  0  0  0  0  0  0  0  0
    2.7655   -4.7036    5.7618 H   0  0  0  0  0  0  0  0  0  0  0  0
   -1.9161   10.9684   -0.1003 H   0  0  0  0  0  0  0  0  0  0  0  0
   -1.5997   10.1950    1.4601 H   0  0  0  0  0  0  0  0  0  0  0  0
    0.5498   11.1349   -0.5038 H   0  0  0  0  0  0  0  0  0  0  0  0
    0.8505   10.3408    1.0486 H   0  0  0  0  0  0  0  0  0  0  0  0
    0.0895   11.9344    0.9970 H   0  0  0  0  0  0  0  0  0  0  0  0
   -1.0082    0.1578   -0.1508 H   0  0  0  0  0  0  0  0  0  0  0  0
   -1.6749    1.8041    0.0404 H   0  0  0  0  0  0  0  0  0  0  0  0
   -3.1915    0.9757    1.8341 H   0  0  0  0  0  0  0  0  0  0  0  0
   -3.4723    0.1822    0.2797 H   0  0  0  0  0  0  0  0  0  0  0  0
   -2.6083   -0.6708    1.5560 H   0  0  0  0  0  0  0  0  0  0  0  0
   -0.6978    3.7967   -1.4872 H   0  0  0  0  0  0  0  0  0  0  0  0
    0.1261    2.5258   -0.5451 H   0  0  0  0  0  0  0  0  0  0  0  0
    2.0665    4.0346   -0.1880 H   0  0  0  0  0  0  0  0  0  0  0  0
    1.7642    3.7167   -1.9004 H   0  0  0  0  0  0  0  0  0  0  0  0
    1.2991    5.2641   -1.1995 H   0  0  0  0  0  0  0  0  0  0  0  0
  1  2  2  0  0  0  0
  2  3  1  0  0  0  0
  3  4  2  0  0  0  0
  3  5  1  0  0  0  0
  5  6  2  0  0  0  0
  6  7  1  0  0  0  0
  7  8  2  0  0  0  0
  8  9  1  0  0  0  0
  9 10  2  0  0  0  0
 10 11  1  0  0  0  0
 10 12  1  0  0  0  0
 12 13  2  0  0  0  0
 13 14  1  0  0  0  0
 14 15  2  0  0  0  0
 15 16  1  0  0  0  0
 16 17  2  0  0  0  0
 17 18  1  0  0  0  0
 18 19  3  0  0  0  0
 17 20  1  0  0  0  0
 20 21  3  0  0  0  0
  1 22  1  0  0  0  0
 22 23  2  0  0  0  0
 23 24  1  0  0  0  0
 24 25  1  0  0  0  0
 23 26  1  0  0  0  0
 26 27  1  0  0  0  0
 27 28  1  0  0  0  0
 28 29  1  0  0  0  0
 29 30  1  0  0  0  0
 30 31  1  0  0  0  0
 31 32  2  0  0  0  0
 32 33  1  0  0  0  0
 33 34  1  0  0  0  0
 31 35  1  0  0  0  0
 35 36  1  0  0  0  0
 36 37  1  0  0  0  0
 37 38  1  0  0  0  0
 38 39  1  0  0  0  0
 39 40  1  0  0  0  0
 40 41  1  0  0  0  0
 39 42  2  0  0  0  0
 42 43  1  0  0  0  0
 43 44  1  0  0  0  0
 44 45  1  0  0  0  0
 45 46  1  0  0  0  0
 46 47  1  0  0  0  0
 47 48  1  0  0  0  0
 48 49  1  0  0  0  0
 49 50  1  0  0  0  0
 50 51  1  0  0  0  0
 51 52  1  0  0  0  0
 49 53  1  0  0  0  0
 53 54  1  0  0  0  0
 46 55  1  0  0  0  0
 55 56  1  0  0  0  0
 42 57  1  0  0  0  0
 57 58  2  0  0  0  0
 58 59  1  0  0  0  0
 59 60  3  0  0  0  0
 58 61  1  0  0  0  0
 61 62  3  0  0  0  0
 57 63  1  0  0  0  0
 63 64  3  0  0  0  0
 16  2  1  0  0  0  0
 52 22  1  0  0  0  0
 15  5  1  0  0  0  0
 51 26  2  0  0  0  0
 13  7  1  0  0  0  0
 50 28  2  0  0  0  0
 48 29  2  0  0  0  0
 34 30  2  0  0  0  0
 47 35  2  0  0  0  0
 45 36  2  0  0  0  0
 44 38  2  0  0  0  0
  1 65  1  0  0  0  0
  6 66  1  0  0  0  0
  8 67  1  0  0  0  0
  9 68  1  0  0  0  0
 12 69  1  0  0  0  0
 14 70  1  0  0  0  0
 24 71  1  0  0  0  0
 24 72  1  0  0  0  0
 25 73  1  0  0  0  0
 25 74  1  0  0  0  0
 25 75  1  0  0  0  0
 40 76  1  0  0  0  0
 40 77  1  0  0  0  0
 41 78  1  0  0  0  0
 41 79  1  0  0  0  0
 41 80  1  0  0  0  0
 53 81  1  0  0  0  0
 53 82  1  0  0  0  0
 54 83  1  0  0  0  0
 54 84  1  0  0  0  0
 54 85  1  0  0  0  0
 55 86  1  0  0  0  0
 55 87  1  0  0  0  0
 56 88  1  0  0  0  0
 56 89  1  0  0  0  0
 56 90  1  0  0  0  0
M  END
