103

C         -1.65200        0.26620       -6.63790
C         -1.14920        1.50220       -6.97220
C         -0.47660        2.43310       -6.06470
O         -0.22990        2.27110       -4.87990
C         -0.15740        3.62850       -6.86180
C          0.46140        4.77930       -6.46880
C          0.66080        5.81030       -7.41400
C          1.29270        7.02070       -7.06430
C          1.47720        8.01150       -7.98850
C          1.02680        7.80770       -9.29960
F          1.21660        8.79410      -10.19490
C          0.40870        6.65260       -9.69140
C          0.21050        5.62190       -8.75260
C         -0.42680        4.41590       -9.12950
C         -0.60900        3.43040       -8.19710
C         -1.22220        2.10620       -8.28680
C         -1.75190        1.56140       -9.43040
C         -1.78200        2.21910      -10.67760
N         -1.83750        2.69500      -11.72110
C         -2.33370        0.28270       -9.54520
N         -2.81950       -0.74420       -9.72130
C         -1.64330       -0.43140       -5.42790
C         -2.21820       -1.70740       -5.27830
C         -2.86000       -2.50990       -6.36210
C         -1.80430       -3.26540       -7.17440
C         -2.06070       -2.18380       -3.98520
S         -2.54220       -3.68620       -3.21870
C         -1.81940       -3.12950       -1.75040
C         -1.55030       -3.60340       -0.46070
C         -1.73440       -4.87780        0.12280
C         -1.15000       -5.14440        1.40590
N         -1.33050       -6.39710        1.79230
S         -2.17090       -7.17290        0.64700
N         -2.33230       -5.94080       -0.39050
C         -0.52480       -4.08800        2.10620
C          0.05170       -4.02940        3.38260
S          0.42760       -5.08220        4.70240
C          1.06060       -3.70210        5.58300
C          1.62690       -3.57450        6.84250
C          1.85460       -4.73850        7.75010
C          3.27580       -5.28580        7.58920
C          1.99590       -2.24070        7.10540
S          1.60690       -1.16390        5.76050
C          0.97200       -2.49260        4.86970
C          0.40020       -2.69220        3.61230
N          0.07820       -1.92520        2.52160
C         -0.46600       -2.76790        1.56950
C         -0.85730       -2.56100        0.22280
N         -0.67380       -1.51000       -0.65190
C         -1.25510       -1.84910       -1.84480
C         -1.38020       -1.30290       -3.12480
S         -0.92020        0.15150       -3.92700
C          0.23780       -0.38900       -0.58280
C         -0.49660        0.95060       -0.51780
C         -0.14750       -0.51000        2.73010
C         -1.37610       -0.27690        3.60920
C          2.60460       -1.84460        8.29760
C          3.05340       -0.61400        8.71950
C          2.98520        0.63660        7.96440
O          2.50940        0.81980        6.85700
C          3.61270        1.66480        8.81960
C          3.80040        3.00490        8.55160
C          4.42460        3.75630        9.53610
F          4.63110        5.06670        9.32090
C          4.84490        3.20460       10.73650
C          4.64830        1.85520       10.99170
C          4.02710        1.07590       10.02680
C          3.68440       -0.34710        9.99610
C          3.92660       -1.23640       11.01250
C          3.60140       -2.60860       11.00660
N          3.37020       -3.73210       11.08010
C          4.54530       -0.89410       12.23330
N          5.04190       -0.68480       13.24690
H         -2.14270       -0.27310       -7.43640
H          0.79440        4.90250       -5.44900
H          1.63100        7.15450       -6.04770
H          1.95820        8.94360       -7.73740
H          0.07500        6.53000      -10.71000
H         -0.75510        4.30770      -10.15040
H         -3.44410       -1.87540       -7.02990
H         -3.53510       -3.23130       -5.89750
H         -1.11740       -2.57180       -7.65350
H         -1.23490       -3.93050       -6.52920
H         -2.28850       -3.85600       -7.94650
H          1.68910       -4.46300        8.79250
H          1.14080       -5.52110        7.48540
H          3.41810       -6.13610        8.24960
H          4.01250       -4.52680        7.84210
H          3.44420       -5.60640        6.56380
H          0.90850       -0.53290        0.26530
H          0.84790       -0.40290       -1.49270
H          0.20840        1.74420       -0.28710
H         -1.28110        0.94330        0.23610
H         -0.95480        1.17240       -1.47740
H          0.74000       -0.09990        3.22070
H         -0.29710       -0.01000        1.78150
H         -1.24210       -0.72780        4.58870
H         -2.26140       -0.70710        3.14490
H         -1.53150        0.79010        3.74070
H          2.74670       -2.65930        8.99410
H          3.47810        3.44680        7.62240
H          5.32530        3.83720       11.46620
H          4.98030        1.43990       11.92850
