
  xtb     02012222043D
 energy: -188.160627314971 gnorm: 0.000790000628 xtb: 6.4.1 (unknown)
103115  0     0  0            999 V2000
   -6.6692   -0.5846    3.3041 C   0  0  0  0  0  0  0  0  0  0  0  0
   -7.4220    0.1189    2.3916 C   0  0  0  0  0  0  0  0  0  0  0  0
   -6.9818    0.5584    1.0669 C   0  0  0  0  0  0  0  0  0  0  0  0
   -5.9006    0.3594    0.5356 O   0  0  0  0  0  0  0  0  0  0  0  0
   -8.1113    1.2966    0.4798 C   0  0  0  0  0  0  0  0  0  0  0  0
   -8.1917    1.9117   -0.7352 C   0  0  0  0  0  0  0  0  0  0  0  0
   -9.3894    2.5688   -1.0952 C   0  0  0  0  0  0  0  0  0  0  0  0
   -9.5290    3.2220   -2.3363 C   0  0  0  0  0  0  0  0  0  0  0  0
  -10.6943    3.8535   -2.6728 C   0  0  0  0  0  0  0  0  0  0  0  0
  -11.7580    3.8431   -1.7609 C   0  0  0  0  0  0  0  0  0  0  0  0
  -12.8972    4.4688   -2.1099 F   0  0  0  0  0  0  0  0  0  0  0  0
  -11.6748    3.2254   -0.5438 C   0  0  0  0  0  0  0  0  0  0  0  0
  -10.4821    2.5707   -0.1808 C   0  0  0  0  0  0  0  0  0  0  0  0
  -10.3670    1.9233    1.0726 C   0  0  0  0  0  0  0  0  0  0  0  0
   -9.1968    1.2937    1.4005 C   0  0  0  0  0  0  0  0  0  0  0  0
   -8.7871    0.5572    2.5956 C   0  0  0  0  0  0  0  0  0  0  0  0
   -9.5837    0.3329    3.6914 C   0  0  0  0  0  0  0  0  0  0  0  0
  -10.9138    0.7870    3.8065 C   0  0  0  0  0  0  0  0  0  0  0  0
  -12.0003    1.1228    3.9662 N   0  0  0  0  0  0  0  0  0  0  0  0
   -9.2136   -0.3762    4.8518 C   0  0  0  0  0  0  0  0  0  0  0  0
   -8.9901   -0.9359    5.8308 N   0  0  0  0  0  0  0  0  0  0  0  0
   -5.3571   -1.0578    3.2393 C   0  0  0  0  0  0  0  0  0  0  0  0
   -4.7365   -1.7387    4.3048 C   0  0  0  0  0  0  0  0  0  0  0  0
   -5.3465   -2.0149    5.6397 C   0  0  0  0  0  0  0  0  0  0  0  0
   -5.1884   -0.8064    6.5669 C   0  0  0  0  0  0  0  0  0  0  0  0
   -3.4288   -2.0797    3.9924 C   0  0  0  0  0  0  0  0  0  0  0  0
   -2.1641   -2.8930    4.8991 S   0  0  0  0  0  0  0  0  0  0  0  0
   -1.1057   -2.6947    3.5448 C   0  0  0  0  0  0  0  0  0  0  0  0
    0.2140   -2.9883    3.1715 C   0  0  0  0  0  0  0  0  0  0  0  0
    1.2401   -3.7147    3.8175 C   0  0  0  0  0  0  0  0  0  0  0  0
    2.4920   -3.9050    3.1402 C   0  0  0  0  0  0  0  0  0  0  0  0
    3.3361   -4.6460    3.8392 N   0  0  0  0  0  0  0  0  0  0  0  0
    2.6228   -5.0655    5.2307 S   0  0  0  0  0  0  0  0  0  0  0  0
    1.2077   -4.3161    4.9956 N   0  0  0  0  0  0  0  0  0  0  0  0
    2.7103   -3.2489    1.9068 C   0  0  0  0  0  0  0  0  0  0  0  0
    3.8692   -3.0739    1.1394 C   0  0  0  0  0  0  0  0  0  0  0  0
    5.5265   -3.5682    1.1448 S   0  0  0  0  0  0  0  0  0  0  0  0
    5.8103   -2.5204   -0.2335 C   0  0  0  0  0  0  0  0  0  0  0  0
    6.9519   -2.2348   -0.9694 C   0  0  0  0  0  0  0  0  0  0  0  0
    8.2892   -2.8141   -0.6431 C   0  0  0  0  0  0  0  0  0  0  0  0
    9.0878   -1.8651    0.2549 C   0  0  0  0  0  0  0  0  0  0  0  0
    6.6845   -1.3034   -1.9892 C   0  0  0  0  0  0  0  0  0  0  0  0
    4.9902   -0.8111   -2.0110 S   0  0  0  0  0  0  0  0  0  0  0  0
    4.6610   -1.8354   -0.6659 C   0  0  0  0  0  0  0  0  0  0  0  0
    3.5531   -2.1665    0.1182 C   0  0  0  0  0  0  0  0  0  0  0  0
    2.2369   -1.8009    0.2123 N   0  0  0  0  0  0  0  0  0  0  0  0
    1.6911   -2.4651    1.2910 C   0  0  0  0  0  0  0  0  0  0  0  0
    0.3946   -2.4547    1.8620 C   0  0  0  0  0  0  0  0  0  0  0  0
   -0.8019   -1.9123    1.4316 N   0  0  0  0  0  0  0  0  0  0  0  0
   -1.7023   -2.0427    2.4580 C   0  0  0  0  0  0  0  0  0  0  0  0
   -3.0302   -1.6901    2.7013 C   0  0  0  0  0  0  0  0  0  0  0  0
   -4.2829   -0.8735    1.8492 S   0  0  0  0  0  0  0  0  0  0  0  0
   -1.3092   -1.7885    0.0810 C   0  0  0  0  0  0  0  0  0  0  0  0
   -2.1186   -3.0230   -0.3162 C   0  0  0  0  0  0  0  0  0  0  0  0
    1.7476   -0.6490   -0.5136 C   0  0  0  0  0  0  0  0  0  0  0  0
    1.4846   -0.9607   -1.9873 C   0  0  0  0  0  0  0  0  0  0  0  0
    7.6648   -0.8301   -2.8661 C   0  0  0  0  0  0  0  0  0  0  0  0
    7.5869    0.0628   -3.9082 C   0  0  0  0  0  0  0  0  0  0  0  0
    6.3751    0.7324   -4.3870 C   0  0  0  0  0  0  0  0  0  0  0  0
    5.2452    0.6437   -3.9349 O   0  0  0  0  0  0  0  0  0  0  0  0
    6.7845    1.5416   -5.5484 C   0  0  0  0  0  0  0  0  0  0  0  0
    6.0094    2.3470   -6.3585 C   0  0  0  0  0  0  0  0  0  0  0  0
    6.6303    3.0116   -7.4070 C   0  0  0  0  0  0  0  0  0  0  0  0
    7.9918    2.8622   -7.6248 C   0  0  0  0  0  0  0  0  0  0  0  0
    8.7743    2.0529   -6.8102 C   0  0  0  0  0  0  0  0  0  0  0  0
    8.1655    1.3851   -5.7599 C   0  0  0  0  0  0  0  0  0  0  0  0
    8.6972    0.4763   -4.7428 C   0  0  0  0  0  0  0  0  0  0  0  0
   10.0149    0.1154   -4.6211 C   0  0  0  0  0  0  0  0  0  0  0  0
   10.5504   -0.7404   -3.6364 C   0  0  0  0  0  0  0  0  0  0  0  0
   11.0665   -1.4250   -2.8708 N   0  0  0  0  0  0  0  0  0  0  0  0
   11.0424    0.5656   -5.4767 C   0  0  0  0  0  0  0  0  0  0  0  0
   11.9296    0.8915   -6.1286 N   0  0  0  0  0  0  0  0  0  0  0  0
   -7.1581   -0.8101    4.2419 H   0  0  0  0  0  0  0  0  0  0  0  0
   -7.3519    1.8977   -1.4140 H   0  0  0  0  0  0  0  0  0  0  0  0
   -8.6953    3.2161   -3.0223 H   0  0  0  0  0  0  0  0  0  0  0  0
  -10.8176    4.3578   -3.6181 H   0  0  0  0  0  0  0  0  0  0  0  0
  -12.5143    3.2380    0.1336 H   0  0  0  0  0  0  0  0  0  0  0  0
  -11.2131    1.9460    1.7401 H   0  0  0  0  0  0  0  0  0  0  0  0
   -4.8300   -2.8703    6.0799 H   0  0  0  0  0  0  0  0  0  0  0  0
   -6.4043   -2.2645    5.5471 H   0  0  0  0  0  0  0  0  0  0  0  0
   -5.6920    0.0644    6.1536 H   0  0  0  0  0  0  0  0  0  0  0  0
   -5.6240   -1.0277    7.5369 H   0  0  0  0  0  0  0  0  0  0  0  0
   -4.1357   -0.5684    6.7015 H   0  0  0  0  0  0  0  0  0  0  0  0
    8.1322   -3.7565   -0.1145 H   0  0  0  0  0  0  0  0  0  0  0  0
    8.8604   -3.0209   -1.5492 H   0  0  0  0  0  0  0  0  0  0  0  0
    8.5474   -1.6749    1.1793 H   0  0  0  0  0  0  0  0  0  0  0  0
    9.2648   -0.9170   -0.2473 H   0  0  0  0  0  0  0  0  0  0  0  0
   10.0490   -2.3095    0.4960 H   0  0  0  0  0  0  0  0  0  0  0  0
   -0.4845   -1.6786   -0.6124 H   0  0  0  0  0  0  0  0  0  0  0  0
   -1.9468   -0.9004    0.0375 H   0  0  0  0  0  0  0  0  0  0  0  0
   -2.4562   -2.9193   -1.3435 H   0  0  0  0  0  0  0  0  0  0  0  0
   -1.5058   -3.9189   -0.2364 H   0  0  0  0  0  0  0  0  0  0  0  0
   -2.9907   -3.1384    0.3211 H   0  0  0  0  0  0  0  0  0  0  0  0
    0.8582   -0.2681   -0.0103 H   0  0  0  0  0  0  0  0  0  0  0  0
    2.5180    0.1282   -0.4589 H   0  0  0  0  0  0  0  0  0  0  0  0
    2.4241   -1.0909   -2.5166 H   0  0  0  0  0  0  0  0  0  0  0  0
    0.9016   -1.8714   -2.1088 H   0  0  0  0  0  0  0  0  0  0  0  0
    0.9486   -0.1346   -2.4457 H   0  0  0  0  0  0  0  0  0  0  0  0
    8.6432   -1.2507   -2.6784 H   0  0  0  0  0  0  0  0  0  0  0  0
    4.9514    2.4468   -6.1700 H   0  0  0  0  0  0  0  0  0  0  0  0
    6.0507    3.6484   -8.0583 H   0  0  0  0  0  0  0  0  0  0  0  0
    8.4592    3.3849   -8.4458 H   0  0  0  0  0  0  0  0  0  0  0  0
    9.8294    1.9570   -7.0066 H   0  0  0  0  0  0  0  0  0  0  0  0
  1  2  2  0  0  0  0
  2  3  1  0  0  0  0
  3  4  2  0  0  0  0
  3  5  1  0  0  0  0
  5  6  2  0  0  0  0
  6  7  1  0  0  0  0
  7  8  2  0  0  0  0
  8  9  1  0  0  0  0
  9 10  2  0  0  0  0
 10 11  1  0  0  0  0
 10 12  1  0  0  0  0
 12 13  2  0  0  0  0
 13 14  1  0  0  0  0
 14 15  2  0  0  0  0
 15 16  1  0  0  0  0
 16 17  2  0  0  0  0
 17 18  1  0  0  0  0
 18 19  3  0  0  0  0
 17 20  1  0  0  0  0
 20 21  3  0  0  0  0
  1 22  1  0  0  0  0
 22 23  2  0  0  0  0
 23 24  1  0  0  0  0
 24 25  1  0  0  0  0
 23 26  1  0  0  0  0
 26 27  1  0  0  0  0
 27 28  1  0  0  0  0
 28 29  1  0  0  0  0
 29 30  1  0  0  0  0
 30 31  1  0  0  0  0
 31 32  2  0  0  0  0
 32 33  1  0  0  0  0
 33 34  1  0  0  0  0
 31 35  1  0  0  0  0
 35 36  1  0  0  0  0
 36 37  1  0  0  0  0
 37 38  1  0  0  0  0
 38 39  1  0  0  0  0
 39 40  1  0  0  0  0
 40 41  1  0  0  0  0
 39 42  2  0  0  0  0
 42 43  1  0  0  0  0
 43 44  1  0  0  0  0
 44 45  1  0  0  0  0
 45 46  1  0  0  0  0
 46 47  1  0  0  0  0
 47 48  1  0  0  0  0
 48 49  1  0  0  0  0
 49 50  1  0  0  0  0
 50 51  1  0  0  0  0
 51 52  1  0  0  0  0
 49 53  1  0  0  0  0
 53 54  1  0  0  0  0
 46 55  1  0  0  0  0
 55 56  1  0  0  0  0
 42 57  1  0  0  0  0
 57 58  2  0  0  0  0
 58 59  1  0  0  0  0
 59 60  2  0  0  0  0
 59 61  1  0  0  0  0
 61 62  2  0  0  0  0
 62 63  1  0  0  0  0
 63 64  2  0  0  0  0
 64 65  1  0  0  0  0
 65 66  2  0  0  0  0
 66 67  1  0  0  0  0
 67 68  2  0  0  0  0
 68 69  1  0  0  0  0
 69 70  3  0  0  0  0
 68 71  1  0  0  0  0
 71 72  3  0  0  0  0
 16  2  1  0  0  0  0
 52 22  1  0  0  0  0
 67 58  1  0  0  0  0
 15  5  1  0  0  0  0
 51 26  2  0  0  0  0
 66 61  1  0  0  0  0
 13  7  1  0  0  0  0
 50 28  2  0  0  0  0
 48 29  2  0  0  0  0
 34 30  2  0  0  0  0
 47 35  2  0  0  0  0
 45 36  2  0  0  0  0
 44 38  2  0  0  0  0
  1 73  1  0  0  0  0
  6 74  1  0  0  0  0
  8 75  1  0  0  0  0
  9 76  1  0  0  0  0
 12 77  1  0  0  0  0
 14 78  1  0  0  0  0
 24 79  1  0  0  0  0
 24 80  1  0  0  0  0
 25 81  1  0  0  0  0
 25 82  1  0  0  0  0
 25 83  1  0  0  0  0
 40 84  1  0  0  0  0
 40 85  1  0  0  0  0
 41 86  1  0  0  0  0
 41 87  1  0  0  0  0
 41 88  1  0  0  0  0
 53 89  1  0  0  0  0
 53 90  1  0  0  0  0
 54 91  1  0  0  0  0
 54 92  1  0  0  0  0
 54 93  1  0  0  0  0
 55 94  1  0  0  0  0
 55 95  1  0  0  0  0
 56 96  1  0  0  0  0
 56 97  1  0  0  0  0
 56 98  1  0  0  0  0
 57 99  1  0  0  0  0
 62100  1  0  0  0  0
 63101  1  0  0  0  0
 64102  1  0  0  0  0
 65103  1  0  0  0  0
M  END
