91

C          1.26260        2.46340        4.80960
C          2.63150        2.33970        4.88970
C          3.48440        1.58880        3.96850
O          3.13950        0.93250        2.99810
C          4.86710        1.78160        4.43570
C          6.02580        1.29730        3.90270
C          7.25450        1.61980        4.52120
C          8.48280        1.15340        4.01100
C          9.66520        1.47460        4.61800
C          9.64120        2.27920        5.76480
F         10.81470        2.58450        6.34880
C          8.47790        2.75750        6.30090
C          7.25120        2.43820        5.68740
C          6.03190        2.92450        6.21630
C          4.85390        2.60350        5.59750
C          3.46740        2.96010        5.89570
C          3.06840        3.75000        6.94610
C          1.74160        4.11490        7.25020
N          0.69090        4.45680        7.56840
C          3.95210        4.32010        7.88540
N          4.61200        4.81480        8.68460
C          0.34730        1.94260        3.89410
C         -1.03430        2.20860        3.95730
C         -1.72220        3.00450        5.01750
C         -1.99540        2.14150        6.25260
C         -1.71640        1.58570        2.92370
S         -3.41320        1.56070        2.47740
C         -3.01080        0.55220        1.13200
C         -3.65370       -0.12810        0.09010
C         -5.02440       -0.29370       -0.20730
C         -5.39980       -1.18090       -1.26990
N         -6.71280       -1.28880       -1.39880
S         -7.41650       -0.35050       -0.28300
N         -6.07260        0.22870        0.40930
C         -4.38660       -1.76410       -2.06240
C         -4.46220       -2.54780       -3.22460
S         -5.65980       -3.28090       -4.23490
C         -4.38690       -3.83350       -5.29790
C         -4.41460       -4.58530       -6.48750
C         -5.69650       -5.07740       -7.07690
C         -6.34700       -3.99810       -7.94520
C         -3.14090       -4.78010       -6.98030
S         -1.90610       -4.04540       -5.96070
C         -3.11150       -3.45990       -4.87350
C         -3.15440       -2.72620       -3.68080
N         -2.26730       -2.11780       -2.83150
C         -3.00590       -1.52140       -1.81770
C         -2.63680       -0.79710       -0.65470
N         -1.42320       -0.56540       -0.04040
C         -1.64450        0.25810        1.03310
C         -0.89510        0.83950        2.05770
S          0.76130        0.90470        2.52690
C         -0.17490       -1.28880       -0.13960
C          0.94760       -0.43880       -0.73220
C         -0.96910       -1.74600       -3.35330
C         -1.00650       -0.34470       -3.95930
C         -2.69900       -5.49010       -8.13900
C         -3.37820       -5.80640       -9.29580
C         -2.60440       -6.51830      -10.21670
C         -1.32270       -6.74980       -9.77720
C         -0.30420       -7.42240      -10.45100
N          0.52980       -7.97920      -11.01070
S         -1.06230       -6.08070       -8.19530
H          0.80110        3.07320        5.57400
H          6.00610        0.67740        3.01880
H          8.47540        0.53470        3.12600
H         10.61360        1.12720        4.23980
H          8.49730        3.37510        7.18520
H          6.06660        3.54210        7.09900
H         -1.12760        3.87200        5.30730
H         -2.67240        3.36000        4.61410
H         -2.50570        2.73220        7.00780
H         -1.06540        1.77080        6.67710
H         -2.62140        1.29200        5.98960
H         -6.37490       -5.32440       -6.25720
H         -5.51950       -5.98170       -7.66010
H         -5.68020       -3.69050       -8.74800
H         -7.27000       -4.37240       -8.38050
H         -6.57900       -3.12410       -7.34150
H         -0.34720       -2.20470       -0.70680
H          0.11580       -1.58210        0.87530
H          1.82540       -1.05710       -0.89870
H          0.65110        0.01800       -1.67210
H          1.21940        0.35200       -0.03870
H         -0.72260       -2.47640       -4.12830
H         -0.20260       -1.80520       -2.58700
H         -1.28180        0.39070       -3.20580
H         -1.73780       -0.30090       -4.76320
H         -0.03100       -0.08900       -4.36390
H         -4.39000       -5.50890       -9.49380
H         -2.95990       -6.84940      -11.17630
