164

C          5.94950        4.14940       -6.12140
C          7.30920        4.31790       -5.99880
C          8.07700        4.18930       -4.75730
O          7.64710        4.02130       -3.62910
C          9.49570        4.30210       -5.13920
C         10.60430        4.19630       -4.35160
C         11.88210        4.31050       -4.94410
C         13.06210        4.19770       -4.18170
C         14.29280        4.30160       -4.76870
C         14.36760        4.52510       -6.14970
F         15.58800        4.62350       -6.71040
C         13.25470        4.64380       -6.93490
C         11.97920        4.53800       -6.34720
C         10.80950        4.64970       -7.13600
C          9.58240        4.53190       -6.54100
C          8.22640        4.57780       -7.08700
C          7.91660        4.83240       -8.40070
C          6.61880        4.89490       -8.94600
N          5.59860        4.96470       -9.47140
C          8.87480        5.08240       -9.40390
N          9.59920        5.29300      -10.27010
C          4.98100        3.81870       -5.16910
S          5.24460        3.60640       -3.43470
C          3.59510        3.15970       -3.24330
C          2.69460        2.71450       -2.28210
S          2.66160        2.36470       -0.58560
C          1.03850        1.79950       -0.77770
C          0.12720        1.14010        0.10090
C          0.24400        0.81020        1.44870
C         -0.74790        0.02840        1.99020
C         -0.83370       -0.55310        3.39880
C          0.46550       -1.29060        3.65120
C          0.57740       -2.65030        3.39190
C          1.78480       -3.30470        3.56240
C          2.91550       -2.61990        3.98460
C          4.20690       -3.34320        4.23130
C          4.26550       -3.84440        5.67600
C          2.80790       -1.25450        4.21520
C          1.60540       -0.59620        4.04280
C         -1.16910        0.52540        4.41770
C         -2.10230        1.49940        4.07870
C         -2.48640        2.46040        4.99320
C         -1.95910        2.47480        6.27840
C         -2.34740        3.54360        7.25810
C         -1.43150        4.76060        7.11250
C         -1.03010        1.50110        6.61530
C         -0.64080        0.53670        5.70190
C         -2.03490       -1.46590        3.25830
C         -2.57220       -1.34340        1.98590
C         -1.82110       -0.42490        1.19210
C         -1.97780       -0.03010       -0.13410
C         -0.99480        0.76610       -0.67080
C         -0.86090        1.27140       -2.10520
C         -0.98280        0.06270       -3.00920
C         -2.23470       -0.44620       -3.33970
C         -2.35160       -1.59050       -4.10450
C         -1.22590       -2.27130       -4.55080
C         -1.36090       -3.53910       -5.34230
C         -1.49490       -4.74050       -4.40430
C          0.02150       -1.77870       -4.19490
C          0.14360       -0.62990       -3.43260
C         -1.85530        2.38760       -2.38820
C         -2.09520        3.33820       -1.40180
C         -2.93720        4.40700       -1.63890
C         -3.55910        4.56700       -2.87080
C         -4.50300        5.70840       -3.11430
C         -5.92520        5.32450       -2.70060
C         -3.31760        3.61820       -3.85380
C         -2.47580        2.54460       -3.62070
C          0.52780        1.87750       -2.06610
C          1.46460        2.43880       -2.94140
N          1.58690        2.75330       -4.26940
C          2.87820        3.17280       -4.47120
C          3.65450        3.56250       -5.54300
C          0.57710        2.71120       -5.29640
C          0.69870        1.47140       -6.17870
S         -3.88720       -2.41090        1.62730
C         -3.72620       -3.07190        3.22050
C         -4.25500       -4.09400        3.99540
S         -5.35230       -5.41370        3.91340
C         -4.91600       -5.88960        5.56010
C         -4.00550       -5.01680        6.13880
C         -3.59310       -4.03520        5.24810
N         -2.67700       -3.01660        5.23950
C         -1.82910       -2.68640        6.35710
C         -0.65420       -3.65200        6.49010
C         -2.71760       -2.43770        4.00050
C         -5.45920       -7.04030        6.16200
C         -5.97240       -8.13770        5.53240
C         -6.85670       -9.08550        6.24220
O         -7.06460       -9.13780        7.43140
C         -7.47480       -9.90800        5.16920
C         -8.49050      -10.84330        5.26230
Cl        -9.12940      -11.31380        6.77310
C         -8.99310      -11.39880        4.07630
Cl       -10.22890      -12.57880        4.14650
C         -8.51490      -10.96780        2.83980
Cl        -9.20570      -11.59490        1.40660
C         -7.48290      -10.02040        2.75060
Cl        -7.03930       -9.41750        1.20750
C         -6.92580       -9.53660        3.92450
C         -5.81940       -8.61380        4.17340
C         -4.66090       -8.52800        3.44650
C         -4.34860       -9.27230        2.29000
N         -3.97200       -9.87780        1.39080
C         -3.52660       -7.81630        3.89700
N         -2.56250       -7.29350        4.23680
H          5.54230        4.24140       -7.12120
H         10.50830        4.02110       -3.29040
H         12.97830        4.02490       -3.11920
H         15.20530        4.21590       -4.20010
H         13.35030        4.81560       -7.99570
H         10.91970        4.81920       -8.19480
H          1.10230        1.13320        2.01580
H         -0.28060       -3.20950        3.04850
H          1.84510       -4.36470        3.36110
H          5.04870       -2.67280        4.04770
H          4.29110       -4.19350        3.55200
H          3.44090       -4.52590        5.87370
H          5.20050       -4.36820        5.85910
H          4.19370       -3.00930        6.36960
H          3.67890       -0.69610        4.52740
H          1.55440        0.46790        4.22140
H         -2.53310        1.50420        3.08790
H         -3.21190        3.20810        4.70630
H         -3.38100        3.84850        7.08200
H         -2.27330        3.15750        8.27670
H         -1.71440        5.53600        7.82040
H         -1.49940        5.16710        6.10590
H         -0.39720        4.48040        7.29880
H         -0.60430        1.49060        7.60870
H          0.09420       -0.19810        5.99760
H         -2.82230       -0.37530       -0.70900
H         -3.12820        0.05840       -3.00190
H         -3.33410       -1.96330       -4.35660
H         -0.48430       -3.67440       -5.97880
H         -2.24360       -3.48310       -5.98280
H         -1.59410       -5.65990       -4.97620
H         -0.61860       -4.82110       -3.76510
H         -2.37090       -4.63010       -3.76920
H          0.91260       -2.29850       -4.51720
H          1.12810       -0.27730       -3.16090
H         -1.61590        3.24120       -0.43850
H         -3.10880        5.13270       -0.85690
H         -4.18440        6.58020       -2.53930
H         -4.49600        5.97560       -4.17290
H         -6.26720        4.46560       -3.27370
H         -6.60810        6.15250       -2.87470
H         -5.95520        5.06480       -1.64480
H         -3.78960        3.71930       -4.82080
H         -2.32030        1.82030       -4.40750
H          3.32420        3.64880       -6.56270
H         -0.39830        2.74040       -4.80960
H          0.68530        3.61220       -5.90910
H         -0.04820        1.50820       -6.96690
H          1.68440        1.42550       -6.63520
H          0.54220        0.56930       -5.59250
H         -3.63230       -5.15700        7.13680
H         -1.47470       -1.66440        6.21930
H         -2.44290       -2.72060        7.26340
H         -1.01050       -4.67750        6.54790
H          0.00870       -3.56360        5.63350
H         -0.09180       -3.42370        7.39150
H         -5.52600       -7.03910        7.24500
