162

C          6.20760        5.90990       -1.72980
C          6.88050        5.84830       -2.91520
C          7.15310        7.10070       -3.66740
O          7.08100        8.23320       -3.24580
C          7.45470        6.66100       -5.04500
C          7.63360        7.41420       -6.16880
C          7.86920        6.76620       -7.40250
C          8.05340        7.49730       -8.59390
C          8.26920        6.86160       -9.78500
C          8.30720        5.46100       -9.80830
F          8.51900        4.85260      -10.99000
C          8.13670        4.70410       -8.68280
C          7.91390        5.34220       -7.44720
C          7.73690        4.58690       -6.26420
C          7.51460        5.23780       -5.08210
C          7.31820        4.73540       -3.72510
C          7.74780        3.51890       -3.26000
C          7.79830        3.19450       -1.88900
N          7.89320        2.91900       -0.77840
C          8.27250        2.50720       -4.08720
N          8.69260        1.64980       -4.72470
C          5.43570        4.92410       -1.08520
S          4.84440        3.48700       -1.91050
C          3.97940        3.03460       -0.51020
C          3.12060        1.99190       -0.10110
C          2.69420        2.20120        1.20310
C          3.32000        3.48130        1.74440
C          4.12580        3.93860        0.54080
C          4.93380        5.01140        0.21060
C          4.29100        3.15930        2.87730
C          5.36280        2.31820        2.59610
C          6.28630        1.99840        3.57120
C          6.16900        2.50710        4.85850
C          7.15190        2.13210        5.92890
C          6.68380        0.87670        6.66790
C          5.09300        3.33640        5.13880
C          4.16550        3.66240        4.16490
C          2.30970        4.57540        2.03400
C          0.96820        4.43160        1.70790
C          0.07370        5.46260        1.93330
C          0.49120        6.66680        2.48120
C         -0.47950        7.79130        2.69540
C         -0.62140        8.62660        1.42150
C          1.84030        6.82060        2.77330
C          2.73830        5.79580        2.54620
C          1.78560        1.19570        1.63170
C          1.07520        1.01450        2.85400
C          1.27780        1.90950        4.04180
C         -0.00490        2.61970        4.47580
C          0.17620       -0.01230        2.94570
C         -0.08450       -0.90560        1.88650
C         -1.09260       -1.88220        1.92680
S         -2.19920       -2.04000        3.26450
C         -3.06820       -3.22640        2.37190
C         -4.25760       -3.95390        2.57720
C         -4.50360       -4.74330        1.44440
C         -3.40900       -4.53880        0.41120
C         -4.06540       -3.99670       -0.84810
C         -4.96350       -4.79560       -1.55020
C         -5.59240       -4.32100       -2.68450
C         -5.35290       -3.03420       -3.15030
C         -6.06420       -2.51000       -4.36350
C         -7.40720       -1.89230       -3.96930
C         -4.47900       -2.23130       -2.43240
C         -3.84730       -2.70040       -1.29430
C         -2.66210       -5.85670        0.23070
C         -2.12560       -6.45970        1.36370
C         -1.44980       -7.66070        1.27440
C         -1.28720       -8.29640        0.05020
C         -0.59970       -9.62690       -0.04480
C         -1.62130      -10.76190        0.05260
C         -1.82000       -7.68960       -1.07790
C         -2.49660       -6.48560       -0.99440
C         -2.52910       -3.52440        1.12590
C         -1.36350       -2.76280        0.85650
C         -0.51250       -2.71200       -0.28610
C         -0.58910       -3.72470       -1.38750
C          0.39130       -4.86520       -1.10280
C          0.44400       -1.73800       -0.34850
C          0.65890       -0.80410        0.68800
C          1.57020        0.25890        0.59600
S          2.48350        0.58490       -0.85280
C         -5.66700       -5.47420        1.53900
C         -6.34580       -5.24720        2.73890
S         -5.45900       -4.11240        3.77320
C         -7.56100       -5.71460        3.24690
C         -8.56190       -6.47760        2.68460
C         -8.66630       -6.97060        1.29960
O         -7.84220       -6.95150        0.41140
C        -10.04000       -7.52390        1.18300
C        -10.69770       -7.43260        2.42010
C        -12.00320       -7.87340        2.55590
C        -12.63280       -8.40390        1.43890
F        -13.89450       -8.82890        1.54580
C        -11.99260       -8.50500        0.20620
F        -12.63420       -9.02160       -0.84610
C        -10.67590       -8.05860        0.07720
F        -10.06810       -8.15170       -1.10260
C         -9.77790       -6.83030        3.38780
C        -10.04520       -6.68950        4.72620
C         -9.16080       -6.19140        5.70730
N         -8.51330       -5.81870        6.58000
C        -11.26210       -7.06330        5.33490
N        -12.22580       -7.33810        5.89470
H          6.17890        6.89330       -1.26940
H          7.59250        8.49200       -6.11990
H          8.01930        8.57560       -8.55080
H          8.41020        7.40630      -10.70510
H          8.17570        3.62740       -8.73730
H          7.76700        3.51020       -6.32430
H          5.18940        5.82790        0.86040
H          5.48610        1.91580        1.60140
H          7.11540        1.35200        3.32390
H          8.12970        1.94320        5.48210
H          7.25380        2.95230        6.64240
H          6.58140        0.04570        5.97360
H          7.39960        0.60010        7.43830
H          5.71800        1.05120        7.13720
H          4.97690        3.74350        6.13320
H          3.34830        4.31880        4.42590
H          0.61020        3.50980        1.27460
H         -0.96810        5.32510        1.67950
H         -0.13140        8.43110        3.50860
H         -1.45620        7.38820        2.97140
H         -0.98160        8.00910        0.60160
H          0.34010        9.04710        1.13530
H         -1.32440        9.44130        1.57770
H          2.19390        7.75600        3.18300
H          3.78280        5.94540        2.77480
H          1.64520        1.30080        4.87320
H          2.03340        2.65300        3.81750
H         -0.38310        3.24520        3.67140
H         -0.77820        1.90860        4.75380
H          0.20030        3.25500        5.33410
H         -0.37330       -0.15550        3.86490
H         -5.17300       -5.79900       -1.21480
H         -6.28070       -4.96280       -3.21450
H         -6.23710       -3.32340       -5.07090
H         -5.44940       -1.75310       -4.85480
H         -7.25590       -1.07240       -3.27050
H         -8.03970       -2.63670       -3.49120
H         -7.92240       -1.51020       -4.84740
H         -4.28440       -1.22160       -2.76500
H         -3.17780       -2.04200       -0.76250
H         -2.23680       -5.98500        2.32850
H         -1.04230       -8.11000        2.16880
H         -0.06870       -9.70190       -0.99600
H          0.12840       -9.72690        0.76240
H         -1.12550      -11.72700       -0.01960
H         -2.35080      -10.68480       -0.75050
H         -2.15150      -10.71350        1.00110
H         -1.70360       -8.16290       -2.04230
H         -2.88940       -6.04470       -1.89790
H         -0.31900       -3.25020       -2.33300
H         -1.59540       -4.12160       -1.48190
H          0.14910       -5.35090       -0.16040
H          1.40820       -4.48360       -1.04330
H          0.34260       -5.60940       -1.89310
H          1.06910       -1.66640       -1.22750
H         -6.05270       -6.14770        0.79810
H         -7.75580       -5.36970        4.25560
H        -12.55150       -7.81920        3.48130
