
  xtb     02012217233D
 energy: -277.048193397383 gnorm: 0.000829899702 xtb: 6.4.1 (unknown)
164180  0     0  0            999 V2000
    6.5035   -1.0549    6.2794 C   0  0  0  0  0  0  0  0  0  0  0  0
    6.7549   -1.9181    7.3182 C   0  0  0  0  0  0  0  0  0  0  0  0
    5.8980   -3.0002    7.8488 C   0  0  0  0  0  0  0  0  0  0  0  0
    4.7247   -3.2296    7.6288 O   0  0  0  0  0  0  0  0  0  0  0  0
    6.7676   -3.8012    8.7317 C   0  0  0  0  0  0  0  0  0  0  0  0
    6.4665   -4.9537    9.3974 C   0  0  0  0  0  0  0  0  0  0  0  0
    7.4643   -5.5779   10.1784 C   0  0  0  0  0  0  0  0  0  0  0  0
    7.2117   -6.7735   10.8814 C   0  0  0  0  0  0  0  0  0  0  0  0
    8.1888   -7.3720   11.6272 C   0  0  0  0  0  0  0  0  0  0  0  0
    9.4561   -6.7769   11.6863 C   0  0  0  0  0  0  0  0  0  0  0  0
   10.4056   -7.3815   12.4247 F   0  0  0  0  0  0  0  0  0  0  0  0
    9.7536   -5.6177   11.0255 C   0  0  0  0  0  0  0  0  0  0  0  0
    8.7592   -4.9876   10.2522 C   0  0  0  0  0  0  0  0  0  0  0  0
    9.0380   -3.7878    9.5562 C   0  0  0  0  0  0  0  0  0  0  0  0
    8.0538   -3.2010    8.8068 C   0  0  0  0  0  0  0  0  0  0  0  0
    8.0396   -1.9898    7.9915 C   0  0  0  0  0  0  0  0  0  0  0  0
    9.0522   -1.0654    7.9463 C   0  0  0  0  0  0  0  0  0  0  0  0
    9.0236    0.1643    7.2554 C   0  0  0  0  0  0  0  0  0  0  0  0
    9.0838    1.1922    6.7455 N   0  0  0  0  0  0  0  0  0  0  0  0
   10.2731   -1.2010    8.6393 C   0  0  0  0  0  0  0  0  0  0  0  0
   11.2892   -1.2456    9.1724 N   0  0  0  0  0  0  0  0  0  0  0  0
    5.3534   -0.8422    5.5063 C   0  0  0  0  0  0  0  0  0  0  0  0
    4.0455   -1.3128    5.6119 C   0  0  0  0  0  0  0  0  0  0  0  0
    3.2355   -0.8481    4.5971 C   0  0  0  0  0  0  0  0  0  0  0  0
    1.7902   -1.0302    4.1790 C   0  0  0  0  0  0  0  0  0  0  0  0
    0.8539   -0.3472    5.1699 C   0  0  0  0  0  0  0  0  0  0  0  0
    1.1867    0.9171    5.6429 C   0  0  0  0  0  0  0  0  0  0  0  0
    0.3536    1.5848    6.5187 C   0  0  0  0  0  0  0  0  0  0  0  0
   -0.8400    1.0140    6.9418 C   0  0  0  0  0  0  0  0  0  0  0  0
   -1.7630    1.7627    7.8594 C   0  0  0  0  0  0  0  0  0  0  0  0
   -2.6721    2.6973    7.0589 C   0  0  0  0  0  0  0  0  0  0  0  0
   -1.1739   -0.2420    6.4559 C   0  0  0  0  0  0  0  0  0  0  0  0
   -0.3403   -0.9171    5.5820 C   0  0  0  0  0  0  0  0  0  0  0  0
    1.5297   -2.5102    3.9952 C   0  0  0  0  0  0  0  0  0  0  0  0
    1.4414   -3.3329    5.1127 C   0  0  0  0  0  0  0  0  0  0  0  0
    1.2316   -4.6909    4.9710 C   0  0  0  0  0  0  0  0  0  0  0  0
    1.1193   -5.2688    3.7128 C   0  0  0  0  0  0  0  0  0  0  0  0
    0.8333   -6.7348    3.5581 C   0  0  0  0  0  0  0  0  0  0  0  0
   -0.6727   -6.9759    3.4338 C   0  0  0  0  0  0  0  0  0  0  0  0
    1.2368   -4.4476    2.6003 C   0  0  0  0  0  0  0  0  0  0  0  0
    1.4467   -3.0868    2.7367 C   0  0  0  0  0  0  0  0  0  0  0  0
    1.7719   -0.2252    2.8989 C   0  0  0  0  0  0  0  0  0  0  0  0
    3.0032    0.3730    2.6762 C   0  0  0  0  0  0  0  0  0  0  0  0
    3.9053   -0.0086    3.6951 C   0  0  0  0  0  0  0  0  0  0  0  0
    5.5423    0.2283    4.1078 S   0  0  0  0  0  0  0  0  0  0  0  0
    3.0593    1.3330    1.2445 S   0  0  0  0  0  0  0  0  0  0  0  0
    1.3999    0.9056    0.9030 C   0  0  0  0  0  0  0  0  0  0  0  0
    0.7027    1.2961   -0.2524 C   0  0  0  0  0  0  0  0  0  0  0  0
   -0.6061    0.7755   -0.4000 C   0  0  0  0  0  0  0  0  0  0  0  0
   -1.1830   -0.0516    0.5893 C   0  0  0  0  0  0  0  0  0  0  0  0
   -0.5024   -0.3951    1.7273 C   0  0  0  0  0  0  0  0  0  0  0  0
   -0.9685   -1.1510    2.7432 O   0  0  0  0  0  0  0  0  0  0  0  0
   -2.2285   -1.7841    2.6308 C   0  0  0  0  0  0  0  0  0  0  0  0
   -2.1705   -3.0330    1.7580 C   0  0  0  0  0  0  0  0  0  0  0  0
    0.8377    0.0731    1.8859 C   0  0  0  0  0  0  0  0  0  0  0  0
   -1.2766    1.1065   -1.5883 C   0  0  0  0  0  0  0  0  0  0  0  0
   -0.7242    1.9388   -2.5792 C   0  0  0  0  0  0  0  0  0  0  0  0
    0.5928    2.4605   -2.3881 C   0  0  0  0  0  0  0  0  0  0  0  0
    1.2711    2.1256   -1.2443 C   0  0  0  0  0  0  0  0  0  0  0  0
    1.0854    3.2232   -3.3878 O   0  0  0  0  0  0  0  0  0  0  0  0
    2.4566    3.5774   -3.3426 C   0  0  0  0  0  0  0  0  0  0  0  0
    2.8317    4.2549   -4.6508 C   0  0  0  0  0  0  0  0  0  0  0  0
   -1.5974    2.0615   -3.6807 C   0  0  0  0  0  0  0  0  0  0  0  0
   -2.7603    1.3202   -3.5191 C   0  0  0  0  0  0  0  0  0  0  0  0
   -2.8499    0.4817   -2.0169 S   0  0  0  0  0  0  0  0  0  0  0  0
   -3.5692    1.4456   -4.6688 C   0  0  0  0  0  0  0  0  0  0  0  0
   -5.0387    0.8282   -5.2690 S   0  0  0  0  0  0  0  0  0  0  0  0
   -4.8117    1.7319   -6.7785 C   0  0  0  0  0  0  0  0  0  0  0  0
   -3.6318    2.4783   -6.7481 C   0  0  0  0  0  0  0  0  0  0  0  0
   -2.9363    2.3160   -5.5706 C   0  0  0  0  0  0  0  0  0  0  0  0
   -1.6387    2.8310   -4.9821 C   0  0  0  0  0  0  0  0  0  0  0  0
   -1.7750    4.3062   -4.6125 C   0  0  0  0  0  0  0  0  0  0  0  0
   -0.7452    5.2120   -4.8099 C   0  0  0  0  0  0  0  0  0  0  0  0
   -0.8939    6.5350   -4.4355 C   0  0  0  0  0  0  0  0  0  0  0  0
   -2.0687    6.9888   -3.8525 C   0  0  0  0  0  0  0  0  0  0  0  0
   -2.2091    8.4180   -3.4143 C   0  0  0  0  0  0  0  0  0  0  0  0
   -1.6692    8.5982   -1.9939 C   0  0  0  0  0  0  0  0  0  0  0  0
   -3.0918    6.0737   -3.6420 C   0  0  0  0  0  0  0  0  0  0  0  0
   -2.9477    4.7508   -4.0132 C   0  0  0  0  0  0  0  0  0  0  0  0
   -0.5133    2.5333   -5.9469 C   0  0  0  0  0  0  0  0  0  0  0  0
    0.3773    1.4929   -5.7286 C   0  0  0  0  0  0  0  0  0  0  0  0
    1.3863    1.2311   -6.6385 C   0  0  0  0  0  0  0  0  0  0  0  0
    1.5197    1.9860   -7.7957 C   0  0  0  0  0  0  0  0  0  0  0  0
    2.6526    1.7405   -8.7500 C   0  0  0  0  0  0  0  0  0  0  0  0
    3.8728    2.5761   -8.3561 C   0  0  0  0  0  0  0  0  0  0  0  0
    0.6037    3.0051   -8.0261 C   0  0  0  0  0  0  0  0  0  0  0  0
   -0.4029    3.2730   -7.1192 C   0  0  0  0  0  0  0  0  0  0  0  0
   -5.8078    1.5546   -7.7448 C   0  0  0  0  0  0  0  0  0  0  0  0
   -5.9400    2.0222   -9.0328 C   0  0  0  0  0  0  0  0  0  0  0  0
   -5.0056    2.8625   -9.8038 C   0  0  0  0  0  0  0  0  0  0  0  0
   -3.9753    3.3923   -9.4422 O   0  0  0  0  0  0  0  0  0  0  0  0
   -5.5807    2.9510  -11.1667 C   0  0  0  0  0  0  0  0  0  0  0  0
   -6.7958    2.2466  -11.2142 C   0  0  0  0  0  0  0  0  0  0  0  0
   -7.5118    2.1818  -12.3991 C   0  0  0  0  0  0  0  0  0  0  0  0
   -7.0045    2.8246  -13.5187 C   0  0  0  0  0  0  0  0  0  0  0  0
   -5.8079    3.5220  -13.4653 C   0  0  0  0  0  0  0  0  0  0  0  0
   -5.1706    4.3779  -15.0254 Br  0  0  0  0  0  0  0  0  0  0  0  0
   -5.0692    3.5980  -12.2798 C   0  0  0  0  0  0  0  0  0  0  0  0
   -3.5897    4.4559  -12.2143 Cl  0  0  0  0  0  0  0  0  0  0  0  0
   -7.0603    1.6860   -9.8892 C   0  0  0  0  0  0  0  0  0  0  0  0
   -8.1975    0.9931   -9.5564 C   0  0  0  0  0  0  0  0  0  0  0  0
   -8.5266    0.4704   -8.2875 C   0  0  0  0  0  0  0  0  0  0  0  0
   -8.8977    0.0233   -7.2961 N   0  0  0  0  0  0  0  0  0  0  0  0
   -9.2450    0.7077  -10.4577 C   0  0  0  0  0  0  0  0  0  0  0  0
  -10.1338    0.4343  -11.1313 N   0  0  0  0  0  0  0  0  0  0  0  0
    7.3446   -0.4498    5.9601 H   0  0  0  0  0  0  0  0  0  0  0  0
    5.4796   -5.3860    9.3250 H   0  0  0  0  0  0  0  0  0  0  0  0
    6.2274   -7.2128   10.8199 H   0  0  0  0  0  0  0  0  0  0  0  0
    8.0126   -8.2873   12.1698 H   0  0  0  0  0  0  0  0  0  0  0  0
   10.7404   -5.1870   11.0950 H   0  0  0  0  0  0  0  0  0  0  0  0
   10.0289   -3.3699    9.6299 H   0  0  0  0  0  0  0  0  0  0  0  0
    3.7440   -1.9734    6.4026 H   0  0  0  0  0  0  0  0  0  0  0  0
    2.1078    1.3867    5.3278 H   0  0  0  0  0  0  0  0  0  0  0  0
    0.6357    2.5632    6.8809 H   0  0  0  0  0  0  0  0  0  0  0  0
   -1.1791    2.3520    8.5694 H   0  0  0  0  0  0  0  0  0  0  0  0
   -2.3774    1.0585    8.4237 H   0  0  0  0  0  0  0  0  0  0  0  0
   -3.2786    2.1271    6.3587 H   0  0  0  0  0  0  0  0  0  0  0  0
   -3.3334    3.2473    7.7242 H   0  0  0  0  0  0  0  0  0  0  0  0
   -2.0773    3.4104    6.4927 H   0  0  0  0  0  0  0  0  0  0  0  0
   -2.1001   -0.7039    6.7682 H   0  0  0  0  0  0  0  0  0  0  0  0
   -0.6232   -1.8932    5.2226 H   0  0  0  0  0  0  0  0  0  0  0  0
    1.5313   -2.9082    6.1010 H   0  0  0  0  0  0  0  0  0  0  0  0
    1.1605   -5.3119    5.8522 H   0  0  0  0  0  0  0  0  0  0  0  0
    1.2146   -7.2791    4.4239 H   0  0  0  0  0  0  0  0  0  0  0  0
    1.3330   -7.1182    2.6660 H   0  0  0  0  0  0  0  0  0  0  0  0
   -1.1899   -6.5978    4.3130 H   0  0  0  0  0  0  0  0  0  0  0  0
   -1.0684   -6.4664    2.5577 H   0  0  0  0  0  0  0  0  0  0  0  0
   -0.8814   -8.0389    3.3389 H   0  0  0  0  0  0  0  0  0  0  0  0
    1.1700   -4.8778    1.6104 H   0  0  0  0  0  0  0  0  0  0  0  0
    1.5437   -2.4777    1.8505 H   0  0  0  0  0  0  0  0  0  0  0  0
   -2.1873   -0.4003    0.4074 H   0  0  0  0  0  0  0  0  0  0  0  0
   -2.4840   -2.0595    3.6572 H   0  0  0  0  0  0  0  0  0  0  0  0
   -2.9852   -1.0800    2.2656 H   0  0  0  0  0  0  0  0  0  0  0  0
   -1.9039   -2.7800    0.7346 H   0  0  0  0  0  0  0  0  0  0  0  0
   -1.4213   -3.7157    2.1521 H   0  0  0  0  0  0  0  0  0  0  0  0
   -3.1387   -3.5255    1.7580 H   0  0  0  0  0  0  0  0  0  0  0  0
    2.2716    2.4849   -1.0640 H   0  0  0  0  0  0  0  0  0  0  0  0
    3.0623    2.6710   -3.2060 H   0  0  0  0  0  0  0  0  0  0  0  0
    2.6419    4.2538   -2.4974 H   0  0  0  0  0  0  0  0  0  0  0  0
    2.5372    3.6290   -5.4894 H   0  0  0  0  0  0  0  0  0  0  0  0
    2.3367    5.2177   -4.7363 H   0  0  0  0  0  0  0  0  0  0  0  0
    3.9065    4.4108   -4.6815 H   0  0  0  0  0  0  0  0  0  0  0  0
   -3.3293    3.0924   -7.5750 H   0  0  0  0  0  0  0  0  0  0  0  0
    0.1752    4.8825   -5.2606 H   0  0  0  0  0  0  0  0  0  0  0  0
   -0.0823    7.2289   -4.6046 H   0  0  0  0  0  0  0  0  0  0  0  0
   -3.2604    8.7115   -3.4397 H   0  0  0  0  0  0  0  0  0  0  0  0
   -1.6559    9.0691   -4.0943 H   0  0  0  0  0  0  0  0  0  0  0  0
   -1.7690    9.6337   -1.6773 H   0  0  0  0  0  0  0  0  0  0  0  0
   -2.2176    7.9673   -1.2978 H   0  0  0  0  0  0  0  0  0  0  0  0
   -0.6181    8.3210   -1.9504 H   0  0  0  0  0  0  0  0  0  0  0  0
   -4.0148    6.4000   -3.1842 H   0  0  0  0  0  0  0  0  0  0  0  0
   -3.7612    4.0619   -3.8349 H   0  0  0  0  0  0  0  0  0  0  0  0
    0.2909    0.8804   -4.8437 H   0  0  0  0  0  0  0  0  0  0  0  0
    2.0786    0.4232   -6.4465 H   0  0  0  0  0  0  0  0  0  0  0  0
    2.9231    0.6827   -8.7416 H   0  0  0  0  0  0  0  0  0  0  0  0
    2.3465    2.0073   -9.7632 H   0  0  0  0  0  0  0  0  0  0  0  0
    4.2103    2.3074   -7.3572 H   0  0  0  0  0  0  0  0  0  0  0  0
    3.6240    3.6352   -8.3607 H   0  0  0  0  0  0  0  0  0  0  0  0
    4.6895    2.4087   -9.0541 H   0  0  0  0  0  0  0  0  0  0  0  0
    0.6769    3.5939   -8.9290 H   0  0  0  0  0  0  0  0  0  0  0  0
   -1.1044    4.0688   -7.3199 H   0  0  0  0  0  0  0  0  0  0  0  0
   -6.6059    0.9045   -7.4063 H   0  0  0  0  0  0  0  0  0  0  0  0
   -8.4433    1.6472  -12.4745 H   0  0  0  0  0  0  0  0  0  0  0  0
   -7.5464    2.7844  -14.4509 H   0  0  0  0  0  0  0  0  0  0  0  0
  1  2  2  0  0  0  0
  2  3  1  0  0  0  0
  3  4  2  0  0  0  0
  3  5  1  0  0  0  0
  5  6  2  0  0  0  0
  6  7  1  0  0  0  0
  7  8  2  0  0  0  0
  8  9  1  0  0  0  0
  9 10  2  0  0  0  0
 10 11  1  0  0  0  0
 10 12  1  0  0  0  0
 12 13  2  0  0  0  0
 13 14  1  0  0  0  0
 14 15  2  0  0  0  0
 15 16  1  0  0  0  0
 16 17  2  0  0  0  0
 17 18  1  0  0  0  0
 18 19  3  0  0  0  0
 17 20  1  0  0  0  0
 20 21  3  0  0  0  0
  1 22  1  0  0  0  0
 22 23  2  0  0  0  0
 23 24  1  0  0  0  0
 24 25  1  0  0  0  0
 25 26  1  0  0  0  0
 26 27  2  0  0  0  0
 27 28  1  0  0  0  0
 28 29  2  0  0  0  0
 29 30  1  0  0  0  0
 30 31  1  0  0  0  0
 29 32  1  0  0  0  0
 32 33  2  0  0  0  0
 25 34  1  0  0  0  0
 34 35  2  0  0  0  0
 35 36  1  0  0  0  0
 36 37  2  0  0  0  0
 37 38  1  0  0  0  0
 38 39  1  0  0  0  0
 37 40  1  0  0  0  0
 40 41  2  0  0  0  0
 25 42  1  0  0  0  0
 42 43  2  0  0  0  0
 43 44  1  0  0  0  0
 44 45  1  0  0  0  0
 43 46  1  0  0  0  0
 46 47  1  0  0  0  0
 47 48  2  0  0  0  0
 48 49  1  0  0  0  0
 49 50  2  0  0  0  0
 50 51  1  0  0  0  0
 51 52  1  0  0  0  0
 52 53  1  0  0  0  0
 53 54  1  0  0  0  0
 51 55  2  0  0  0  0
 49 56  1  0  0  0  0
 56 57  2  0  0  0  0
 57 58  1  0  0  0  0
 58 59  2  0  0  0  0
 58 60  1  0  0  0  0
 60 61  1  0  0  0  0
 61 62  1  0  0  0  0
 57 63  1  0  0  0  0
 63 64  2  0  0  0  0
 64 65  1  0  0  0  0
 64 66  1  0  0  0  0
 66 67  1  0  0  0  0
 67 68  1  0  0  0  0
 68 69  2  0  0  0  0
 69 70  1  0  0  0  0
 70 71  1  0  0  0  0
 71 72  1  0  0  0  0
 72 73  2  0  0  0  0
 73 74  1  0  0  0  0
 74 75  2  0  0  0  0
 75 76  1  0  0  0  0
 76 77  1  0  0  0  0
 75 78  1  0  0  0  0
 78 79  2  0  0  0  0
 71 80  1  0  0  0  0
 80 81  2  0  0  0  0
 81 82  1  0  0  0  0
 82 83  2  0  0  0  0
 83 84  1  0  0  0  0
 84 85  1  0  0  0  0
 83 86  1  0  0  0  0
 86 87  2  0  0  0  0
 68 88  1  0  0  0  0
 88 89  2  0  0  0  0
 89 90  1  0  0  0  0
 90 91  2  0  0  0  0
 90 92  1  0  0  0  0
 92 93  2  0  0  0  0
 93 94  1  0  0  0  0
 94 95  2  0  0  0  0
 95 96  1  0  0  0  0
 96 97  1  0  0  0  0
 96 98  2  0  0  0  0
 98 99  1  0  0  0  0
 93100  1  0  0  0  0
100101  2  0  0  0  0
101102  1  0  0  0  0
102103  3  0  0  0  0
101104  1  0  0  0  0
104105  3  0  0  0  0
 16  2  1  0  0  0  0
 45 22  1  0  0  0  0
 55 47  1  0  0  0  0
 65 56  1  0  0  0  0
 70 66  2  0  0  0  0
 79 72  1  0  0  0  0
 87 80  1  0  0  0  0
100 89  1  0  0  0  0
 15  5  1  0  0  0  0
 44 24  2  0  0  0  0
 59 48  1  0  0  0  0
 71 63  1  0  0  0  0
 98 92  1  0  0  0  0
 13  7  1  0  0  0  0
 33 26  1  0  0  0  0
 41 34  1  0  0  0  0
 55 42  1  0  0  0  0
  1106  1  0  0  0  0
  6107  1  0  0  0  0
  8108  1  0  0  0  0
  9109  1  0  0  0  0
 12110  1  0  0  0  0
 14111  1  0  0  0  0
 23112  1  0  0  0  0
 27113  1  0  0  0  0
 28114  1  0  0  0  0
 30115  1  0  0  0  0
 30116  1  0  0  0  0
 31117  1  0  0  0  0
 31118  1  0  0  0  0
 31119  1  0  0  0  0
 32120  1  0  0  0  0
 33121  1  0  0  0  0
 35122  1  0  0  0  0
 36123  1  0  0  0  0
 38124  1  0  0  0  0
 38125  1  0  0  0  0
 39126  1  0  0  0  0
 39127  1  0  0  0  0
 39128  1  0  0  0  0
 40129  1  0  0  0  0
 41130  1  0  0  0  0
 50131  1  0  0  0  0
 53132  1  0  0  0  0
 53133  1  0  0  0  0
 54134  1  0  0  0  0
 54135  1  0  0  0  0
 54136  1  0  0  0  0
 59137  1  0  0  0  0
 61138  1  0  0  0  0
 61139  1  0  0  0  0
 62140  1  0  0  0  0
 62141  1  0  0  0  0
 62142  1  0  0  0  0
 69143  1  0  0  0  0
 73144  1  0  0  0  0
 74145  1  0  0  0  0
 76146  1  0  0  0  0
 76147  1  0  0  0  0
 77148  1  0  0  0  0
 77149  1  0  0  0  0
 77150  1  0  0  0  0
 78151  1  0  0  0  0
 79152  1  0  0  0  0
 81153  1  0  0  0  0
 82154  1  0  0  0  0
 84155  1  0  0  0  0
 84156  1  0  0  0  0
 85157  1  0  0  0  0
 85158  1  0  0  0  0
 85159  1  0  0  0  0
 86160  1  0  0  0  0
 87161  1  0  0  0  0
 88162  1  0  0  0  0
 94163  1  0  0  0  0
 95164  1  0  0  0  0
M  END
