164

C          6.50350       -1.05490        6.27940
C          6.75490       -1.91810        7.31820
C          5.89800       -3.00020        7.84880
O          4.72470       -3.22960        7.62880
C          6.76760       -3.80120        8.73170
C          6.46650       -4.95370        9.39740
C          7.46430       -5.57790       10.17840
C          7.21170       -6.77350       10.88140
C          8.18880       -7.37200       11.62720
C          9.45610       -6.77690       11.68630
F         10.40560       -7.38150       12.42470
C          9.75360       -5.61770       11.02550
C          8.75920       -4.98760       10.25220
C          9.03800       -3.78780        9.55620
C          8.05380       -3.20100        8.80680
C          8.03960       -1.98980        7.99150
C          9.05220       -1.06540        7.94630
C          9.02360        0.16430        7.25540
N          9.08380        1.19220        6.74550
C         10.27310       -1.20100        8.63930
N         11.28920       -1.24560        9.17240
C          5.35340       -0.84220        5.50630
C          4.04550       -1.31280        5.61190
C          3.23550       -0.84810        4.59710
C          1.79020       -1.03020        4.17900
C          0.85390       -0.34720        5.16990
C          1.18670        0.91710        5.64290
C          0.35360        1.58480        6.51870
C         -0.84000        1.01400        6.94180
C         -1.76300        1.76270        7.85940
C         -2.67210        2.69730        7.05890
C         -1.17390       -0.24200        6.45590
C         -0.34030       -0.91710        5.58200
C          1.52970       -2.51020        3.99520
C          1.44140       -3.33290        5.11270
C          1.23160       -4.69090        4.97100
C          1.11930       -5.26880        3.71280
C          0.83330       -6.73480        3.55810
C         -0.67270       -6.97590        3.43380
C          1.23680       -4.44760        2.60030
C          1.44670       -3.08680        2.73670
C          1.77190       -0.22520        2.89890
C          3.00320        0.37300        2.67620
C          3.90530       -0.00860        3.69510
S          5.54230        0.22830        4.10780
S          3.05930        1.33300        1.24450
C          1.39990        0.90560        0.90300
C          0.70270        1.29610       -0.25240
C         -0.60610        0.77550       -0.40000
C         -1.18300       -0.05160        0.58930
C         -0.50240       -0.39510        1.72730
O         -0.96850       -1.15100        2.74320
C         -2.22850       -1.78410        2.63080
C         -2.17050       -3.03300        1.75800
C          0.83770        0.07310        1.88590
C         -1.27660        1.10650       -1.58830
C         -0.72420        1.93880       -2.57920
C          0.59280        2.46050       -2.38810
C          1.27110        2.12560       -1.24430
O          1.08540        3.22320       -3.38780
C          2.45660        3.57740       -3.34260
C          2.83170        4.25490       -4.65080
C         -1.59740        2.06150       -3.68070
C         -2.76030        1.32020       -3.51910
S         -2.84990        0.48170       -2.01690
C         -3.56920        1.44560       -4.66880
S         -5.03870        0.82820       -5.26900
C         -4.81170        1.73190       -6.77850
C         -3.63180        2.47830       -6.74810
C         -2.93630        2.31600       -5.57060
C         -1.63870        2.83100       -4.98210
C         -1.77500        4.30620       -4.61250
C         -0.74520        5.21200       -4.80990
C         -0.89390        6.53500       -4.43550
C         -2.06870        6.98880       -3.85250
C         -2.20910        8.41800       -3.41430
C         -1.66920        8.59820       -1.99390
C         -3.09180        6.07370       -3.64200
C         -2.94770        4.75080       -4.01320
C         -0.51330        2.53330       -5.94690
C          0.37730        1.49290       -5.72860
C          1.38630        1.23110       -6.63850
C          1.51970        1.98600       -7.79570
C          2.65260        1.74050       -8.75000
C          3.87280        2.57610       -8.35610
C          0.60370        3.00510       -8.02610
C         -0.40290        3.27300       -7.11920
C         -5.80780        1.55460       -7.74480
C         -5.94000        2.02220       -9.03280
C         -5.00560        2.86250       -9.80380
O         -3.97530        3.39230       -9.44220
C         -5.58070        2.95100      -11.16670
C         -6.79580        2.24660      -11.21420
C         -7.51180        2.18180      -12.39910
C         -7.00450        2.82460      -13.51870
C         -5.80790        3.52200      -13.46530
Br        -5.17060        4.37790      -15.02540
C         -5.06920        3.59800      -12.27980
Cl        -3.58970        4.45590      -12.21430
C         -7.06030        1.68600       -9.88920
C         -8.19750        0.99310       -9.55640
C         -8.52660        0.47040       -8.28750
N         -8.89770        0.02330       -7.29610
C         -9.24500        0.70770      -10.45770
N        -10.13380        0.43430      -11.13130
H          7.34460       -0.44980        5.96010
H          5.47960       -5.38600        9.32500
H          6.22740       -7.21280       10.81990
H          8.01260       -8.28730       12.16980
H         10.74040       -5.18700       11.09500
H         10.02890       -3.36990        9.62990
H          3.74400       -1.97340        6.40260
H          2.10780        1.38670        5.32780
H          0.63570        2.56320        6.88090
H         -1.17910        2.35200        8.56940
H         -2.37740        1.05850        8.42370
H         -3.27860        2.12710        6.35870
H         -3.33340        3.24730        7.72420
H         -2.07730        3.41040        6.49270
H         -2.10010       -0.70390        6.76820
H         -0.62320       -1.89320        5.22260
H          1.53130       -2.90820        6.10100
H          1.16050       -5.31190        5.85220
H          1.21460       -7.27910        4.42390
H          1.33300       -7.11820        2.66600
H         -1.18990       -6.59780        4.31300
H         -1.06840       -6.46640        2.55770
H         -0.88140       -8.03890        3.33890
H          1.17000       -4.87780        1.61040
H          1.54370       -2.47770        1.85050
H         -2.18730       -0.40030        0.40740
H         -2.48400       -2.05950        3.65720
H         -2.98520       -1.08000        2.26560
H         -1.90390       -2.78000        0.73460
H         -1.42130       -3.71570        2.15210
H         -3.13870       -3.52550        1.75800
H          2.27160        2.48490       -1.06400
H          3.06230        2.67100       -3.20600
H          2.64190        4.25380       -2.49740
H          2.53720        3.62900       -5.48940
H          2.33670        5.21770       -4.73630
H          3.90650        4.41080       -4.68150
H         -3.32930        3.09240       -7.57500
H          0.17520        4.88250       -5.26060
H         -0.08230        7.22890       -4.60460
H         -3.26040        8.71150       -3.43970
H         -1.65590        9.06910       -4.09430
H         -1.76900        9.63370       -1.67730
H         -2.21760        7.96730       -1.29780
H         -0.61810        8.32100       -1.95040
H         -4.01480        6.40000       -3.18420
H         -3.76120        4.06190       -3.83490
H          0.29090        0.88040       -4.84370
H          2.07860        0.42320       -6.44650
H          2.92310        0.68270       -8.74160
H          2.34650        2.00730       -9.76320
H          4.21030        2.30740       -7.35720
H          3.62400        3.63520       -8.36070
H          4.68950        2.40870       -9.05410
H          0.67690        3.59390       -8.92900
H         -1.10440        4.06880       -7.31990
H         -6.60590        0.90450       -7.40630
H         -8.44330        1.64720      -12.47450
H         -7.54640        2.78440      -14.45090
