
  xtb     02012220593D
 energy: -266.657931318171 gnorm: 0.000447092566 xtb: 6.4.1 (unknown)
158174  0     0  0            999 V2000
    6.5600    2.9614    4.7997 C   0  0  0  0  0  0  0  0  0  0  0  0
    7.7082    3.6344    4.4615 C   0  0  0  0  0  0  0  0  0  0  0  0
    8.1272    4.1449    3.1382 C   0  0  0  0  0  0  0  0  0  0  0  0
    7.4778    4.2610    2.1166 O   0  0  0  0  0  0  0  0  0  0  0  0
    9.5512    4.5030    3.2805 C   0  0  0  0  0  0  0  0  0  0  0  0
   10.4112    4.9505    2.3201 C   0  0  0  0  0  0  0  0  0  0  0  0
   11.7536    5.2172    2.6689 C   0  0  0  0  0  0  0  0  0  0  0  0
   12.6870    5.6761    1.7174 C   0  0  0  0  0  0  0  0  0  0  0  0
   13.9851    5.9247    2.0671 C   0  0  0  0  0  0  0  0  0  0  0  0
   14.3808    5.7163    3.3952 C   0  0  0  0  0  0  0  0  0  0  0  0
   15.6631    5.9655    3.7200 F   0  0  0  0  0  0  0  0  0  0  0  0
   13.5165    5.2732    4.3571 C   0  0  0  0  0  0  0  0  0  0  0  0
   12.1753    5.0125    4.0146 C   0  0  0  0  0  0  0  0  0  0  0  0
   11.2578    4.5540    4.9889 C   0  0  0  0  0  0  0  0  0  0  0  0
    9.9610    4.3046    4.6268 C   0  0  0  0  0  0  0  0  0  0  0  0
    8.8086    3.8331    5.3894 C   0  0  0  0  0  0  0  0  0  0  0  0
    8.7835    3.6803    6.7522 C   0  0  0  0  0  0  0  0  0  0  0  0
    7.6606    3.3289    7.5310 C   0  0  0  0  0  0  0  0  0  0  0  0
    6.8008    3.0730    8.2488 N   0  0  0  0  0  0  0  0  0  0  0  0
    9.8962    3.9051    7.5898 C   0  0  0  0  0  0  0  0  0  0  0  0
   10.7607    4.0647    8.3285 N   0  0  0  0  0  0  0  0  0  0  0  0
    5.4085    2.6556    4.0589 C   0  0  0  0  0  0  0  0  0  0  0  0
    4.2439    1.5734    4.8549 S   0  0  0  0  0  0  0  0  0  0  0  0
    3.2289    1.6253    3.4744 C   0  0  0  0  0  0  0  0  0  0  0  0
    2.0412    1.1073    2.9652 C   0  0  0  0  0  0  0  0  0  0  0  0
    0.7991   -0.0210    3.3997 S   0  0  0  0  0  0  0  0  0  0  0  0
    0.0990    0.2040    1.8305 C   0  0  0  0  0  0  0  0  0  0  0  0
   -0.9497   -0.4465    1.1126 C   0  0  0  0  0  0  0  0  0  0  0  0
   -1.8179   -1.4623    1.5018 C   0  0  0  0  0  0  0  0  0  0  0  0
   -2.6562   -1.9758    0.5401 C   0  0  0  0  0  0  0  0  0  0  0  0
   -3.6612   -3.1064    0.6766 C   0  0  0  0  0  0  0  0  0  0  0  0
   -4.8822   -2.7418    1.5051 C   0  0  0  0  0  0  0  0  0  0  0  0
   -5.1583   -1.4345    1.8757 C   0  0  0  0  0  0  0  0  0  0  0  0
   -6.3016   -1.1406    2.5979 C   0  0  0  0  0  0  0  0  0  0  0  0
   -7.1960   -2.1380    2.9595 C   0  0  0  0  0  0  0  0  0  0  0  0
   -8.4565   -1.8094    3.7060 C   0  0  0  0  0  0  0  0  0  0  0  0
   -9.5991   -1.5287    2.7278 C   0  0  0  0  0  0  0  0  0  0  0  0
   -6.9209   -3.4436    2.5707 C   0  0  0  0  0  0  0  0  0  0  0  0
   -5.7812   -3.7439    1.8514 C   0  0  0  0  0  0  0  0  0  0  0  0
   -2.9484   -4.3213    1.2393 C   0  0  0  0  0  0  0  0  0  0  0  0
   -2.8262   -4.4757    2.6147 C   0  0  0  0  0  0  0  0  0  0  0  0
   -2.1307   -5.5473    3.1407 C   0  0  0  0  0  0  0  0  0  0  0  0
   -1.5359   -6.4890    2.3107 C   0  0  0  0  0  0  0  0  0  0  0  0
   -0.8227   -7.6774    2.8875 C   0  0  0  0  0  0  0  0  0  0  0  0
   -1.8060   -8.8248    3.1278 C   0  0  0  0  0  0  0  0  0  0  0  0
   -1.6585   -6.3277    0.9375 C   0  0  0  0  0  0  0  0  0  0  0  0
   -2.3495   -5.2544    0.4055 C   0  0  0  0  0  0  0  0  0  0  0  0
   -4.1179   -3.2586   -0.7518 C   0  0  0  0  0  0  0  0  0  0  0  0
   -3.5116   -2.2892   -1.5536 C   0  0  0  0  0  0  0  0  0  0  0  0
   -2.6043   -1.4971   -0.7905 C   0  0  0  0  0  0  0  0  0  0  0  0
   -1.7525   -0.4610   -1.1725 C   0  0  0  0  0  0  0  0  0  0  0  0
   -0.9341    0.0700   -0.2061 C   0  0  0  0  0  0  0  0  0  0  0  0
    0.0873    1.1973   -0.3319 C   0  0  0  0  0  0  0  0  0  0  0  0
    1.1302    0.9231   -1.4009 C   0  0  0  0  0  0  0  0  0  0  0  0
    1.5080    1.8568   -2.3530 C   0  0  0  0  0  0  0  0  0  0  0  0
    2.5236    1.5735   -3.2489 C   0  0  0  0  0  0  0  0  0  0  0  0
    3.1969    0.3619   -3.2104 C   0  0  0  0  0  0  0  0  0  0  0  0
    4.2862    0.0522   -4.1955 C   0  0  0  0  0  0  0  0  0  0  0  0
    3.7234   -0.7083   -5.3978 C   0  0  0  0  0  0  0  0  0  0  0  0
    2.8104   -0.5749   -2.2595 C   0  0  0  0  0  0  0  0  0  0  0  0
    1.7927   -0.3000   -1.3682 C   0  0  0  0  0  0  0  0  0  0  0  0
   -0.6891    2.4891   -0.5232 C   0  0  0  0  0  0  0  0  0  0  0  0
   -0.8074    3.4210    0.4996 C   0  0  0  0  0  0  0  0  0  0  0  0
   -1.5371    4.5825    0.3182 C   0  0  0  0  0  0  0  0  0  0  0  0
   -2.1747    4.8462   -0.8856 C   0  0  0  0  0  0  0  0  0  0  0  0
   -2.9994    6.0873   -1.0644 C   0  0  0  0  0  0  0  0  0  0  0  0
   -4.4410    5.8371   -0.6169 C   0  0  0  0  0  0  0  0  0  0  0  0
   -2.0717    3.9039   -1.9008 C   0  0  0  0  0  0  0  0  0  0  0  0
   -1.3443    2.7426   -1.7234 C   0  0  0  0  0  0  0  0  0  0  0  0
    0.7520    1.1208    1.0212 C   0  0  0  0  0  0  0  0  0  0  0  0
    1.8773    1.6427    1.6598 C   0  0  0  0  0  0  0  0  0  0  0  0
    2.9264    2.4833    1.3758 N   0  0  0  0  0  0  0  0  0  0  0  0
    3.7703    2.4629    2.4657 C   0  0  0  0  0  0  0  0  0  0  0  0
    4.9849    3.0407    2.7933 C   0  0  0  0  0  0  0  0  0  0  0  0
    3.1957    3.1667    0.1955 C   0  0  0  0  0  0  0  0  0  0  0  0
    2.4573    4.1340   -0.4114 C   0  0  0  0  0  0  0  0  0  0  0  0
    3.0830    4.6327   -1.5745 C   0  0  0  0  0  0  0  0  0  0  0  0
    4.2814    4.0498   -1.8433 C   0  0  0  0  0  0  0  0  0  0  0  0
    5.2500    4.3730   -2.9279 C   0  0  0  0  0  0  0  0  0  0  0  0
    6.3791    5.2615   -2.3998 C   0  0  0  0  0  0  0  0  0  0  0  0
    4.6760    2.8457   -0.6629 S   0  0  0  0  0  0  0  0  0  0  0  0
   -4.0140   -2.3776   -3.1799 S   0  0  0  0  0  0  0  0  0  0  0  0
   -5.0542   -3.7595   -2.7971 C   0  0  0  0  0  0  0  0  0  0  0  0
   -4.9884   -4.0798   -1.4414 C   0  0  0  0  0  0  0  0  0  0  0  0
   -5.7576   -4.3066   -3.8789 C   0  0  0  0  0  0  0  0  0  0  0  0
   -6.5713   -5.4093   -3.9853 C   0  0  0  0  0  0  0  0  0  0  0  0
   -6.9002   -6.4148   -2.9562 C   0  0  0  0  0  0  0  0  0  0  0  0
   -6.6173   -6.4314   -1.7759 O   0  0  0  0  0  0  0  0  0  0  0  0
   -7.6743   -7.4644   -3.6580 C   0  0  0  0  0  0  0  0  0  0  0  0
   -8.1770   -8.6385   -3.1358 C   0  0  0  0  0  0  0  0  0  0  0  0
   -8.8693   -9.4931   -3.9846 C   0  0  0  0  0  0  0  0  0  0  0  0
   -9.5204  -10.9748   -3.4020 Cl  0  0  0  0  0  0  0  0  0  0  0  0
   -9.0323   -9.1389   -5.3256 C   0  0  0  0  0  0  0  0  0  0  0  0
   -9.6954   -9.9687   -6.1406 F   0  0  0  0  0  0  0  0  0  0  0  0
   -8.5328   -7.9589   -5.8544 C   0  0  0  0  0  0  0  0  0  0  0  0
   -7.8429   -7.1078   -5.0047 C   0  0  0  0  0  0  0  0  0  0  0  0
   -7.2016   -5.8139   -5.2303 C   0  0  0  0  0  0  0  0  0  0  0  0
   -7.2448   -5.1225   -6.4141 C   0  0  0  0  0  0  0  0  0  0  0  0
   -7.8835   -5.5963   -7.5802 C   0  0  0  0  0  0  0  0  0  0  0  0
   -8.3754   -5.9196   -8.5656 N   0  0  0  0  0  0  0  0  0  0  0  0
   -6.6997   -3.8450   -6.6648 C   0  0  0  0  0  0  0  0  0  0  0  0
   -6.3039   -2.8093   -6.9663 N   0  0  0  0  0  0  0  0  0  0  0  0
    6.5344    2.5515    5.8030 H   0  0  0  0  0  0  0  0  0  0  0  0
   10.0717    5.0954    1.3052 H   0  0  0  0  0  0  0  0  0  0  0  0
   12.3581    5.8286    0.7003 H   0  0  0  0  0  0  0  0  0  0  0  0
   14.7119    6.2754    1.3516 H   0  0  0  0  0  0  0  0  0  0  0  0
   13.8557    5.1250    5.3704 H   0  0  0  0  0  0  0  0  0  0  0  0
   11.6107    4.4058    5.9965 H   0  0  0  0  0  0  0  0  0  0  0  0
   -1.8115   -1.8357    2.5139 H   0  0  0  0  0  0  0  0  0  0  0  0
   -4.4796   -0.6385    1.6053 H   0  0  0  0  0  0  0  0  0  0  0  0
   -6.4985   -0.1175    2.8852 H   0  0  0  0  0  0  0  0  0  0  0  0
   -8.2970   -0.9310    4.3345 H   0  0  0  0  0  0  0  0  0  0  0  0
   -8.7333   -2.6459    4.3507 H   0  0  0  0  0  0  0  0  0  0  0  0
   -9.7816   -2.3978    2.0998 H   0  0  0  0  0  0  0  0  0  0  0  0
   -9.3479   -0.6889    2.0836 H   0  0  0  0  0  0  0  0  0  0  0  0
  -10.5128   -1.2917    3.2678 H   0  0  0  0  0  0  0  0  0  0  0  0
   -7.6070   -4.2348    2.8361 H   0  0  0  0  0  0  0  0  0  0  0  0
   -5.5804   -4.7650    1.5627 H   0  0  0  0  0  0  0  0  0  0  0  0
   -3.2888   -3.7591    3.2781 H   0  0  0  0  0  0  0  0  0  0  0  0
   -2.0463   -5.6527    4.2130 H   0  0  0  0  0  0  0  0  0  0  0  0
   -0.0417   -8.0104    2.2011 H   0  0  0  0  0  0  0  0  0  0  0  0
   -0.3522   -7.4030    3.8339 H   0  0  0  0  0  0  0  0  0  0  0  0
   -2.5868   -8.5150    3.8188 H   0  0  0  0  0  0  0  0  0  0  0  0
   -1.2912   -9.6855    3.5480 H   0  0  0  0  0  0  0  0  0  0  0  0
   -2.2756   -9.1222    2.1929 H   0  0  0  0  0  0  0  0  0  0  0  0
   -1.2038   -7.0487    0.2732 H   0  0  0  0  0  0  0  0  0  0  0  0
   -2.4246   -5.1477   -0.6670 H   0  0  0  0  0  0  0  0  0  0  0  0
   -1.7325   -0.1271   -2.1976 H   0  0  0  0  0  0  0  0  0  0  0  0
    1.0226    2.8190   -2.3972 H   0  0  0  0  0  0  0  0  0  0  0  0
    2.8031    2.3176   -3.9811 H   0  0  0  0  0  0  0  0  0  0  0  0
    4.7461    0.9804   -4.5409 H   0  0  0  0  0  0  0  0  0  0  0  0
    5.0571   -0.5535   -3.7147 H   0  0  0  0  0  0  0  0  0  0  0  0
    2.9595   -0.1155   -5.8961 H   0  0  0  0  0  0  0  0  0  0  0  0
    4.5132   -0.9288   -6.1121 H   0  0  0  0  0  0  0  0  0  0  0  0
    3.2736   -1.6450   -5.0769 H   0  0  0  0  0  0  0  0  0  0  0  0
    3.3191   -1.5269   -2.2106 H   0  0  0  0  0  0  0  0  0  0  0  0
    1.5103   -1.0391   -0.6311 H   0  0  0  0  0  0  0  0  0  0  0  0
   -0.3283    3.2463    1.4520 H   0  0  0  0  0  0  0  0  0  0  0  0
   -1.6078    5.2957    1.1273 H   0  0  0  0  0  0  0  0  0  0  0  0
   -2.9956    6.3873   -2.1141 H   0  0  0  0  0  0  0  0  0  0  0  0
   -2.5760    6.9022   -0.4736 H   0  0  0  0  0  0  0  0  0  0  0  0
   -5.0391    6.7366   -0.7411 H   0  0  0  0  0  0  0  0  0  0  0  0
   -4.8868    5.0386   -1.2057 H   0  0  0  0  0  0  0  0  0  0  0  0
   -4.4666    5.5443    0.4305 H   0  0  0  0  0  0  0  0  0  0  0  0
   -2.5659    4.0818   -2.8452 H   0  0  0  0  0  0  0  0  0  0  0  0
   -1.2785    2.0331   -2.5337 H   0  0  0  0  0  0  0  0  0  0  0  0
    5.5591    3.6951    2.1643 H   0  0  0  0  0  0  0  0  0  0  0  0
    1.5086    4.4789   -0.0418 H   0  0  0  0  0  0  0  0  0  0  0  0
    2.6542    5.4067   -2.1859 H   0  0  0  0  0  0  0  0  0  0  0  0
    5.6764    3.4496   -3.3263 H   0  0  0  0  0  0  0  0  0  0  0  0
    4.7232    4.8879   -3.7342 H   0  0  0  0  0  0  0  0  0  0  0  0
    5.9763    6.1978   -2.0208 H   0  0  0  0  0  0  0  0  0  0  0  0
    7.0882    5.4826   -3.1935 H   0  0  0  0  0  0  0  0  0  0  0  0
    6.9037    4.7603   -1.5897 H   0  0  0  0  0  0  0  0  0  0  0  0
   -5.5532   -4.8886   -1.0175 H   0  0  0  0  0  0  0  0  0  0  0  0
   -5.5984   -3.7574   -4.7994 H   0  0  0  0  0  0  0  0  0  0  0  0
   -8.0326   -8.8827   -2.0954 H   0  0  0  0  0  0  0  0  0  0  0  0
   -8.6945   -7.7500   -6.8989 H   0  0  0  0  0  0  0  0  0  0  0  0
  1  2  2  0  0  0  0
  2  3  1  0  0  0  0
  3  4  2  0  0  0  0
  3  5  1  0  0  0  0
  5  6  2  0  0  0  0
  6  7  1  0  0  0  0
  7  8  2  0  0  0  0
  8  9  1  0  0  0  0
  9 10  2  0  0  0  0
 10 11  1  0  0  0  0
 10 12  1  0  0  0  0
 12 13  2  0  0  0  0
 13 14  1  0  0  0  0
 14 15  2  0  0  0  0
 15 16  1  0  0  0  0
 16 17  2  0  0  0  0
 17 18  1  0  0  0  0
 18 19  3  0  0  0  0
 17 20  1  0  0  0  0
 20 21  3  0  0  0  0
  1 22  1  0  0  0  0
 22 23  1  0  0  0  0
 23 24  1  0  0  0  0
 24 25  1  0  0  0  0
 25 26  1  0  0  0  0
 26 27  1  0  0  0  0
 27 28  1  0  0  0  0
 28 29  2  0  0  0  0
 29 30  1  0  0  0  0
 30 31  1  0  0  0  0
 31 32  1  0  0  0  0
 32 33  2  0  0  0  0
 33 34  1  0  0  0  0
 34 35  2  0  0  0  0
 35 36  1  0  0  0  0
 36 37  1  0  0  0  0
 35 38  1  0  0  0  0
 38 39  2  0  0  0  0
 31 40  1  0  0  0  0
 40 41  2  0  0  0  0
 41 42  1  0  0  0  0
 42 43  2  0  0  0  0
 43 44  1  0  0  0  0
 44 45  1  0  0  0  0
 43 46  1  0  0  0  0
 46 47  2  0  0  0  0
 31 48  1  0  0  0  0
 48 49  2  0  0  0  0
 49 50  1  0  0  0  0
 50 51  1  0  0  0  0
 51 52  2  0  0  0  0
 52 53  1  0  0  0  0
 53 54  1  0  0  0  0
 54 55  2  0  0  0  0
 55 56  1  0  0  0  0
 56 57  2  0  0  0  0
 57 58  1  0  0  0  0
 58 59  1  0  0  0  0
 57 60  1  0  0  0  0
 60 61  2  0  0  0  0
 53 62  1  0  0  0  0
 62 63  2  0  0  0  0
 63 64  1  0  0  0  0
 64 65  2  0  0  0  0
 65 66  1  0  0  0  0
 66 67  1  0  0  0  0
 65 68  1  0  0  0  0
 68 69  2  0  0  0  0
 53 70  1  0  0  0  0
 70 71  1  0  0  0  0
 71 72  1  0  0  0  0
 72 73  1  0  0  0  0
 73 74  1  0  0  0  0
 72 75  1  0  0  0  0
 75 76  2  0  0  0  0
 76 77  1  0  0  0  0
 77 78  2  0  0  0  0
 78 79  1  0  0  0  0
 79 80  1  0  0  0  0
 78 81  1  0  0  0  0
 49 82  1  0  0  0  0
 82 83  1  0  0  0  0
 83 84  2  0  0  0  0
 83 85  1  0  0  0  0
 85 86  2  0  0  0  0
 86 87  1  0  0  0  0
 87 88  2  0  0  0  0
 87 89  1  0  0  0  0
 89 90  2  0  0  0  0
 90 91  1  0  0  0  0
 91 92  1  0  0  0  0
 91 93  2  0  0  0  0
 93 94  1  0  0  0  0
 93 95  1  0  0  0  0
 95 96  2  0  0  0  0
 96 97  1  0  0  0  0
 97 98  2  0  0  0  0
 98 99  1  0  0  0  0
 99100  3  0  0  0  0
 98101  1  0  0  0  0
101102  3  0  0  0  0
 16  2  1  0  0  0  0
 74 22  2  0  0  0  0
 81 75  1  0  0  0  0
 97 86  1  0  0  0  0
 15  5  1  0  0  0  0
 73 24  2  0  0  0  0
 96 89  1  0  0  0  0
 13  7  1  0  0  0  0
 71 25  2  0  0  0  0
 70 27  2  0  0  0  0
 52 28  1  0  0  0  0
 61 54  1  0  0  0  0
 69 62  1  0  0  0  0
 50 30  2  0  0  0  0
 39 32  1  0  0  0  0
 47 40  1  0  0  0  0
 84 48  1  0  0  0  0
  1103  1  0  0  0  0
  6104  1  0  0  0  0
  8105  1  0  0  0  0
  9106  1  0  0  0  0
 12107  1  0  0  0  0
 14108  1  0  0  0  0
 29109  1  0  0  0  0
 33110  1  0  0  0  0
 34111  1  0  0  0  0
 36112  1  0  0  0  0
 36113  1  0  0  0  0
 37114  1  0  0  0  0
 37115  1  0  0  0  0
 37116  1  0  0  0  0
 38117  1  0  0  0  0
 39118  1  0  0  0  0
 41119  1  0  0  0  0
 42120  1  0  0  0  0
 44121  1  0  0  0  0
 44122  1  0  0  0  0
 45123  1  0  0  0  0
 45124  1  0  0  0  0
 45125  1  0  0  0  0
 46126  1  0  0  0  0
 47127  1  0  0  0  0
 51128  1  0  0  0  0
 55129  1  0  0  0  0
 56130  1  0  0  0  0
 58131  1  0  0  0  0
 58132  1  0  0  0  0
 59133  1  0  0  0  0
 59134  1  0  0  0  0
 59135  1  0  0  0  0
 60136  1  0  0  0  0
 61137  1  0  0  0  0
 63138  1  0  0  0  0
 64139  1  0  0  0  0
 66140  1  0  0  0  0
 66141  1  0  0  0  0
 67142  1  0  0  0  0
 67143  1  0  0  0  0
 67144  1  0  0  0  0
 68145  1  0  0  0  0
 69146  1  0  0  0  0
 74147  1  0  0  0  0
 76148  1  0  0  0  0
 77149  1  0  0  0  0
 79150  1  0  0  0  0
 79151  1  0  0  0  0
 80152  1  0  0  0  0
 80153  1  0  0  0  0
 80154  1  0  0  0  0
 84155  1  0  0  0  0
 85156  1  0  0  0  0
 90157  1  0  0  0  0
 95158  1  0  0  0  0
M  END
