158

C          6.56000        2.96140        4.79970
C          7.70820        3.63440        4.46150
C          8.12720        4.14490        3.13820
O          7.47780        4.26100        2.11660
C          9.55120        4.50300        3.28050
C         10.41120        4.95050        2.32010
C         11.75360        5.21720        2.66890
C         12.68700        5.67610        1.71740
C         13.98510        5.92470        2.06710
C         14.38080        5.71630        3.39520
F         15.66310        5.96550        3.72000
C         13.51650        5.27320        4.35710
C         12.17530        5.01250        4.01460
C         11.25780        4.55400        4.98890
C          9.96100        4.30460        4.62680
C          8.80860        3.83310        5.38940
C          8.78350        3.68030        6.75220
C          7.66060        3.32890        7.53100
N          6.80080        3.07300        8.24880
C          9.89620        3.90510        7.58980
N         10.76070        4.06470        8.32850
C          5.40850        2.65560        4.05890
S          4.24390        1.57340        4.85490
C          3.22890        1.62530        3.47440
C          2.04120        1.10730        2.96520
S          0.79910       -0.02100        3.39970
C          0.09900        0.20400        1.83050
C         -0.94970       -0.44650        1.11260
C         -1.81790       -1.46230        1.50180
C         -2.65620       -1.97580        0.54010
C         -3.66120       -3.10640        0.67660
C         -4.88220       -2.74180        1.50510
C         -5.15830       -1.43450        1.87570
C         -6.30160       -1.14060        2.59790
C         -7.19600       -2.13800        2.95950
C         -8.45650       -1.80940        3.70600
C         -9.59910       -1.52870        2.72780
C         -6.92090       -3.44360        2.57070
C         -5.78120       -3.74390        1.85140
C         -2.94840       -4.32130        1.23930
C         -2.82620       -4.47570        2.61470
C         -2.13070       -5.54730        3.14070
C         -1.53590       -6.48900        2.31070
C         -0.82270       -7.67740        2.88750
C         -1.80600       -8.82480        3.12780
C         -1.65850       -6.32770        0.93750
C         -2.34950       -5.25440        0.40550
C         -4.11790       -3.25860       -0.75180
C         -3.51160       -2.28920       -1.55360
C         -2.60430       -1.49710       -0.79050
C         -1.75250       -0.46100       -1.17250
C         -0.93410        0.07000       -0.20610
C          0.08730        1.19730       -0.33190
C          1.13020        0.92310       -1.40090
C          1.50800        1.85680       -2.35300
C          2.52360        1.57350       -3.24890
C          3.19690        0.36190       -3.21040
C          4.28620        0.05220       -4.19550
C          3.72340       -0.70830       -5.39780
C          2.81040       -0.57490       -2.25950
C          1.79270       -0.30000       -1.36820
C         -0.68910        2.48910       -0.52320
C         -0.80740        3.42100        0.49960
C         -1.53710        4.58250        0.31820
C         -2.17470        4.84620       -0.88560
C         -2.99940        6.08730       -1.06440
C         -4.44100        5.83710       -0.61690
C         -2.07170        3.90390       -1.90080
C         -1.34430        2.74260       -1.72340
C          0.75200        1.12080        1.02120
C          1.87730        1.64270        1.65980
N          2.92640        2.48330        1.37580
C          3.77030        2.46290        2.46570
C          4.98490        3.04070        2.79330
C          3.19570        3.16670        0.19550
C          2.45730        4.13400       -0.41140
C          3.08300        4.63270       -1.57450
C          4.28140        4.04980       -1.84330
C          5.25000        4.37300       -2.92790
C          6.37910        5.26150       -2.39980
S          4.67600        2.84570       -0.66290
S         -4.01400       -2.37760       -3.17990
C         -5.05420       -3.75950       -2.79710
C         -4.98840       -4.07980       -1.44140
C         -5.75760       -4.30660       -3.87890
C         -6.57130       -5.40930       -3.98530
C         -6.90020       -6.41480       -2.95620
O         -6.61730       -6.43140       -1.77590
C         -7.67430       -7.46440       -3.65800
C         -8.17700       -8.63850       -3.13580
C         -8.86930       -9.49310       -3.98460
Cl        -9.52040      -10.97480       -3.40200
C         -9.03230       -9.13890       -5.32560
F         -9.69540       -9.96870       -6.14060
C         -8.53280       -7.95890       -5.85440
C         -7.84290       -7.10780       -5.00470
C         -7.20160       -5.81390       -5.23030
C         -7.24480       -5.12250       -6.41410
C         -7.88350       -5.59630       -7.58020
N         -8.37540       -5.91960       -8.56560
C         -6.69970       -3.84500       -6.66480
N         -6.30390       -2.80930       -6.96630
H          6.53440        2.55150        5.80300
H         10.07170        5.09540        1.30520
H         12.35810        5.82860        0.70030
H         14.71190        6.27540        1.35160
H         13.85570        5.12500        5.37040
H         11.61070        4.40580        5.99650
H         -1.81150       -1.83570        2.51390
H         -4.47960       -0.63850        1.60530
H         -6.49850       -0.11750        2.88520
H         -8.29700       -0.93100        4.33450
H         -8.73330       -2.64590        4.35070
H         -9.78160       -2.39780        2.09980
H         -9.34790       -0.68890        2.08360
H        -10.51280       -1.29170        3.26780
H         -7.60700       -4.23480        2.83610
H         -5.58040       -4.76500        1.56270
H         -3.28880       -3.75910        3.27810
H         -2.04630       -5.65270        4.21300
H         -0.04170       -8.01040        2.20110
H         -0.35220       -7.40300        3.83390
H         -2.58680       -8.51500        3.81880
H         -1.29120       -9.68550        3.54800
H         -2.27560       -9.12220        2.19290
H         -1.20380       -7.04870        0.27320
H         -2.42460       -5.14770       -0.66700
H         -1.73250       -0.12710       -2.19760
H          1.02260        2.81900       -2.39720
H          2.80310        2.31760       -3.98110
H          4.74610        0.98040       -4.54090
H          5.05710       -0.55350       -3.71470
H          2.95950       -0.11550       -5.89610
H          4.51320       -0.92880       -6.11210
H          3.27360       -1.64500       -5.07690
H          3.31910       -1.52690       -2.21060
H          1.51030       -1.03910       -0.63110
H         -0.32830        3.24630        1.45200
H         -1.60780        5.29570        1.12730
H         -2.99560        6.38730       -2.11410
H         -2.57600        6.90220       -0.47360
H         -5.03910        6.73660       -0.74110
H         -4.88680        5.03860       -1.20570
H         -4.46660        5.54430        0.43050
H         -2.56590        4.08180       -2.84520
H         -1.27850        2.03310       -2.53370
H          5.55910        3.69510        2.16430
H          1.50860        4.47890       -0.04180
H          2.65420        5.40670       -2.18590
H          5.67640        3.44960       -3.32630
H          4.72320        4.88790       -3.73420
H          5.97630        6.19780       -2.02080
H          7.08820        5.48260       -3.19350
H          6.90370        4.76030       -1.58970
H         -5.55320       -4.88860       -1.01750
H         -5.59840       -3.75740       -4.79940
H         -8.03260       -8.88270       -2.09540
H         -8.69450       -7.75000       -6.89890
