161

C         -5.02320        6.47830        1.32740
C         -5.53350        7.38380        0.42920
C         -5.35800        7.42960       -1.03790
O         -4.78830        6.64080       -1.76800
C         -6.01620        8.67090       -1.48480
C         -6.10540        9.17210       -2.75110
C         -6.77900       10.39550       -2.96110
C         -6.90380       10.96020       -4.24670
C         -7.55530       12.14740       -4.43430
C         -8.10250       12.80300       -3.32310
F         -8.73910       13.97130       -3.52770
C         -8.01080       12.29920       -2.05570
C         -7.34420       11.07640       -1.84430
C         -7.23700       10.52900       -0.54430
C         -6.58420        9.33830       -0.36620
C         -6.32360        8.53700        0.82730
C         -6.79760        8.83690        2.07960
C         -6.62810        8.07480        3.25490
N         -6.56040        7.52740        4.26310
C         -7.57050        9.97920        2.37770
N         -8.19990       10.88460        2.69870
C         -4.26990        5.30740        1.15540
S         -3.78200        4.48900        2.65700
C         -2.99380        3.26470        1.75370
C         -2.24540        2.09980        1.90600
S         -1.53140        1.13450        3.15740
C         -0.81980        0.13500        1.93250
C          0.14950       -0.91420        1.94210
C          0.81380       -1.52640        3.00110
C          1.80960       -2.42130        2.68540
C          2.70490       -3.20440        3.63110
C          3.38770       -2.22840        4.57010
C          4.60410       -1.64760        4.24080
C          5.19530       -0.72970        5.08950
C          4.58570       -0.36290        6.28150
C          5.20930        0.66380        7.18200
C          4.71900        2.06560        6.81320
C          3.35950       -0.93370        6.59770
C          2.76570       -1.85310        5.75450
C          1.97830       -4.30200        4.38910
C          0.70870       -4.72740        4.02840
C          0.09810       -5.76300        4.71370
C          0.74130       -6.40510        5.76230
C          0.05870       -7.49700        6.53410
C         -0.68960       -6.91390        7.73460
C          2.01810       -5.98170        6.11130
C          2.63150       -4.94750        5.43270
C          3.63670       -3.87290        2.65140
C          3.27520       -3.55320        1.33790
C          2.16170       -2.66230        1.33680
C          1.48090       -2.06390        0.27660
C          0.45070       -1.21200        0.58940
C         -0.48440       -0.45300       -0.34700
C         -1.49630       -1.45660       -0.89070
C         -1.06590       -2.54700       -1.63910
C         -1.96830       -3.46770       -2.13570
C         -3.33040       -3.33330       -1.90110
C         -4.30680       -4.35580       -2.40500
C         -4.53190       -5.44320       -1.35240
C         -3.75760       -2.25180       -1.14520
C         -2.85680       -1.32880       -0.64530
C          0.25640        0.31660       -1.42310
C          0.06580        0.11230       -2.77980
C          0.74430        0.87800       -3.71320
C          1.62720        1.87220       -3.32080
C          2.35590        2.75370       -4.29900
C          2.47160        2.19100       -5.71040
C          1.81920        2.06880       -1.95600
C          1.14970        1.30550       -1.02250
C         -1.13720        0.49100        0.63070
C         -1.94060        1.62950        0.60250
N         -2.47640        2.48340       -0.33250
C         -3.11650        3.49210        0.35810
C         -3.82810        4.63110        0.02440
C         -2.29960        2.45130       -1.71040
C         -1.64760        3.38790       -2.45530
C         -1.69060        3.06240       -3.82150
S         -1.04510        3.76260       -5.25870
C         -1.70680        2.46270       -6.22270
C         -1.52720        2.48280       -7.70140
C         -2.43800        3.52600       -8.35270
C         -2.38790        1.55360       -5.47340
C         -2.38060        1.89180       -4.10540
S         -3.01330        1.16870       -2.67160
S          4.25980       -4.29600        0.15900
C          5.19770       -5.06940        1.43280
C          4.71000       -4.72990        2.70730
C          6.30080       -5.90960        1.26760
C          6.93950       -6.34640        0.12870
C          6.56220       -6.00660       -1.24360
O          5.63870       -5.30400       -1.61030
C          7.53830       -6.69570       -2.11570
C          8.44900       -7.41220       -1.31790
C          9.46430       -8.14160       -1.91490
C          9.55670       -8.14340       -3.29940
C          8.65750       -7.43470       -4.08030
Br         8.83830       -7.47550       -5.96090
C          7.62350       -6.69320       -3.49790
Cl         6.50940       -5.81710       -4.45780
C          8.09720       -7.21170        0.08920
C          8.77320       -7.75960        1.15050
C          8.45900       -7.57910        2.51360
N          8.27790       -7.48710        3.64450
C          9.90230       -8.59590        1.02570
N         10.82350       -9.28050        0.99810
H         -5.22090        6.69360        2.37090
H         -5.66600        8.64070       -3.58210
H         -6.47350       10.43620       -5.08700
H         -7.65980       12.59310       -5.41080
H         -8.44520       12.83070       -1.22340
H         -7.67480       11.07250        0.27670
H          0.56050       -1.28910        4.02280
H          5.09760       -1.91550        3.31780
H          6.14760       -0.29460        4.82150
H          4.94720        0.45320        8.22070
H          6.29650        0.62670        7.08930
H          5.16920        2.80990        7.46570
H          4.98250        2.29990        5.78420
H          3.63730        2.12610        6.91090
H          2.86520       -0.65870        7.51840
H          1.81760       -2.29490        6.02570
H          0.18910       -4.25000        3.21020
H         -0.89380       -6.07870        4.42290
H         -0.64890       -8.02090        5.88850
H          0.79850       -8.21800        6.88750
H          0.00160       -6.39660        8.39630
H         -1.18260       -7.70390        8.29610
H         -1.44190       -6.20210        7.40190
H          2.53930       -6.47110        6.92150
H          3.62290       -4.62880        5.72010
H          1.79320       -2.25160       -0.73850
H         -0.01620       -2.68060       -1.84580
H         -1.60650       -4.30320       -2.71800
H         -5.25980       -3.87500       -2.63470
H         -3.92490       -4.81410       -3.31940
H         -3.59420       -5.94170       -1.11690
H         -4.92670       -5.00780       -0.43720
H         -5.23820       -6.18530       -1.71720
H         -4.81150       -2.12260       -0.94500
H         -3.23440       -0.50320       -0.06170
H         -0.62490       -0.64170       -3.12560
H          0.56520        0.68880       -4.76000
H          1.83650        3.71700       -4.34290
H          3.35760        2.94800       -3.90710
H          3.10860        2.83510       -6.31220
H          2.90860        1.19520       -5.69200
H          1.49810        2.13780       -6.19170
H          2.50500        2.83490       -1.62210
H          1.31830        1.47540        0.03220
H         -4.02780        4.97680       -0.97290
H         -1.15760        4.24820       -2.03920
H         -0.48780        2.71790       -7.94380
H         -1.75800        1.49250       -8.09900
H         -2.20660        4.51750       -7.97060
H         -2.29830        3.52640       -9.43050
H         -3.48060        3.30580       -8.13570
H         -2.86810        0.68170       -5.87800
H          5.16000       -5.11160        3.60630
H          6.70760       -6.25800        2.20920
H         10.17890       -8.70270       -1.33690
H         10.34150       -8.70440       -3.78280
