119

C         -4.46080        4.08210        5.75460
C         -4.57090        3.02400        6.62750
C         -4.01680        1.68380        6.43260
O         -3.39940        1.26500        5.46630
C         -4.35570        0.91790        7.64390
C         -4.05150       -0.37580        7.95200
C         -4.48230       -0.90810        9.18790
C         -4.19470       -2.23670        9.56030
C         -4.61730       -2.73940       10.75970
C         -5.34670       -1.91060       11.62240
F         -5.75430       -2.42300       12.79840
C         -5.65250       -0.61510       11.31030
C         -5.22480       -0.08110       10.07940
C         -5.52520        1.25700        9.73020
C         -5.09610        1.75190        8.52840
C         -5.24690        3.06680        7.90700
C         -5.91910        4.12680        8.46430
C         -6.55530        4.08530        9.72210
N         -7.09120        4.12380       10.73700
C         -6.08330        5.40060        7.88400
N         -6.26680        6.46140        7.48050
C         -3.83090        4.18700        4.51360
C         -3.79160        5.38740        3.77870
C         -4.36660        6.69610        4.21140
C         -3.39400        7.43970        5.13110
C         -3.08640        5.23250        2.59480
S         -2.69570        6.34940        1.29900
C         -1.87450        5.06520        0.48750
C         -1.18380        4.84350       -0.71180
C         -0.97180        5.73300       -1.79710
C         -0.32520        5.22960       -2.95160
N         -0.14410        5.99640       -4.03260
C         -0.58440        7.23390       -3.95980
C         -1.20680        7.73710       -2.81140
N         -1.40300        6.99790       -1.74090
C          0.16560        3.89890       -2.91040
C          0.93930        3.21270       -3.85640
S          1.61850        3.47560       -5.42300
C          2.37400        1.89540       -5.32280
C          3.18400        1.18990       -6.20310
C          3.64550        1.75960       -7.50450
C          5.02040        2.41620       -7.35240
C          3.53810       -0.06540       -5.68000
S          2.83860       -0.34280       -4.08400
C          2.09970        1.21370       -4.12460
C          1.27460        1.97630       -3.29310
N          0.72870        1.87240       -2.04160
C          0.02020        3.02880       -1.78890
C         -0.76840        3.47940       -0.70170
N         -1.22250        2.88910        0.46490
C         -1.89620        3.84890        1.17850
C         -2.59170        3.93130        2.38700
S         -2.99050        2.87220        3.68620
C         -1.50880        1.50440        0.77310
C         -2.81420        1.06030        0.11550
C          1.16060        0.80610       -1.16740
C          0.40030       -0.49360       -1.42700
C          4.35940       -0.97030       -6.36250
C          4.77100       -2.23710       -6.03250
C          4.37050       -2.99910       -4.84690
O          3.67980       -2.61770       -3.91560
C          4.95530       -4.34140       -4.99850
C          4.80750       -5.42310       -4.13410
C          5.45650       -6.56160       -4.54770
C          6.20420       -6.61710       -5.73120
C          6.36200       -5.55520       -6.59000
C          5.70370       -4.38860       -6.19210
C          5.62870       -3.08040       -6.84140
C          6.28520       -2.73160       -7.99470
C          7.11330       -3.59860       -8.73790
N          7.79930       -4.24120       -9.39760
C          6.25580       -1.46300       -8.60990
N          6.29690       -0.46040       -9.17040
C          6.56300       -8.06800       -5.53090
C          5.80080       -9.11990       -6.37420
C          4.46150       -8.51190       -6.70910
C          3.74990       -8.45920       -5.59100
C          4.59530       -9.03100       -4.47980
C          5.38490      -10.09400       -5.26030
C          5.72710       -8.00710       -4.21370
H         -4.92670        5.00390        6.07470
H         -3.48800       -0.98610        7.26210
H         -3.63110       -2.85590        8.87850
H         -4.40550       -3.75340       11.05980
H         -6.21610       -0.00550       11.99920
H         -6.08810        1.85470       10.42860
H         -4.54490        7.30050        3.31980
H         -5.31800        6.55790        4.72690
H         -2.45280        7.62190        4.61770
H         -3.82300        8.39320        5.42520
H         -3.19410        6.86060        6.02960
H         -0.43660        7.84690       -4.83820
H         -1.55610        8.75890       -2.75810
H          3.69530        0.99040       -8.27630
H          2.92290        2.51500       -7.81980
H          4.98210        3.20390       -6.60360
H          5.32850        2.84800       -8.30010
H          5.76590        1.68390       -7.05200
H         -1.60440        1.43450        1.86010
H         -0.69810        0.85710        0.46000
H         -3.64230        1.66920        0.46980
H         -2.75120        1.15940       -0.96660
H         -3.01760        0.02270        0.36480
H          1.07800        1.14040       -0.13200
H          2.22240        0.62950       -1.37030
H          0.67540       -1.23610       -0.68320
H          0.66270       -0.88270       -2.40700
H         -0.67540       -0.34050       -1.39580
H          4.70820       -0.59340       -7.31430
H          4.22380       -5.33520       -3.23100
H          6.93900       -5.61790       -7.49720
H          7.62520       -8.29020       -5.45110
H          6.36640       -9.52470       -7.20900
H          4.19880       -8.14140       -7.68270
H          2.77380       -8.03530       -5.44380
H          4.06230       -9.35630       -3.59010
H          6.22760      -10.50340       -4.70490
H          4.75470      -10.90440       -5.62330
H          6.24220       -8.19350       -3.27330
