
  xtb     02022209103D
 energy: -208.235335556936 gnorm: 0.000515977993 xtb: 6.4.1 (unknown)
119134  0     0  0            999 V2000
   -4.4608    4.0821    5.7546 C   0  0  0  0  0  0  0  0  0  0  0  0
   -4.5709    3.0240    6.6275 C   0  0  0  0  0  0  0  0  0  0  0  0
   -4.0168    1.6838    6.4326 C   0  0  0  0  0  0  0  0  0  0  0  0
   -3.3994    1.2650    5.4663 O   0  0  0  0  0  0  0  0  0  0  0  0
   -4.3557    0.9179    7.6439 C   0  0  0  0  0  0  0  0  0  0  0  0
   -4.0515   -0.3758    7.9520 C   0  0  0  0  0  0  0  0  0  0  0  0
   -4.4823   -0.9081    9.1879 C   0  0  0  0  0  0  0  0  0  0  0  0
   -4.1947   -2.2367    9.5603 C   0  0  0  0  0  0  0  0  0  0  0  0
   -4.6173   -2.7394   10.7597 C   0  0  0  0  0  0  0  0  0  0  0  0
   -5.3467   -1.9106   11.6224 C   0  0  0  0  0  0  0  0  0  0  0  0
   -5.7543   -2.4230   12.7984 F   0  0  0  0  0  0  0  0  0  0  0  0
   -5.6525   -0.6151   11.3103 C   0  0  0  0  0  0  0  0  0  0  0  0
   -5.2248   -0.0811   10.0794 C   0  0  0  0  0  0  0  0  0  0  0  0
   -5.5252    1.2570    9.7302 C   0  0  0  0  0  0  0  0  0  0  0  0
   -5.0961    1.7519    8.5284 C   0  0  0  0  0  0  0  0  0  0  0  0
   -5.2469    3.0668    7.9070 C   0  0  0  0  0  0  0  0  0  0  0  0
   -5.9191    4.1268    8.4643 C   0  0  0  0  0  0  0  0  0  0  0  0
   -6.5553    4.0853    9.7221 C   0  0  0  0  0  0  0  0  0  0  0  0
   -7.0912    4.1238   10.7370 N   0  0  0  0  0  0  0  0  0  0  0  0
   -6.0833    5.4006    7.8840 C   0  0  0  0  0  0  0  0  0  0  0  0
   -6.2668    6.4614    7.4805 N   0  0  0  0  0  0  0  0  0  0  0  0
   -3.8309    4.1870    4.5136 C   0  0  0  0  0  0  0  0  0  0  0  0
   -3.7916    5.3874    3.7787 C   0  0  0  0  0  0  0  0  0  0  0  0
   -4.3666    6.6961    4.2114 C   0  0  0  0  0  0  0  0  0  0  0  0
   -3.3940    7.4397    5.1311 C   0  0  0  0  0  0  0  0  0  0  0  0
   -3.0864    5.2325    2.5948 C   0  0  0  0  0  0  0  0  0  0  0  0
   -2.6957    6.3494    1.2990 S   0  0  0  0  0  0  0  0  0  0  0  0
   -1.8745    5.0652    0.4875 C   0  0  0  0  0  0  0  0  0  0  0  0
   -1.1838    4.8435   -0.7118 C   0  0  0  0  0  0  0  0  0  0  0  0
   -0.9718    5.7330   -1.7971 C   0  0  0  0  0  0  0  0  0  0  0  0
   -0.3252    5.2296   -2.9516 C   0  0  0  0  0  0  0  0  0  0  0  0
   -0.1441    5.9964   -4.0326 N   0  0  0  0  0  0  0  0  0  0  0  0
   -0.5844    7.2339   -3.9598 C   0  0  0  0  0  0  0  0  0  0  0  0
   -1.2068    7.7371   -2.8114 C   0  0  0  0  0  0  0  0  0  0  0  0
   -1.4030    6.9979   -1.7409 N   0  0  0  0  0  0  0  0  0  0  0  0
    0.1656    3.8989   -2.9104 C   0  0  0  0  0  0  0  0  0  0  0  0
    0.9393    3.2127   -3.8564 C   0  0  0  0  0  0  0  0  0  0  0  0
    1.6185    3.4756   -5.4230 S   0  0  0  0  0  0  0  0  0  0  0  0
    2.3740    1.8954   -5.3228 C   0  0  0  0  0  0  0  0  0  0  0  0
    3.1840    1.1899   -6.2031 C   0  0  0  0  0  0  0  0  0  0  0  0
    3.6455    1.7596   -7.5045 C   0  0  0  0  0  0  0  0  0  0  0  0
    5.0204    2.4162   -7.3524 C   0  0  0  0  0  0  0  0  0  0  0  0
    3.5381   -0.0654   -5.6800 C   0  0  0  0  0  0  0  0  0  0  0  0
    2.8386   -0.3428   -4.0840 S   0  0  0  0  0  0  0  0  0  0  0  0
    2.0997    1.2137   -4.1246 C   0  0  0  0  0  0  0  0  0  0  0  0
    1.2746    1.9763   -3.2931 C   0  0  0  0  0  0  0  0  0  0  0  0
    0.7287    1.8724   -2.0416 N   0  0  0  0  0  0  0  0  0  0  0  0
    0.0202    3.0288   -1.7889 C   0  0  0  0  0  0  0  0  0  0  0  0
   -0.7684    3.4794   -0.7017 C   0  0  0  0  0  0  0  0  0  0  0  0
   -1.2225    2.8891    0.4649 N   0  0  0  0  0  0  0  0  0  0  0  0
   -1.8962    3.8489    1.1785 C   0  0  0  0  0  0  0  0  0  0  0  0
   -2.5917    3.9313    2.3870 C   0  0  0  0  0  0  0  0  0  0  0  0
   -2.9905    2.8722    3.6862 S   0  0  0  0  0  0  0  0  0  0  0  0
   -1.5088    1.5044    0.7731 C   0  0  0  0  0  0  0  0  0  0  0  0
   -2.8142    1.0603    0.1155 C   0  0  0  0  0  0  0  0  0  0  0  0
    1.1606    0.8061   -1.1674 C   0  0  0  0  0  0  0  0  0  0  0  0
    0.4003   -0.4936   -1.4270 C   0  0  0  0  0  0  0  0  0  0  0  0
    4.3594   -0.9703   -6.3625 C   0  0  0  0  0  0  0  0  0  0  0  0
    4.7710   -2.2371   -6.0325 C   0  0  0  0  0  0  0  0  0  0  0  0
    4.3705   -2.9991   -4.8469 C   0  0  0  0  0  0  0  0  0  0  0  0
    3.6798   -2.6177   -3.9156 O   0  0  0  0  0  0  0  0  0  0  0  0
    4.9553   -4.3414   -4.9985 C   0  0  0  0  0  0  0  0  0  0  0  0
    4.8075   -5.4231   -4.1341 C   0  0  0  0  0  0  0  0  0  0  0  0
    5.4565   -6.5616   -4.5477 C   0  0  0  0  0  0  0  0  0  0  0  0
    6.2042   -6.6171   -5.7312 C   0  0  0  0  0  0  0  0  0  0  0  0
    6.3620   -5.5552   -6.5900 C   0  0  0  0  0  0  0  0  0  0  0  0
    5.7037   -4.3886   -6.1921 C   0  0  0  0  0  0  0  0  0  0  0  0
    5.6287   -3.0804   -6.8414 C   0  0  0  0  0  0  0  0  0  0  0  0
    6.2852   -2.7316   -7.9947 C   0  0  0  0  0  0  0  0  0  0  0  0
    7.1133   -3.5986   -8.7379 C   0  0  0  0  0  0  0  0  0  0  0  0
    7.7993   -4.2412   -9.3976 N   0  0  0  0  0  0  0  0  0  0  0  0
    6.2558   -1.4630   -8.6099 C   0  0  0  0  0  0  0  0  0  0  0  0
    6.2969   -0.4604   -9.1704 N   0  0  0  0  0  0  0  0  0  0  0  0
    6.5630   -8.0680   -5.5309 C   0  0  0  0  0  0  0  0  0  0  0  0
    5.8008   -9.1199   -6.3742 C   0  0  0  0  0  0  0  0  0  0  0  0
    4.4615   -8.5119   -6.7091 C   0  0  0  0  0  0  0  0  0  0  0  0
    3.7499   -8.4592   -5.5910 C   0  0  0  0  0  0  0  0  0  0  0  0
    4.5953   -9.0310   -4.4798 C   0  0  0  0  0  0  0  0  0  0  0  0
    5.3849  -10.0940   -5.2603 C   0  0  0  0  0  0  0  0  0  0  0  0
    5.7271   -8.0071   -4.2137 C   0  0  0  0  0  0  0  0  0  0  0  0
   -4.9267    5.0039    6.0747 H   0  0  0  0  0  0  0  0  0  0  0  0
   -3.4880   -0.9861    7.2621 H   0  0  0  0  0  0  0  0  0  0  0  0
   -3.6311   -2.8559    8.8785 H   0  0  0  0  0  0  0  0  0  0  0  0
   -4.4055   -3.7534   11.0598 H   0  0  0  0  0  0  0  0  0  0  0  0
   -6.2161   -0.0055   11.9992 H   0  0  0  0  0  0  0  0  0  0  0  0
   -6.0881    1.8547   10.4286 H   0  0  0  0  0  0  0  0  0  0  0  0
   -4.5449    7.3005    3.3198 H   0  0  0  0  0  0  0  0  0  0  0  0
   -5.3180    6.5579    4.7269 H   0  0  0  0  0  0  0  0  0  0  0  0
   -2.4528    7.6219    4.6177 H   0  0  0  0  0  0  0  0  0  0  0  0
   -3.8230    8.3932    5.4252 H   0  0  0  0  0  0  0  0  0  0  0  0
   -3.1941    6.8606    6.0296 H   0  0  0  0  0  0  0  0  0  0  0  0
   -0.4366    7.8469   -4.8382 H   0  0  0  0  0  0  0  0  0  0  0  0
   -1.5561    8.7589   -2.7581 H   0  0  0  0  0  0  0  0  0  0  0  0
    3.6953    0.9904   -8.2763 H   0  0  0  0  0  0  0  0  0  0  0  0
    2.9229    2.5150   -7.8198 H   0  0  0  0  0  0  0  0  0  0  0  0
    4.9821    3.2039   -6.6036 H   0  0  0  0  0  0  0  0  0  0  0  0
    5.3285    2.8480   -8.3001 H   0  0  0  0  0  0  0  0  0  0  0  0
    5.7659    1.6839   -7.0520 H   0  0  0  0  0  0  0  0  0  0  0  0
   -1.6044    1.4345    1.8601 H   0  0  0  0  0  0  0  0  0  0  0  0
   -0.6981    0.8571    0.4600 H   0  0  0  0  0  0  0  0  0  0  0  0
   -3.6423    1.6692    0.4698 H   0  0  0  0  0  0  0  0  0  0  0  0
   -2.7512    1.1594   -0.9666 H   0  0  0  0  0  0  0  0  0  0  0  0
   -3.0176    0.0227    0.3648 H   0  0  0  0  0  0  0  0  0  0  0  0
    1.0780    1.1404   -0.1320 H   0  0  0  0  0  0  0  0  0  0  0  0
    2.2224    0.6295   -1.3703 H   0  0  0  0  0  0  0  0  0  0  0  0
    0.6754   -1.2361   -0.6832 H   0  0  0  0  0  0  0  0  0  0  0  0
    0.6627   -0.8827   -2.4070 H   0  0  0  0  0  0  0  0  0  0  0  0
   -0.6754   -0.3405   -1.3958 H   0  0  0  0  0  0  0  0  0  0  0  0
    4.7082   -0.5934   -7.3143 H   0  0  0  0  0  0  0  0  0  0  0  0
    4.2238   -5.3352   -3.2310 H   0  0  0  0  0  0  0  0  0  0  0  0
    6.9390   -5.6179   -7.4972 H   0  0  0  0  0  0  0  0  0  0  0  0
    7.6252   -8.2902   -5.4511 H   0  0  0  0  0  0  0  0  0  0  0  0
    6.3664   -9.5247   -7.2090 H   0  0  0  0  0  0  0  0  0  0  0  0
    4.1988   -8.1414   -7.6827 H   0  0  0  0  0  0  0  0  0  0  0  0
    2.7738   -8.0353   -5.4438 H   0  0  0  0  0  0  0  0  0  0  0  0
    4.0623   -9.3563   -3.5901 H   0  0  0  0  0  0  0  0  0  0  0  0
    6.2276  -10.5034   -4.7049 H   0  0  0  0  0  0  0  0  0  0  0  0
    4.7547  -10.9044   -5.6233 H   0  0  0  0  0  0  0  0  0  0  0  0
    6.2422   -8.1935   -3.2733 H   0  0  0  0  0  0  0  0  0  0  0  0
  1  2  2  0  0  0  0
  2  3  1  0  0  0  0
  3  4  2  0  0  0  0
  3  5  1  0  0  0  0
  5  6  2  0  0  0  0
  6  7  1  0  0  0  0
  7  8  2  0  0  0  0
  8  9  1  0  0  0  0
  9 10  2  0  0  0  0
 10 11  1  0  0  0  0
 10 12  1  0  0  0  0
 12 13  2  0  0  0  0
 13 14  1  0  0  0  0
 14 15  2  0  0  0  0
 15 16  1  0  0  0  0
 16 17  2  0  0  0  0
 17 18  1  0  0  0  0
 18 19  3  0  0  0  0
 17 20  1  0  0  0  0
 20 21  3  0  0  0  0
  1 22  1  0  0  0  0
 22 23  2  0  0  0  0
 23 24  1  0  0  0  0
 24 25  1  0  0  0  0
 23 26  1  0  0  0  0
 26 27  1  0  0  0  0
 27 28  1  0  0  0  0
 28 29  1  0  0  0  0
 29 30  2  0  0  0  0
 30 31  1  0  0  0  0
 31 32  1  0  0  0  0
 32 33  2  0  0  0  0
 33 34  1  0  0  0  0
 34 35  2  0  0  0  0
 31 36  2  0  0  0  0
 36 37  1  0  0  0  0
 37 38  1  0  0  0  0
 38 39  1  0  0  0  0
 39 40  1  0  0  0  0
 40 41  1  0  0  0  0
 41 42  1  0  0  0  0
 40 43  2  0  0  0  0
 43 44  1  0  0  0  0
 44 45  1  0  0  0  0
 45 46  1  0  0  0  0
 46 47  1  0  0  0  0
 47 48  1  0  0  0  0
 48 49  2  0  0  0  0
 49 50  1  0  0  0  0
 50 51  1  0  0  0  0
 51 52  1  0  0  0  0
 52 53  1  0  0  0  0
 50 54  1  0  0  0  0
 54 55  1  0  0  0  0
 47 56  1  0  0  0  0
 56 57  1  0  0  0  0
 43 58  1  0  0  0  0
 58 59  2  0  0  0  0
 59 60  1  0  0  0  0
 60 61  2  0  0  0  0
 60 62  1  0  0  0  0
 62 63  2  0  0  0  0
 63 64  1  0  0  0  0
 64 65  2  0  0  0  0
 65 66  1  0  0  0  0
 66 67  2  0  0  0  0
 67 68  1  0  0  0  0
 68 69  2  0  0  0  0
 69 70  1  0  0  0  0
 70 71  3  0  0  0  0
 69 72  1  0  0  0  0
 72 73  3  0  0  0  0
 65 74  1  0  0  0  0
 74 75  1  0  0  0  0
 75 76  1  0  0  0  0
 76 77  2  0  0  0  0
 77 78  1  0  0  0  0
 78 79  1  0  0  0  0
 78 80  1  0  0  0  0
 16  2  1  0  0  0  0
 53 22  1  0  0  0  0
 68 59  1  0  0  0  0
 80 74  1  0  0  0  0
 15  5  1  0  0  0  0
 52 26  2  0  0  0  0
 67 62  1  0  0  0  0
 79 75  1  0  0  0  0
 13  7  1  0  0  0  0
 51 28  2  0  0  0  0
 80 64  1  0  0  0  0
 49 29  1  0  0  0  0
 35 30  1  0  0  0  0
 48 36  1  0  0  0  0
 46 37  2  0  0  0  0
 45 39  2  0  0  0  0
  1 81  1  0  0  0  0
  6 82  1  0  0  0  0
  8 83  1  0  0  0  0
  9 84  1  0  0  0  0
 12 85  1  0  0  0  0
 14 86  1  0  0  0  0
 24 87  1  0  0  0  0
 24 88  1  0  0  0  0
 25 89  1  0  0  0  0
 25 90  1  0  0  0  0
 25 91  1  0  0  0  0
 33 92  1  0  0  0  0
 34 93  1  0  0  0  0
 41 94  1  0  0  0  0
 41 95  1  0  0  0  0
 42 96  1  0  0  0  0
 42 97  1  0  0  0  0
 42 98  1  0  0  0  0
 54 99  1  0  0  0  0
 54100  1  0  0  0  0
 55101  1  0  0  0  0
 55102  1  0  0  0  0
 55103  1  0  0  0  0
 56104  1  0  0  0  0
 56105  1  0  0  0  0
 57106  1  0  0  0  0
 57107  1  0  0  0  0
 57108  1  0  0  0  0
 58109  1  0  0  0  0
 63110  1  0  0  0  0
 66111  1  0  0  0  0
 74112  1  0  0  0  0
 75113  1  0  0  0  0
 76114  1  0  0  0  0
 77115  1  0  0  0  0
 78116  1  0  0  0  0
 79117  1  0  0  0  0
 79118  1  0  0  0  0
 80119  1  0  0  0  0
M  END
