
  xtb     01212212493D
 energy: -285.258766729056 gnorm: 0.000334531369 xtb: 6.4.1 (unknown)
167183  0     0  0            999 V2000
    1.2387   -2.8883    9.1275 C   0  0  0  0  0  0  0  0  0  0  0  0
    1.2819   -2.1909   10.3004 C   0  0  0  0  0  0  0  0  0  0  0  0
    1.9367   -2.8190   11.4794 C   0  0  0  0  0  0  0  0  0  0  0  0
    2.2616   -3.9793   11.5944 O   0  0  0  0  0  0  0  0  0  0  0  0
    2.1504   -1.7177   12.4378 C   0  0  0  0  0  0  0  0  0  0  0  0
    2.8199   -1.7312   13.6266 C   0  0  0  0  0  0  0  0  0  0  0  0
    2.9287   -0.5344   14.3699 C   0  0  0  0  0  0  0  0  0  0  0  0
    3.6106   -0.4930   15.6031 C   0  0  0  0  0  0  0  0  0  0  0  0
    3.7173    0.6721   16.3105 C   0  0  0  0  0  0  0  0  0  0  0  0
    3.1346    1.8359   15.7910 C   0  0  0  0  0  0  0  0  0  0  0  0
    3.2508    2.9735   16.5004 F   0  0  0  0  0  0  0  0  0  0  0  0
    2.4616    1.8509   14.6011 C   0  0  0  0  0  0  0  0  0  0  0  0
    2.3410    0.6597   13.8597 C   0  0  0  0  0  0  0  0  0  0  0  0
    1.6451    0.6416   12.6280 C   0  0  0  0  0  0  0  0  0  0  0  0
    1.5465   -0.5314   11.9307 C   0  0  0  0  0  0  0  0  0  0  0  0
    0.8796   -0.8547   10.6704 C   0  0  0  0  0  0  0  0  0  0  0  0
   -0.1290   -0.1149   10.1054 C   0  0  0  0  0  0  0  0  0  0  0  0
   -0.5328    1.1505   10.5756 C   0  0  0  0  0  0  0  0  0  0  0  0
   -0.8871    2.1922   10.9038 N   0  0  0  0  0  0  0  0  0  0  0  0
   -0.9346   -0.5672    9.0426 C   0  0  0  0  0  0  0  0  0  0  0  0
   -1.6386   -0.9026    8.1997 N   0  0  0  0  0  0  0  0  0  0  0  0
    1.0530   -2.4209    7.8123 C   0  0  0  0  0  0  0  0  0  0  0  0
    1.2068   -1.1429    7.2966 C   0  0  0  0  0  0  0  0  0  0  0  0
    0.9821   -1.1011    5.9284 C   0  0  0  0  0  0  0  0  0  0  0  0
    0.9908    0.1793    4.7504 S   0  0  0  0  0  0  0  0  0  0  0  0
    0.5174   -0.9610    3.5442 C   0  0  0  0  0  0  0  0  0  0  0  0
    0.2478   -0.8982    2.1424 C   0  0  0  0  0  0  0  0  0  0  0  0
    0.2569    0.1608    1.2579 C   0  0  0  0  0  0  0  0  0  0  0  0
    0.5572    1.4213    1.7087 O   0  0  0  0  0  0  0  0  0  0  0  0
   -0.5296    2.3402    1.7385 C   0  0  0  0  0  0  0  0  0  0  0  0
   -1.5593    1.9933    2.8074 C   0  0  0  0  0  0  0  0  0  0  0  0
    0.0017   -0.1006   -0.1124 C   0  0  0  0  0  0  0  0  0  0  0  0
   -0.3752   -1.4088   -0.5223 C   0  0  0  0  0  0  0  0  0  0  0  0
   -0.4148   -2.4620    0.4235 C   0  0  0  0  0  0  0  0  0  0  0  0
   -0.0725   -2.2185    1.7162 C   0  0  0  0  0  0  0  0  0  0  0  0
   -0.0030   -3.1902    2.8834 C   0  0  0  0  0  0  0  0  0  0  0  0
    1.1117   -4.2152    2.7602 C   0  0  0  0  0  0  0  0  0  0  0  0
    2.1343   -4.0822    1.8326 C   0  0  0  0  0  0  0  0  0  0  0  0
    3.1608   -5.0087    1.7877 C   0  0  0  0  0  0  0  0  0  0  0  0
    3.2007   -6.0769    2.6731 C   0  0  0  0  0  0  0  0  0  0  0  0
    4.2929   -7.1037    2.5908 C   0  0  0  0  0  0  0  0  0  0  0  0
    3.8983   -8.2254    1.6278 C   0  0  0  0  0  0  0  0  0  0  0  0
    2.1798   -6.1975    3.6077 C   0  0  0  0  0  0  0  0  0  0  0  0
    1.1493   -5.2792    3.6537 C   0  0  0  0  0  0  0  0  0  0  0  0
   -1.3541   -3.8560    3.0646 C   0  0  0  0  0  0  0  0  0  0  0  0
   -1.6713   -4.9848    2.3192 C   0  0  0  0  0  0  0  0  0  0  0  0
   -2.9068   -5.5879    2.4529 C   0  0  0  0  0  0  0  0  0  0  0  0
   -3.8563   -5.0828    3.3321 C   0  0  0  0  0  0  0  0  0  0  0  0
   -5.2104   -5.7208    3.4481 C   0  0  0  0  0  0  0  0  0  0  0  0
   -6.1738   -5.1199    2.4225 C   0  0  0  0  0  0  0  0  0  0  0  0
   -3.5379   -3.9484    4.0656 C   0  0  0  0  0  0  0  0  0  0  0  0
   -2.3040   -3.3379    3.9329 C   0  0  0  0  0  0  0  0  0  0  0  0
    0.3673   -2.2575    4.0057 C   0  0  0  0  0  0  0  0  0  0  0  0
    0.6396   -2.3488    5.3679 C   0  0  0  0  0  0  0  0  0  0  0  0
    0.6452   -3.5870    6.5575 S   0  0  0  0  0  0  0  0  0  0  0  0
   -0.6774   -1.6793   -1.8919 C   0  0  0  0  0  0  0  0  0  0  0  0
   -1.0186   -2.9700   -2.1414 O   0  0  0  0  0  0  0  0  0  0  0  0
   -0.5388   -3.6411   -3.2938 C   0  0  0  0  0  0  0  0  0  0  0  0
    0.9564   -3.4614   -3.5182 C   0  0  0  0  0  0  0  0  0  0  0  0
   -0.6234   -0.6359   -2.8079 C   0  0  0  0  0  0  0  0  0  0  0  0
   -0.9487   -0.4906   -4.2024 C   0  0  0  0  0  0  0  0  0  0  0  0
   -0.6365    0.7886   -4.6434 C   0  0  0  0  0  0  0  0  0  0  0  0
   -0.0656    1.6237   -3.5374 C   0  0  0  0  0  0  0  0  0  0  0  0
   -0.1542    0.6483   -2.3797 C   0  0  0  0  0  0  0  0  0  0  0  0
    0.1592    0.9108   -1.0868 C   0  0  0  0  0  0  0  0  0  0  0  0
    1.3970    1.9802   -3.7385 C   0  0  0  0  0  0  0  0  0  0  0  0
    2.2042    1.2451   -4.5945 C   0  0  0  0  0  0  0  0  0  0  0  0
    3.5445    1.5554   -4.7357 C   0  0  0  0  0  0  0  0  0  0  0  0
    4.1136    2.6011   -4.0226 C   0  0  0  0  0  0  0  0  0  0  0  0
    5.5776    2.9104   -4.1434 C   0  0  0  0  0  0  0  0  0  0  0  0
    6.3746    2.1418   -3.0874 C   0  0  0  0  0  0  0  0  0  0  0  0
    3.3040    3.3257   -3.1570 C   0  0  0  0  0  0  0  0  0  0  0  0
    1.9644    3.0209   -3.0140 C   0  0  0  0  0  0  0  0  0  0  0  0
   -0.9381    2.8566   -3.3878 C   0  0  0  0  0  0  0  0  0  0  0  0
   -0.7286    3.9427   -4.2298 C   0  0  0  0  0  0  0  0  0  0  0  0
   -1.5454    5.0538   -4.1576 C   0  0  0  0  0  0  0  0  0  0  0  0
   -2.5931    5.1106   -3.2465 C   0  0  0  0  0  0  0  0  0  0  0  0
   -3.4429    6.3430   -3.1359 C   0  0  0  0  0  0  0  0  0  0  0  0
   -2.7789    7.3674   -2.2133 C   0  0  0  0  0  0  0  0  0  0  0  0
   -2.8046    4.0187   -2.4163 C   0  0  0  0  0  0  0  0  0  0  0  0
   -1.9951    2.8990   -2.4907 C   0  0  0  0  0  0  0  0  0  0  0  0
   -0.9903    1.0009   -5.9695 C   0  0  0  0  0  0  0  0  0  0  0  0
   -1.5962   -0.1318   -6.5539 C   0  0  0  0  0  0  0  0  0  0  0  0
   -1.7221   -1.4518   -5.4274 S   0  0  0  0  0  0  0  0  0  0  0  0
   -1.9586    0.0282   -7.8788 C   0  0  0  0  0  0  0  0  0  0  0  0
   -1.6412    1.2968   -8.3518 C   0  0  0  0  0  0  0  0  0  0  0  0
   -0.8765    2.2898   -7.0950 S   0  0  0  0  0  0  0  0  0  0  0  0
   -1.8197    1.9288   -9.5899 C   0  0  0  0  0  0  0  0  0  0  0  0
   -2.3339    1.4879  -10.7861 C   0  0  0  0  0  0  0  0  0  0  0  0
   -2.8067    0.1357  -11.1404 C   0  0  0  0  0  0  0  0  0  0  0  0
   -2.8885   -0.8576  -10.4478 O   0  0  0  0  0  0  0  0  0  0  0  0
   -3.1728    0.2035  -12.5739 C   0  0  0  0  0  0  0  0  0  0  0  0
   -3.6541   -0.8102  -13.3768 C   0  0  0  0  0  0  0  0  0  0  0  0
   -3.9258   -0.5028  -14.7051 C   0  0  0  0  0  0  0  0  0  0  0  0
   -4.4273   -1.5659  -15.6431 C   0  0  0  0  0  0  0  0  0  0  0  0
   -5.3931   -1.1143  -16.4595 F   0  0  0  0  0  0  0  0  0  0  0  0
   -3.4471   -2.0268  -16.4453 F   0  0  0  0  0  0  0  0  0  0  0  0
   -4.9287   -2.6328  -15.0094 F   0  0  0  0  0  0  0  0  0  0  0  0
   -3.7109    0.7782  -15.2041 C   0  0  0  0  0  0  0  0  0  0  0  0
   -3.2275    1.7907  -14.3885 C   0  0  0  0  0  0  0  0  0  0  0  0
   -2.9566    1.5018  -13.0590 C   0  0  0  0  0  0  0  0  0  0  0  0
   -2.4536    2.3317  -11.9615 C   0  0  0  0  0  0  0  0  0  0  0  0
   -2.1868    3.6727  -12.0664 C   0  0  0  0  0  0  0  0  0  0  0  0
   -1.7442    4.5303  -11.0358 C   0  0  0  0  0  0  0  0  0  0  0  0
   -1.3957    5.3143  -10.2717 N   0  0  0  0  0  0  0  0  0  0  0  0
   -2.3359    4.4200  -13.2549 C   0  0  0  0  0  0  0  0  0  0  0  0
   -2.4294    5.0947  -14.1789 N   0  0  0  0  0  0  0  0  0  0  0  0
    1.4487   -3.9494    9.2261 H   0  0  0  0  0  0  0  0  0  0  0  0
    3.2632   -2.6439   13.9958 H   0  0  0  0  0  0  0  0  0  0  0  0
    4.0512   -1.4028   15.9822 H   0  0  0  0  0  0  0  0  0  0  0  0
    4.2362    0.7208   17.2547 H   0  0  0  0  0  0  0  0  0  0  0  0
    2.0221    2.7653   14.2340 H   0  0  0  0  0  0  0  0  0  0  0  0
    1.2163    1.5614   12.2626 H   0  0  0  0  0  0  0  0  0  0  0  0
    1.5132   -0.2965    7.8839 H   0  0  0  0  0  0  0  0  0  0  0  0
   -0.0636    3.3043    1.9544 H   0  0  0  0  0  0  0  0  0  0  0  0
   -1.0206    2.3907    0.7583 H   0  0  0  0  0  0  0  0  0  0  0  0
   -2.3444    2.7443    2.8119 H   0  0  0  0  0  0  0  0  0  0  0  0
   -2.0054    1.0213    2.6037 H   0  0  0  0  0  0  0  0  0  0  0  0
   -1.0922    1.9653    3.7883 H   0  0  0  0  0  0  0  0  0  0  0  0
   -0.7027   -3.4463    0.0930 H   0  0  0  0  0  0  0  0  0  0  0  0
    2.1318   -3.2530    1.1402 H   0  0  0  0  0  0  0  0  0  0  0  0
    3.9479   -4.8936    1.0558 H   0  0  0  0  0  0  0  0  0  0  0  0
    5.2156   -6.6367    2.2405 H   0  0  0  0  0  0  0  0  0  0  0  0
    4.4777   -7.5275    3.5797 H   0  0  0  0  0  0  0  0  0  0  0  0
    4.6867   -8.9721    1.5692 H   0  0  0  0  0  0  0  0  0  0  0  0
    3.7242   -7.8248    0.6315 H   0  0  0  0  0  0  0  0  0  0  0  0
    2.9850   -8.7097    1.9661 H   0  0  0  0  0  0  0  0  0  0  0  0
    2.1935   -7.0176    4.3109 H   0  0  0  0  0  0  0  0  0  0  0  0
    0.3620   -5.3902    4.3853 H   0  0  0  0  0  0  0  0  0  0  0  0
   -0.9398   -5.4028    1.6429 H   0  0  0  0  0  0  0  0  0  0  0  0
   -3.1353   -6.4691    1.8703 H   0  0  0  0  0  0  0  0  0  0  0  0
   -5.1287   -6.7962    3.2773 H   0  0  0  0  0  0  0  0  0  0  0  0
   -5.6093   -5.5631    4.4519 H   0  0  0  0  0  0  0  0  0  0  0  0
   -7.1536   -5.5849    2.5024 H   0  0  0  0  0  0  0  0  0  0  0  0
   -6.2819   -4.0502    2.5871 H   0  0  0  0  0  0  0  0  0  0  0  0
   -5.7969   -5.2735    1.4137 H   0  0  0  0  0  0  0  0  0  0  0  0
   -4.2608   -3.5372    4.7553 H   0  0  0  0  0  0  0  0  0  0  0  0
   -2.0842   -2.4569    4.5180 H   0  0  0  0  0  0  0  0  0  0  0  0
   -1.0980   -3.3403   -4.1858 H   0  0  0  0  0  0  0  0  0  0  0  0
   -0.7673   -4.6911   -3.0901 H   0  0  0  0  0  0  0  0  0  0  0  0
    1.2741   -4.0909   -4.3442 H   0  0  0  0  0  0  0  0  0  0  0  0
    1.5067   -3.7454   -2.6237 H   0  0  0  0  0  0  0  0  0  0  0  0
    1.1947   -2.4269   -3.7563 H   0  0  0  0  0  0  0  0  0  0  0  0
    0.5443    1.8746   -0.7951 H   0  0  0  0  0  0  0  0  0  0  0  0
    1.7872    0.4257   -5.1628 H   0  0  0  0  0  0  0  0  0  0  0  0
    4.1554    0.9764   -5.4137 H   0  0  0  0  0  0  0  0  0  0  0  0
    5.7415    3.9812   -4.0080 H   0  0  0  0  0  0  0  0  0  0  0  0
    5.9346    2.6327   -5.1370 H   0  0  0  0  0  0  0  0  0  0  0  0
    6.0399    2.4131   -2.0886 H   0  0  0  0  0  0  0  0  0  0  0  0
    7.4349    2.3675   -3.1723 H   0  0  0  0  0  0  0  0  0  0  0  0
    6.2357    1.0703   -3.2142 H   0  0  0  0  0  0  0  0  0  0  0  0
    3.7271    4.1428   -2.5904 H   0  0  0  0  0  0  0  0  0  0  0  0
    1.3504    3.6074   -2.3463 H   0  0  0  0  0  0  0  0  0  0  0  0
    0.0836    3.9191   -4.9418 H   0  0  0  0  0  0  0  0  0  0  0  0
   -1.3695    5.8868   -4.8224 H   0  0  0  0  0  0  0  0  0  0  0  0
   -3.5802    6.7862   -4.1241 H   0  0  0  0  0  0  0  0  0  0  0  0
   -4.4254    6.0824   -2.7375 H   0  0  0  0  0  0  0  0  0  0  0  0
   -3.3940    8.2603   -2.1316 H   0  0  0  0  0  0  0  0  0  0  0  0
   -1.8041    7.6517   -2.6029 H   0  0  0  0  0  0  0  0  0  0  0  0
   -2.6412    6.9482   -1.2188 H   0  0  0  0  0  0  0  0  0  0  0  0
   -3.6188    4.0380   -1.7057 H   0  0  0  0  0  0  0  0  0  0  0  0
   -2.1915    2.0544   -1.8460 H   0  0  0  0  0  0  0  0  0  0  0  0
   -2.4276   -0.7217   -8.4884 H   0  0  0  0  0  0  0  0  0  0  0  0
   -1.4759    2.9563   -9.5817 H   0  0  0  0  0  0  0  0  0  0  0  0
   -3.8141   -1.7998  -12.9772 H   0  0  0  0  0  0  0  0  0  0  0  0
   -3.9289    0.9855  -16.2407 H   0  0  0  0  0  0  0  0  0  0  0  0
   -3.0708    2.7730  -14.8012 H   0  0  0  0  0  0  0  0  0  0  0  0
  1  2  2  0  0  0  0
  2  3  1  0  0  0  0
  3  4  2  0  0  0  0
  3  5  1  0  0  0  0
  5  6  2  0  0  0  0
  6  7  1  0  0  0  0
  7  8  2  0  0  0  0
  8  9  1  0  0  0  0
  9 10  2  0  0  0  0
 10 11  1  0  0  0  0
 10 12  1  0  0  0  0
 12 13  2  0  0  0  0
 13 14  1  0  0  0  0
 14 15  2  0  0  0  0
 15 16  1  0  0  0  0
 16 17  2  0  0  0  0
 17 18  1  0  0  0  0
 18 19  3  0  0  0  0
 17 20  1  0  0  0  0
 20 21  3  0  0  0  0
  1 22  1  0  0  0  0
 22 23  2  0  0  0  0
 23 24  1  0  0  0  0
 24 25  1  0  0  0  0
 25 26  1  0  0  0  0
 26 27  1  0  0  0  0
 27 28  2  0  0  0  0
 28 29  1  0  0  0  0
 29 30  1  0  0  0  0
 30 31  1  0  0  0  0
 28 32  1  0  0  0  0
 32 33  2  0  0  0  0
 33 34  1  0  0  0  0
 34 35  2  0  0  0  0
 35 36  1  0  0  0  0
 36 37  1  0  0  0  0
 37 38  2  0  0  0  0
 38 39  1  0  0  0  0
 39 40  2  0  0  0  0
 40 41  1  0  0  0  0
 41 42  1  0  0  0  0
 40 43  1  0  0  0  0
 43 44  2  0  0  0  0
 36 45  1  0  0  0  0
 45 46  2  0  0  0  0
 46 47  1  0  0  0  0
 47 48  2  0  0  0  0
 48 49  1  0  0  0  0
 49 50  1  0  0  0  0
 48 51  1  0  0  0  0
 51 52  2  0  0  0  0
 36 53  1  0  0  0  0
 53 54  1  0  0  0  0
 54 55  1  0  0  0  0
 33 56  1  0  0  0  0
 56 57  1  0  0  0  0
 57 58  1  0  0  0  0
 58 59  1  0  0  0  0
 56 60  2  0  0  0  0
 60 61  1  0  0  0  0
 61 62  2  0  0  0  0
 62 63  1  0  0  0  0
 63 64  1  0  0  0  0
 64 65  2  0  0  0  0
 63 66  1  0  0  0  0
 66 67  2  0  0  0  0
 67 68  1  0  0  0  0
 68 69  2  0  0  0  0
 69 70  1  0  0  0  0
 70 71  1  0  0  0  0
 69 72  1  0  0  0  0
 72 73  2  0  0  0  0
 63 74  1  0  0  0  0
 74 75  2  0  0  0  0
 75 76  1  0  0  0  0
 76 77  2  0  0  0  0
 77 78  1  0  0  0  0
 78 79  1  0  0  0  0
 77 80  1  0  0  0  0
 80 81  2  0  0  0  0
 62 82  1  0  0  0  0
 82 83  2  0  0  0  0
 83 84  1  0  0  0  0
 83 85  1  0  0  0  0
 85 86  2  0  0  0  0
 86 87  1  0  0  0  0
 86 88  1  0  0  0  0
 88 89  2  0  0  0  0
 89 90  1  0  0  0  0
 90 91  2  0  0  0  0
 90 92  1  0  0  0  0
 92 93  2  0  0  0  0
 93 94  1  0  0  0  0
 94 95  1  0  0  0  0
 95 96  1  0  0  0  0
 95 97  1  0  0  0  0
 95 98  1  0  0  0  0
 94 99  2  0  0  0  0
 99100  1  0  0  0  0
100101  2  0  0  0  0
101102  1  0  0  0  0
102103  2  0  0  0  0
103104  1  0  0  0  0
104105  3  0  0  0  0
103106  1  0  0  0  0
106107  3  0  0  0  0
 16  2  1  0  0  0  0
 55 22  1  0  0  0  0
 64 60  1  0  0  0  0
 73 66  1  0  0  0  0
 81 74  1  0  0  0  0
 87 82  1  0  0  0  0
102 89  1  0  0  0  0
 15  5  1  0  0  0  0
 54 24  2  0  0  0  0
 84 61  1  0  0  0  0
101 92  1  0  0  0  0
 13  7  1  0  0  0  0
 53 26  2  0  0  0  0
 35 27  1  0  0  0  0
 44 37  1  0  0  0  0
 52 45  1  0  0  0  0
 65 32  1  0  0  0  0
  1108  1  0  0  0  0
  6109  1  0  0  0  0
  8110  1  0  0  0  0
  9111  1  0  0  0  0
 12112  1  0  0  0  0
 14113  1  0  0  0  0
 23114  1  0  0  0  0
 30115  1  0  0  0  0
 30116  1  0  0  0  0
 31117  1  0  0  0  0
 31118  1  0  0  0  0
 31119  1  0  0  0  0
 34120  1  0  0  0  0
 38121  1  0  0  0  0
 39122  1  0  0  0  0
 41123  1  0  0  0  0
 41124  1  0  0  0  0
 42125  1  0  0  0  0
 42126  1  0  0  0  0
 42127  1  0  0  0  0
 43128  1  0  0  0  0
 44129  1  0  0  0  0
 46130  1  0  0  0  0
 47131  1  0  0  0  0
 49132  1  0  0  0  0
 49133  1  0  0  0  0
 50134  1  0  0  0  0
 50135  1  0  0  0  0
 50136  1  0  0  0  0
 51137  1  0  0  0  0
 52138  1  0  0  0  0
 58139  1  0  0  0  0
 58140  1  0  0  0  0
 59141  1  0  0  0  0
 59142  1  0  0  0  0
 59143  1  0  0  0  0
 65144  1  0  0  0  0
 67145  1  0  0  0  0
 68146  1  0  0  0  0
 70147  1  0  0  0  0
 70148  1  0  0  0  0
 71149  1  0  0  0  0
 71150  1  0  0  0  0
 71151  1  0  0  0  0
 72152  1  0  0  0  0
 73153  1  0  0  0  0
 75154  1  0  0  0  0
 76155  1  0  0  0  0
 78156  1  0  0  0  0
 78157  1  0  0  0  0
 79158  1  0  0  0  0
 79159  1  0  0  0  0
 79160  1  0  0  0  0
 80161  1  0  0  0  0
 81162  1  0  0  0  0
 85163  1  0  0  0  0
 88164  1  0  0  0  0
 93165  1  0  0  0  0
 99166  1  0  0  0  0
100167  1  0  0  0  0
M  END
