154
4TC-4F-C8C8.mol
F         -2.91080      -16.46620       -1.44990
C         -3.56940      -15.31130       -1.29260
C         -4.96320      -15.31310       -1.23170
F         -5.62240      -16.47300       -1.33450
C         -5.68840      -14.14240       -1.06790
C         -4.98710      -12.95050       -0.96620
C         -3.58570      -12.95970       -1.03250
C         -2.86200      -14.12460       -1.19310
C         -5.43680      -11.57030       -0.78280
C         -4.26160      -10.71620       -0.79690
C         -3.06880      -11.57790       -0.90980
O         -1.89450      -11.27100       -0.91620
C         -4.32680       -9.34400       -0.77090
C         -3.33250       -8.35570       -0.74290
C         -1.94540       -8.40750       -0.67090
C         -1.38210       -7.14440       -0.63030
S          0.26060       -6.57190       -0.52570
C         -2.31690       -6.08450       -0.67030
S         -3.92130       -6.68180       -0.76190
C         -1.70480       -4.83640       -0.62160
C         -2.12940       -3.39310       -0.59120
C         -2.75960       -2.92720       -1.89190
C         -2.54940       -3.61120       -3.08070
C         -3.09280       -3.14580       -4.26390
C         -3.84730       -1.98130       -4.29390
C         -4.04870       -1.29620       -3.10240
C         -3.51170       -1.75950       -1.91680
C         -4.47140       -1.50180       -5.57240
C         -5.86760       -2.10350       -5.74390
C         -3.06780       -3.20830        0.58690
C         -4.39740       -3.59270        0.45570
C         -5.26550       -3.49110        1.52470
C         -4.83070       -3.00390        2.75130
C         -5.76750       -2.93600        3.92250
C         -5.79490       -4.27600        4.66040
C         -3.49980       -2.63170        2.87900
C         -2.62390       -2.73620        1.81280
C         -0.32650       -4.94480       -0.53400
C          0.27590       -3.65130       -0.44160
C         -0.78230       -2.70290       -0.44580
C         -0.52340       -1.35990       -0.34700
C          0.81040       -0.96640       -0.23180
C          1.86300       -1.92330       -0.24310
N          3.06520       -1.27430       -0.11420
C          4.36140       -1.89940       -0.14730
C          4.89290       -2.01690       -1.57460
C          1.60760       -3.28210       -0.35060
C          1.42940        0.31180       -0.08830
C          2.83130        0.07560       -0.03490
C          3.73850        1.11600        0.09810
C          0.91150        1.60340        0.01440
C          1.80370        2.63520        0.15580
C          3.20250        2.38940        0.19580
C          4.80670        9.47290        1.18080
C          5.92020       10.25140        1.38520
C          5.86760       11.69730        1.51850
C          7.20950       12.16160        1.87140
C          7.70240       13.42680        2.15140
C          9.05070       13.54870        2.45270
F          9.54420       14.76130        2.72920
C          9.90090       12.44310        2.47600
F         11.19630       12.60820        2.77110
C          9.41550       11.17590        2.19800
C          8.07250       11.05600        1.90070
C          4.79060       12.52020        1.31300
C          3.49680       12.12960        0.90540
N          2.42030       11.91990        0.56340
C          4.83090       13.92390        1.45930
N          4.78660       15.06600        1.56300
C          7.31880        9.82280        1.58010
O          7.80010        8.71050        1.51520
C         -6.74160      -11.19880       -0.58470
C         -7.21580       -9.89430       -0.32730
N         -7.69900       -8.87790       -0.09680
C         -7.82700      -12.10160       -0.58140
N         -8.75480      -12.77700       -0.56980
C          0.67050        4.28390        1.58790
C         -0.71340        4.18860        1.51730
C         -1.48260        4.29130        2.66040
C         -0.89350        4.49150        3.90220
C          0.49020        4.57650        3.96830
C          1.26460        4.47000        2.82790
C         -1.72880        4.56010        5.14780
C         -1.92440        3.16140        5.73640
C          0.85720        4.77930       -0.86880
C          0.36440        6.07250       -0.73650
C         -0.18340        6.72870       -1.82090
C         -0.25260        6.11340       -3.06490
C         -0.89640        6.80980       -4.22870
C         -2.40280        6.54200       -4.24310
C          0.24500        4.82400       -3.19160
C          0.80190        4.16410       -2.11020
C          1.50680        4.11590        0.33190
C          2.89990        4.66880        0.46700
C          3.84110        3.65710        0.36800
C          3.49800        5.91210        0.64510
C          4.90870        5.82900        0.69100
S          5.48040        4.19450        0.49520
S          2.97030        7.53100        0.84630
C          4.64630        8.09180        0.99900
C          5.54820        7.04000        0.88750
H         -6.76340      -14.20130       -1.02900
H         -1.78480      -14.11520       -1.24010
H         -5.32600       -8.92480       -0.77730
H         -1.39620       -9.33050       -0.65030
H         -1.95800       -4.51530       -3.08870
H         -2.92320       -3.69550       -5.17880
H         -4.63250       -0.38670       -3.10310
H         -3.68860       -1.21710       -0.99940
H         -4.54770       -0.41280       -5.56140
H         -3.84800       -1.79250       -6.42040
H         -6.31940       -1.75830       -6.67080
H         -5.81130       -3.18940       -5.76780
H         -6.50910       -1.81310       -4.91490
H         -4.75500       -3.96610       -0.49310
H         -6.29540       -3.79380        1.40430
H         -5.44570       -2.15160        4.61050
H         -6.77500       -2.69660        3.57680
H         -4.80070       -4.52830        5.02310
H         -6.12690       -5.06820        3.99330
H         -6.47310       -4.22930        5.50900
H         -3.13960       -2.25450        3.82570
H         -1.59120       -2.44480        1.93850
H         -1.31590       -0.62830       -0.34850
H          5.04720       -1.30530        0.46200
H          4.27870       -2.89050        0.30600
H          4.97920       -1.03180       -2.02720
H          5.87210       -2.48750       -1.57170
H          4.21770       -2.61660       -2.18050
H          2.38790       -4.02680       -0.36210
H          4.80570        0.96290        0.13290
H         -0.15290        1.77530       -0.01390
H          3.86290       10.00510        1.16280
H          7.09100       14.31370        2.14900
H         10.06660       10.31650        2.21500
H         -1.19220        4.04700        0.55910
H         -2.55840        4.21950        2.58650
H          0.97040        4.73010        4.92420
H          2.34010        4.53440        2.90930
H         -2.70410        4.99280        4.91660
H         -1.23910        5.19640        5.88760
H         -2.52870        3.20960        6.63920
H         -0.96270        2.71770        5.98470
H         -2.42320        2.51490        5.01770
H          0.40440        6.56410        0.22490
H         -0.55830        7.73460       -1.70010
H         -0.45840        6.45370       -5.16330
H         -0.72360        7.88530       -4.15720
H         -2.85940        6.90190       -3.32380
H         -2.59650        5.47470       -4.32650
H         -2.87110        7.04710       -5.08450
H          0.20340        4.32780       -4.15100
H          1.19150        3.16440       -2.23650
H          6.61170        7.17490        0.95510
