132
4TIC.sdf
C          1.52760        0.21730        0.96720
C          0.65260       -0.34050        0.00640
S          0.04280       -1.89690        0.48010
C          0.93750       -1.77560        1.95800
C          1.70450       -0.61410        2.06540
C          1.05200       -2.52160        3.15010
C          1.90450       -1.82800        4.02860
C          2.44070       -0.56990        3.38200
C          2.08580        0.72170        4.09290
C          3.94580       -0.72570        3.24080
C          2.75950        1.88750        3.74860
C          2.42490        3.08960        4.33980
C          1.41090        3.16030        5.28720
C          0.73860        1.99320        5.62250
C          1.06400        0.78690        5.02790
C          4.75220       -0.49820        4.34920
C          6.12030       -0.66560        4.26550
C          6.71860       -1.06550        3.07660
C          5.90640       -1.30020        1.97640
C          4.53490       -1.13610        2.05470
C          1.08900        4.46090        5.96410
C          2.01800        4.68410        7.15930
C          8.20120       -1.28820        3.00090
C          8.54560       -2.72590        3.39580
S          0.39510       -3.95110        3.82090
C          1.26670       -3.64070        5.31830
C          2.03710       -2.46820        5.23640
C          1.20740       -4.39710        6.49390
C          0.46890       -5.51380        6.80190
C         -0.45220       -6.20570        5.89480
C         -1.05120       -7.30190        6.67700
C         -0.51740       -7.28960        7.97770
C          0.44170       -6.18840        8.08360
O         -0.68450       -5.93990        4.72780
C          1.16140       -5.87600        9.20850
C          2.08570       -4.81810        9.33170
C          1.07530       -6.58190       10.42700
N          2.85190       -3.98230        9.51930
N          1.06030       -7.10790       11.44750
C         -1.99200       -8.23270        6.28400
C         -2.41040       -9.17360        7.21480
C         -1.88980       -9.16940        8.50030
C         -0.94210       -8.23430        8.89810
S          2.05950        1.81510        0.54010
C          1.08770        1.73270       -0.89230
C          0.41010        0.52270       -1.05400
C          0.72730        2.59950       -1.94480
C         -0.15330        1.92830       -2.80990
C         -0.37390        0.50860       -2.34320
C          0.28390       -0.53270       -3.23930
C         -1.85550        0.23040       -2.19310
C         -0.00180       -1.87600       -3.02880
C          0.60840       -2.84940       -3.79550
C          1.51780       -2.50860       -4.78940
C          1.80460       -1.16520       -4.98790
C          1.19950       -0.18560       -4.22110
C         -2.49390        0.29410       -0.96410
C         -3.84820        0.02860       -0.86710
C         -4.59600       -0.28900       -1.99190
C         -3.95430       -0.32550       -3.22390
C         -2.60180       -0.06830       -3.32650
C          2.21300       -3.56920       -5.59310
C          3.51570       -3.98870       -4.90880
C         -6.05120       -0.63890       -1.87570
C         -6.21940       -2.14770       -1.68280
S          0.98850        4.22050       -2.40670
C         -0.12620        4.02340       -3.77010
C         -0.63000        2.72480       -3.82990
C         -0.34960        5.17310       -4.54300
C         -1.20240        5.42340       -5.58890
C         -2.19680        4.52170       -6.21190
C         -2.96380        5.36190       -7.15250
C         -2.44970        6.66830       -7.15210
C         -1.32010        6.72510       -6.22520
O         -2.37780        3.33450       -6.02570
C         -0.51570        7.82090       -6.04530
C          0.62290        7.90360       -5.21560
C         -0.69940        9.05490       -6.70520
N          1.57010        8.06900       -4.58630
N         -0.78360       10.08900       -7.19720
C         -4.03670        5.00100       -7.94370
C         -4.61280        5.97280       -8.74920
C         -4.11610        7.26820       -8.75000
C         -3.03460        7.63250       -7.95840
H          3.55550        1.84950        3.01890
H          2.95730        3.98680        4.05930
H         -0.05470        2.02610        6.35560
H          0.52020       -0.10650        5.29830
H          4.30390       -0.17710        5.27800
H          6.73390       -0.48060        5.13530
H          6.35020       -1.61410        1.04230
H          3.92650       -1.32780        1.18270
H          0.05320        4.45420        6.30900
H          1.20950        5.28420        5.25720
H          3.05560        4.70350        6.83370
H          1.78920        5.62850        7.64740
H          1.90200        3.88120        7.88390
H          8.55280       -1.10020        1.98450
H          8.71400       -0.59820        3.67370
H          9.61950       -2.88810        3.34210
H          8.05370       -3.42990        2.72830
H          8.21360       -2.92930        4.41140
H          2.63650       -2.12560        6.06090
H          1.83800       -4.00050        7.28050
H         -2.38310       -8.21550        5.27830
H         -3.14600       -9.91370        6.93800
H         -2.22640       -9.90770        9.21260
H         -0.55780       -8.25680        9.90450
H         -0.71240       -2.15830       -2.26540
H          0.37220       -3.88920       -3.62130
H          2.50950       -0.87760       -5.75480
H          1.44020        0.85210       -4.39790
H         -1.93760        0.54940       -0.07400
H         -4.32890        0.07100        0.09980
H         -4.52060       -0.55860       -4.11390
H         -2.11700       -0.10750       -4.29070
H          1.56390       -4.44090       -5.69620
H          2.43760       -3.18950       -6.59170
H          4.01900       -4.75910       -5.48820
H          3.31170       -4.37900       -3.91420
H          4.18340       -3.13550       -4.81090
H         -6.57960       -0.33070       -2.78000
H         -6.49310       -0.11560       -1.02550
H         -7.27240       -2.40630       -1.60060
H         -5.70970       -2.47220       -0.77830
H         -5.79360       -2.68630       -2.52640
H         -1.32150        2.41510       -4.59150
H          0.24520        6.01720       -4.21380
H         -4.40610        3.98720       -7.92310
H         -5.45370        5.72200       -9.37820
H         -4.57820        8.01410       -9.37920
H         -2.67450        8.64770       -7.98000
