130
6-IF4F.mol
O          1.88460        8.29600        4.59830
C          1.96740        9.04670        5.55670
C          2.26820       10.49160        5.50620
C          2.51430       11.28070        4.40060
C          2.77250       12.62510        4.61610
F          3.01680       13.42820        3.57310
C          2.77970       13.14830        5.90880
F          3.03090       14.44970        6.08800
C          2.53250       12.35370        7.01950
C          2.27420       11.00820        6.81310
C          1.98130        9.92090        7.75100
C          1.90740       10.05590        9.11320
C          2.10460       11.27400        9.79780
N          2.25550       12.23090       10.41330
C          1.62880        9.01940       10.02950
N          1.40440        8.23700       10.83950
C          1.79370        8.71830        6.96900
C          1.50040        7.46400        7.45860
C          1.30270        6.26570        6.77640
S          1.36050        5.97420        5.04740
C          1.00830        5.05920        7.42200
S          0.81750        4.68840        9.09530
C          0.49700        3.02140        8.69380
C          0.22900        2.10350        9.80860
O          0.01150        0.85690        9.38880
C         -0.27620       -0.11660       10.39390
C         -1.73810       -0.06870       10.81340
O          0.22360        2.46100       10.96060
C          0.53830        2.78550        7.34620
F          0.32090        1.58060        6.81960
C          0.83190        3.94130        6.57590
C          0.99170        4.27890        5.22090
C          0.89450        3.49130        4.05750
C          1.05930        3.96750        2.75600
C          0.90200        2.97370        1.80830
C          0.91230        2.87860        0.30480
C         -0.26120        3.74420       -0.21270
C         -0.52820        3.67960       -1.71020
C          2.25520        3.32400       -0.29410
C          3.44060        2.58610        0.31750
C          0.61110        1.73310        2.36890
C          0.46850        0.74340        1.35220
C          0.66570        1.39390        0.10830
C          0.63030        0.66620       -1.05740
C          0.37300       -0.70030       -0.95590
C          0.18800       -1.35360        0.28710
C         -0.06500       -2.84030        0.09110
C         -1.43750       -3.19710        0.69450
C         -1.86070       -4.65080        0.53110
C          1.09740       -3.70820        0.62200
C          1.29720       -3.70120        2.13140
C         -0.04970       -2.93430       -1.41430
C          0.21980       -1.68810       -1.97170
S          0.27710       -1.72060       -3.68090
C         -0.04070       -3.45160       -3.66390
C         -0.14400       -4.11820       -4.90230
C         -0.26490       -5.48820       -5.20070
C         -0.30210       -6.72680       -4.50740
F         -0.22560       -6.83980       -3.18300
C         -0.41620       -7.81640       -5.32770
C         -0.47460       -9.23290       -4.94620
O         -0.52340       -9.99370       -6.04520
C         -0.60210      -11.40670       -5.85540
C         -2.03610      -11.85440       -5.61390
O         -0.46720       -9.64470       -3.81490
C         -0.35220       -5.71180       -6.59300
S         -0.48430       -7.37940       -7.01380
C         -0.30750       -4.56740       -7.39720
C         -0.39710       -4.61360       -8.78660
C         -0.37340       -3.58520       -9.70320
C         -0.48420       -3.71190      -11.13940
C         -0.63560       -4.86240      -11.87010
C         -0.71450       -6.16800      -11.34140
N         -0.78700       -7.26030      -10.99380
C         -0.73490       -4.89660      -13.27730
N         -0.82880       -4.99190      -14.41720
C         -0.40900       -2.36080      -11.70220
C         -0.46270       -1.90690      -13.01010
C         -0.36350       -0.54020      -13.23080
F         -0.41330       -0.08300      -14.48670
C         -0.21400        0.36390      -12.17950
F         -0.12250        1.67420      -12.43860
C         -0.15950       -0.08140      -10.86830
C         -0.25820       -1.44080      -10.65050
C         -0.23040       -2.17110       -9.36730
O         -0.11070       -1.67520       -8.25940
S         -0.13960       -3.16440       -6.35840
C         -0.17640       -3.93460       -2.36600
C          0.21880       -0.62410        1.45280
S          0.53550        1.77300        4.07510
H          2.50750       10.87180        3.40300
H          2.55020       12.80860        7.99600
H          1.40120        7.35770        8.53250
H          0.37190        0.06430       11.25770
H         -0.02770       -1.07380        9.93170
H         -1.95900        0.88610       11.28440
H         -1.93760       -0.86510       11.52430
H         -2.38210       -0.19500        9.94630
H          1.28650        4.99920        2.55530
H         -0.04970        4.77810        0.06860
H         -1.16550        3.43560        0.31830
H         -1.32610        4.37550       -1.95960
H         -0.84640        2.68460       -2.00800
H          0.35100        3.95880       -2.28390
H          2.24120        3.14270       -1.36900
H          2.37050        4.39720       -0.13080
H          3.51150        2.78340        1.38470
H          3.34140        1.51240        0.17220
H          4.36500        2.91260       -0.15240
H          0.79880        1.10990       -2.02580
H         -1.41980       -2.94420        1.75540
H         -2.18290       -2.55330        0.21970
H         -1.15570       -5.32650        1.00670
H         -2.83300       -4.79630        0.99660
H         -1.94780       -4.91820       -0.51770
H          0.92720       -4.73190        0.28550
H          2.01550       -3.35700        0.14320
H          1.58930       -2.71600        2.48350
H          0.39690       -4.01180        2.65410
H          2.09230       -4.39770        2.38850
H          0.03100      -11.68390       -5.00600
H         -0.20350      -11.83560       -6.77660
H         -2.06980      -12.93730       -5.53840
H         -2.40940      -11.42550       -4.68700
H         -2.67270      -11.53470       -6.43540
H         -0.50380       -5.62180       -9.16930
H         -0.57730       -2.56150      -13.85820
H         -0.04420        0.61340      -10.05190
H         -0.36070       -4.96590       -2.14270
H          0.05530       -1.06770        2.42210
