138
a-ITIC-2Cl.sdf
C          3.58460        3.24260        7.56860
O          3.98260        2.92810        6.46220
C          4.16340        4.28720        8.43730
C          5.21660        5.13840        8.17510
C          5.57450        6.06070        9.15070
C          4.87710        6.11050       10.36210
C          3.81780        5.24690       10.62210
C          3.45680        4.32730        9.65140
C          2.40170        3.31420        9.61710
C          1.53830        3.04290       10.64710
C          1.55040        3.71670       11.88710
N          1.50180        4.22310       12.91600
C          0.52480        2.06160       10.64040
N         -0.32030        1.28780       10.72260
C          2.45720        2.67670        8.31630
C          1.56460        1.74570        7.84230
C          1.46280        1.14230        6.58280
C          0.38040        0.31920        6.25080
C          0.41220       -0.08400        4.93260
C          1.54150        0.39390        4.22940
S          2.55930        1.36310        5.22140
C          1.49340        0.05620        2.88070
C          2.34580        0.25490        1.65660
C          3.55100       -0.65700        1.84740
C          3.66960       -1.87520        1.19610
C          4.75620       -2.69560        1.44400
C          5.74160       -2.32460        2.34770
C          6.88980       -3.24220        2.65420
C          6.53530       -4.16800        3.81990
C          5.61270       -1.10460        3.00100
C          4.53250       -0.28000        2.75690
C          2.76840        1.68210        1.38840
C          2.02220        2.75190        1.85980
C          2.40550        4.05040        1.57800
C          3.53420        4.31170        0.81380
C          3.92770        5.71890        0.46920
C          3.33780        6.12160       -0.88400
C          4.26740        3.23580        0.32940
C          3.89130        1.93710        0.61100
C          1.39720       -0.23030        0.57610
C          0.25100       -0.83680        1.14690
C          0.34980       -0.65980        2.56150
S         -0.68550       -0.97930        3.91240
C         -0.77280       -1.35900        0.35930
C         -0.66710       -1.18600       -1.00060
C         -1.68120       -1.54620       -2.07270
C         -1.66850       -3.02180       -2.44480
C         -0.70480       -3.89790       -1.96940
C         -0.70520       -5.22130       -2.37420
C         -1.65810       -5.69800       -3.26330
C         -1.62580       -7.12190       -3.73800
C         -0.78640       -7.24050       -5.01180
C         -2.61500       -4.81170       -3.74340
C         -2.62160       -3.49090       -3.34140
C         -3.06260       -1.09120       -1.65230
C         -3.87700       -1.93930       -0.91240
C         -5.12490       -1.52160       -0.49210
C         -5.59080       -0.24860       -0.79490
C         -6.97030        0.17920       -0.38590
C         -7.98930       -0.22000       -1.45530
C         -4.76800        0.59850       -1.52450
C         -3.51560        0.18760       -1.94230
C         -1.11030       -0.80700       -3.25370
C          0.13670       -0.28730       -2.94380
C          0.43500       -0.49650       -1.56220
C          1.49910       -0.05010       -0.78270
S          0.88090        0.59430       -4.23260
C         -0.52960        0.30830       -5.21340
C         -1.49420       -0.48100       -4.55090
S         -2.89170       -0.69210       -5.52590
C         -2.20000        0.33650       -6.79210
C         -0.92150        0.76000       -6.46470
C         -3.03600        0.59310       -7.89510
C         -2.93670        1.50900       -8.90760
C         -3.95050        1.67300       -9.93790
C         -4.92920        0.77880      -10.28230
C         -5.87560        0.99990      -11.30560
N         -6.67820        1.11670      -12.11810
C         -5.11640       -0.49930       -9.71310
N         -5.32640       -1.55900       -9.32300
C         -3.70170        2.94730      -10.60760
C         -4.41420        3.63730      -11.57610
C         -3.91500        4.85320      -12.02470
C         -2.73000        5.37880      -11.52950
C         -2.01090        4.69760      -10.55780
C         -2.50800        3.49110      -10.10520
C         -1.94450        2.59720       -9.07430
O         -0.88660        2.76010       -8.50180
Cl         6.87560        7.14380        8.86310
Cl         5.32620        7.25820       11.55820
H          5.74350        5.08900        7.23540
H          3.30470        5.31820       11.56690
H          0.77150        1.44750        8.51740
H         -0.39340        0.06890        6.95420
H          2.91520       -2.18850        0.48920
H          4.83680       -3.64000        0.92470
H          7.77250       -2.65590        2.91690
H          7.12810       -3.84510        1.77570
H          6.30560       -3.58530        4.70910
H          7.36630       -4.83250        4.04470
H          5.66470       -4.77150        3.57270
H          6.36680       -0.79600        3.71030
H          4.44970        0.66640        3.27140
H          1.13580        2.57280        2.45110
H          1.81820        4.87290        1.96070
H          5.01590        5.79740        0.42380
H          3.56720        6.40420        1.23860
H          2.25200        6.06170       -0.85600
H          3.62370        7.14000       -1.13620
H          3.69580        5.45620       -1.66640
H          5.14700        3.41740       -0.27170
H          4.48070        1.11330        0.23430
H         -1.63260       -1.83230        0.80800
H          0.04870       -3.55140       -1.27730
H          0.04900       -5.89320       -1.98980
H         -1.19770       -7.76160       -2.96370
H         -2.64110       -7.46600       -3.94410
H         -0.76320       -8.27130       -5.35740
H         -1.20530       -6.61900       -5.80000
H          0.23410       -6.91350       -4.82460
H         -3.36430       -5.15970       -4.43940
H         -3.37640       -2.81660       -3.71970
H         -3.53570       -2.93640       -0.67350
H         -5.74670       -2.19460        0.08080
H         -6.99780        1.26190       -0.24800
H         -7.23900       -0.29340        0.56100
H         -7.98540       -1.29840       -1.59750
H         -7.74470        0.25020       -2.40510
H         -8.98980        0.08850       -1.16180
H         -5.10860        1.59520       -1.76650
H         -2.88840        0.87040       -2.49750
H          2.33960        0.45940       -1.22810
H         -0.32980        1.38590       -7.10610
H         -3.94040       -0.00500       -7.88360
H         -5.33980        3.25680      -11.97570
H         -4.46530        5.39960      -12.77590
H         -2.36830        6.32540      -11.90180
H         -1.08900        5.08790      -10.15470
