150
6T-OFIC.mol
O          4.19420       -5.32900        6.15990
C          4.01340       -5.82630        7.25640
C          2.88140       -5.63280        8.16270
C          3.10230       -6.42310        9.35460
C          4.38000       -7.11980        9.18740
C          4.92490       -6.76870        7.94140
C          6.12970       -7.27310        7.49560
C          6.80330       -8.15430        8.32620
F          7.97500       -8.67120        7.93410
C          6.27200       -8.50850        9.56580
F          6.94380       -9.36140       10.34810
C          5.06080       -8.00030       10.01290
C          2.28720       -6.53370       10.45330
C          1.05330       -5.87660       10.63830
N          0.04200       -5.38250       10.87130
C          2.57640       -7.33980       11.57450
N          2.74710       -7.97480       12.51540
C          1.77490       -4.84580        7.93080
C          1.41440       -4.06690        6.83130
C          0.20350       -3.34530        6.77940
C         -0.79860       -3.23440        7.88190
C         -0.37180       -2.17380        8.90080
C          0.07180       -2.68660        5.56990
C          1.15000       -2.87420        4.67810
S          2.36510       -3.88820        5.35150
C          0.96130       -2.19420        3.48120
C         -0.25700       -1.51280        3.46020
S         -1.18570       -1.66810        4.90870
C         -0.40390       -0.87510        2.20890
S         -1.58430        0.12300        1.42830
C         -0.57960        0.16650        0.01240
C          0.61980       -0.56250        0.17310
S          1.61960       -0.52580       -1.24710
C          0.42800        0.45170       -2.03580
C         -0.68310        0.74650       -1.24620
C         -1.69670        1.55690       -2.01590
C         -1.92600        2.95510       -1.47090
C         -1.07010        3.53130       -0.54480
C         -1.29340        4.82160       -0.09860
C         -2.36580        5.56570       -0.56990
C         -2.57920        6.98130       -0.11820
C         -1.86190        7.95460       -1.05600
C         -3.21080        4.98580       -1.50840
C         -2.99650        3.69680       -1.95460
C         -2.99260        0.76640       -2.06640
C         -3.31850       -0.03810       -3.14770
C         -4.48940       -0.77450       -3.14100
C         -5.35120       -0.73760       -2.05350
C         -6.64230       -1.50270       -2.06980
C         -7.76140       -0.64500       -2.66410
C         -5.01240        0.06250       -0.96920
C         -3.84820        0.80550       -0.97260
C         -0.99020        1.67480       -3.34420
C          0.24770        1.03320       -3.31150
S          1.12970        1.13070       -4.79100
C         -0.16960        2.06010       -5.49550
C         -1.22300        2.26210       -4.58080
S         -2.50600        3.15340       -5.29300
C         -1.58540        3.31970       -6.79350
C         -2.22090        4.01390       -7.83550
C         -1.63330        4.75000       -8.83640
C         -2.30720        5.26700      -10.00640
C         -1.40910        6.22480      -10.64930
C         -0.21010        6.27580       -9.91920
C          0.83790        7.09450      -10.28870
C         -1.56540        7.00920      -11.78090
C         -0.51010        7.82820      -12.15500
F         -0.63950        8.59480      -13.24400
C          0.67670        7.87310      -11.42380
F          1.67090        8.67670      -11.82250
C         -3.52700        4.86470      -10.48580
C         -4.13330        5.39140      -11.64490
N         -4.67770        5.79110      -12.57290
C         -4.31690        3.84780       -9.90870
N         -4.99790        3.01390       -9.50970
C         -0.29430        5.36270       -8.75470
O          0.53510        5.24080       -7.87740
C         -0.36250        2.64290       -6.75090
C          0.53560        2.45910       -7.92630
C          1.08540        1.04120       -8.05580
C          0.71180       -1.16340        1.42270
C          1.69640       -2.02380        2.17460
C          1.92740       -3.39480        1.56430
C          2.96120       -4.18090        2.05810
C          3.17980       -5.44560        1.54910
C          2.37630       -5.95650        0.53700
C          2.65310       -7.30800       -0.05510
C          3.63140       -7.18470       -1.22530
C          1.34230       -5.16740        0.05340
C          1.11210       -3.90250        0.56450
C          3.00240       -1.25620        2.29210
C          3.87120       -1.23830        1.20830
C          5.04780       -0.51750        1.26740
C          5.38850        0.19920        2.40790
C          6.64880        1.01350        2.45550
C          6.39110        2.42850        1.93330
C          4.51210        0.18190        3.48410
C          3.32910       -0.53290        3.42890
H          6.53640       -6.99520        6.53640
H          4.69540       -8.30710       10.97890
H          1.04310       -4.82660        8.72660
H         -0.93110       -4.19050        8.39030
H         -1.75720       -2.94490        7.44630
H         -1.11430       -2.10340        9.69040
H          0.58390       -2.43310        9.34970
H         -0.27790       -1.20240        8.42070
H         -0.22560        2.97500       -0.16490
H         -0.62180        5.25440        0.62910
H         -2.19510        7.10900        0.89570
H         -3.64670        7.21000       -0.11130
H         -2.01660        8.98030       -0.72980
H         -0.79350        7.75090       -1.06780
H         -2.24030        7.85130       -2.07040
H         -4.04910        5.54880       -1.89230
H         -3.66770        3.25710       -2.67810
H         -2.66070       -0.09260       -4.00270
H         -4.73320       -1.39040       -3.99460
H         -6.52870       -2.40950       -2.66700
H         -6.91320       -1.79370       -1.05290
H         -8.69720       -1.19860       -2.67890
H         -7.51420       -0.35260       -3.68210
H         -7.90060        0.25770       -2.07340
H         -5.66630        0.10350       -0.11020
H         -3.60310        1.42760       -0.12380
H         -3.30440        3.99920       -7.79520
H          1.75330        7.12970       -9.71980
H         -2.46480        7.01400      -12.37450
H          1.36380        3.17030       -7.84190
H         -0.01820        2.71730       -8.83180
H          0.27630        0.31410       -8.04190
H          1.61790        0.94500       -8.99850
H          1.77800        0.80800       -7.25200
H          3.59870       -3.79930        2.84180
H          3.98520       -6.04480        1.94770
H          3.08180       -7.96410        0.70470
H          1.72270       -7.75610       -0.40960
H          3.21670       -6.54240       -1.99910
H          4.57050       -6.75140       -0.88840
H          3.83420       -8.16210       -1.65650
H          0.70270       -5.54640       -0.73100
H          0.29280       -3.31430        0.17720
H          3.62740       -1.80030        0.31820
H          5.71360       -0.51580        0.41650
H          7.41870        0.53940        1.84380
H          7.01440        1.07020        3.48250
H          7.30410        3.01820        1.96710
H          6.03730        2.39400        0.90530
H          5.63500        2.92360        2.53870
H          4.75720        0.73280        4.38080
H          2.66380       -0.52780        4.27960
