A2.mol
  xtb     01102215423D
 energy: -300.708757066648 gnorm: 0.000704180999 xtb: 6.4.1 (unknown)
176192  0     0  0            999 V2000
   10.3665   -1.0439    8.8848 O   0  0  0  0  0  0  0  0  0  0  0  0
    9.9210   -0.0151    8.4327 C   0  0  0  0  0  0  0  0  0  0  0  0
    8.9074    0.0982    7.3810 C   0  0  0  0  0  0  0  0  0  0  0  0
    8.5580    1.7803    7.0568 S   0  0  0  0  0  0  0  0  0  0  0  0
    8.3131   -1.0079    6.8741 C   0  0  0  0  0  0  0  0  0  0  0  0
    7.3099   -1.1445    5.8685 C   0  0  0  0  0  0  0  0  0  0  0  0
    6.4294   -2.2527    5.9684 C   0  0  0  0  0  0  0  0  0  0  0  0
    6.4815   -3.1990    6.9039 N   0  0  0  0  0  0  0  0  0  0  0  0
    5.2686   -4.2260    6.6761 S   0  0  0  0  0  0  0  0  0  0  0  0
    4.6085   -3.5219    5.3944 N   0  0  0  0  0  0  0  0  0  0  0  0
    5.3199   -2.4409    5.0690 C   0  0  0  0  0  0  0  0  0  0  0  0
    7.0927   -0.3301    4.7561 C   0  0  0  0  0  0  0  0  0  0  0  0
    6.0079   -0.5073    3.8440 C   0  0  0  0  0  0  0  0  0  0  0  0
    6.0951    0.4138    2.7648 C   0  0  0  0  0  0  0  0  0  0  0  0
    7.1792    1.2278    2.8322 C   0  0  0  0  0  0  0  0  0  0  0  0
    7.5589    2.2714    1.8753 C   0  0  0  0  0  0  0  0  0  0  0  0
    8.6687    2.8973    2.2764 O   0  0  0  0  0  0  0  0  0  0  0  0
    9.1607    3.9499    1.4472 C   0  0  0  0  0  0  0  0  0  0  0  0
    9.9986    3.4067    0.2987 C   0  0  0  0  0  0  0  0  0  0  0  0
    6.9391    2.5284    0.8725 O   0  0  0  0  0  0  0  0  0  0  0  0
    8.1659    0.9315    4.2320 S   0  0  0  0  0  0  0  0  0  0  0  0
    5.0532   -1.5283    4.0137 C   0  0  0  0  0  0  0  0  0  0  0  0
    3.8732   -1.6823    3.2240 C   0  0  0  0  0  0  0  0  0  0  0  0
    3.1392   -2.8477    3.0571 C   0  0  0  0  0  0  0  0  0  0  0  0
    2.0086   -2.6551    2.2760 C   0  0  0  0  0  0  0  0  0  0  0  0
    1.8454   -1.3392    1.8646 C   0  0  0  0  0  0  0  0  0  0  0  0
    3.1104   -0.3235    2.4084 S   0  0  0  0  0  0  0  0  0  0  0  0
    0.6654   -1.1936    1.0751 C   0  0  0  0  0  0  0  0  0  0  0  0
    0.0601   -2.4712    1.0005 C   0  0  0  0  0  0  0  0  0  0  0  0
    0.8574   -3.4980    1.7894 C   0  0  0  0  0  0  0  0  0  0  0  0
    1.2606   -4.6201    0.8529 C   0  0  0  0  0  0  0  0  0  0  0  0
    2.4543   -4.5726    0.1472 C   0  0  0  0  0  0  0  0  0  0  0  0
    2.7866   -5.5825   -0.7371 C   0  0  0  0  0  0  0  0  0  0  0  0
    1.9350   -6.6588   -0.9451 C   0  0  0  0  0  0  0  0  0  0  0  0
    2.2774   -7.7301   -1.9398 C   0  0  0  0  0  0  0  0  0  0  0  0
    1.7456   -7.3604   -3.3260 C   0  0  0  0  0  0  0  0  0  0  0  0
    0.7353   -6.6947   -0.2461 C   0  0  0  0  0  0  0  0  0  0  0  0
    0.4000   -5.6900    0.6411 C   0  0  0  0  0  0  0  0  0  0  0  0
    0.1347   -4.0228    3.0179 C   0  0  0  0  0  0  0  0  0  0  0  0
    0.6756   -5.1025    3.7063 C   0  0  0  0  0  0  0  0  0  0  0  0
    0.0737   -5.5744    4.8558 C   0  0  0  0  0  0  0  0  0  0  0  0
   -1.0806   -4.9806    5.3517 C   0  0  0  0  0  0  0  0  0  0  0  0
   -1.7065   -5.4671    6.6267 C   0  0  0  0  0  0  0  0  0  0  0  0
   -1.0836   -4.7575    7.8308 C   0  0  0  0  0  0  0  0  0  0  0  0
   -1.6096   -3.8961    4.6666 C   0  0  0  0  0  0  0  0  0  0  0  0
   -1.0097   -3.4177    3.5152 C   0  0  0  0  0  0  0  0  0  0  0  0
   -1.0795   -2.6679    0.2569 C   0  0  0  0  0  0  0  0  0  0  0  0
   -1.6224   -1.5571   -0.3848 C   0  0  0  0  0  0  0  0  0  0  0  0
   -1.0410   -0.2705   -0.2716 C   0  0  0  0  0  0  0  0  0  0  0  0
   -1.8397    0.7592   -1.0534 C   0  0  0  0  0  0  0  0  0  0  0  0
   -2.9021   -0.1149   -1.6669 C   0  0  0  0  0  0  0  0  0  0  0  0
   -2.7552   -1.4305   -1.2462 C   0  0  0  0  0  0  0  0  0  0  0  0
   -3.9405   -2.4714   -1.9185 S   0  0  0  0  0  0  0  0  0  0  0  0
   -4.6030   -1.1325   -2.8365 C   0  0  0  0  0  0  0  0  0  0  0  0
   -5.6682   -1.3582   -3.7562 C   0  0  0  0  0  0  0  0  0  0  0  0
   -5.8957   -0.5698   -4.8989 C   0  0  0  0  0  0  0  0  0  0  0  0
   -7.0479   -0.7524   -5.7257 C   0  0  0  0  0  0  0  0  0  0  0  0
   -7.0234    0.3221   -7.0805 S   0  0  0  0  0  0  0  0  0  0  0  0
   -7.9936   -1.7624   -5.5159 C   0  0  0  0  0  0  0  0  0  0  0  0
   -9.1489   -2.0677   -6.2922 C   0  0  0  0  0  0  0  0  0  0  0  0
   -9.9564   -1.2475   -7.0143 C   0  0  0  0  0  0  0  0  0  0  0  0
  -10.0293    0.2027   -6.9987 C   0  0  0  0  0  0  0  0  0  0  0  0
  -10.9926    0.6623   -7.8875 N   0  0  0  0  0  0  0  0  0  0  0  0
  -11.1261    2.0940   -8.0838 C   0  0  0  0  0  0  0  0  0  0  0  0
  -10.3018    2.5674   -9.2752 C   0  0  0  0  0  0  0  0  0  0  0  0
  -11.7012   -0.2881   -8.5464 C   0  0  0  0  0  0  0  0  0  0  0  0
  -11.2100   -1.8968   -8.0602 S   0  0  0  0  0  0  0  0  0  0  0  0
  -12.7025   -0.1224   -9.4710 C   0  0  0  0  0  0  0  0  0  0  0  0
  -13.3299   -1.2588  -10.0228 C   0  0  0  0  0  0  0  0  0  0  0  0
  -13.8472   -2.1764  -10.4773 N   0  0  0  0  0  0  0  0  0  0  0  0
  -13.1994    1.0968   -9.9612 C   0  0  0  0  0  0  0  0  0  0  0  0
  -13.6493    2.0531  -10.4117 N   0  0  0  0  0  0  0  0  0  0  0  0
   -9.3876    0.9499   -6.2866 O   0  0  0  0  0  0  0  0  0  0  0  0
   -7.6815   -2.6529   -4.4516 C   0  0  0  0  0  0  0  0  0  0  0  0
   -8.3802   -3.7328   -4.1057 N   0  0  0  0  0  0  0  0  0  0  0  0
   -7.6887   -4.4190   -2.8261 S   0  0  0  0  0  0  0  0  0  0  0  0
   -6.4790   -3.3815   -2.6355 N   0  0  0  0  0  0  0  0  0  0  0  0
   -6.5548   -2.4473   -3.5825 C   0  0  0  0  0  0  0  0  0  0  0  0
   -5.0245    0.4124   -5.4370 C   0  0  0  0  0  0  0  0  0  0  0  0
   -5.4813    0.9566   -6.5963 C   0  0  0  0  0  0  0  0  0  0  0  0
   -4.8481    1.9888   -7.4219 C   0  0  0  0  0  0  0  0  0  0  0  0
   -3.7102    2.4226   -6.8611 O   0  0  0  0  0  0  0  0  0  0  0  0
   -2.9849    3.4293   -7.5687 C   0  0  0  0  0  0  0  0  0  0  0  0
   -2.0546    2.8171   -8.6058 C   0  0  0  0  0  0  0  0  0  0  0  0
   -5.3026    2.4010   -8.4604 O   0  0  0  0  0  0  0  0  0  0  0  0
   -3.9534    0.0607   -2.5544 C   0  0  0  0  0  0  0  0  0  0  0  0
   -2.5281    1.7906   -0.1764 C   0  0  0  0  0  0  0  0  0  0  0  0
   -2.6392    1.6334    1.1972 C   0  0  0  0  0  0  0  0  0  0  0  0
   -3.3070    2.5764    1.9579 C   0  0  0  0  0  0  0  0  0  0  0  0
   -3.8867    3.6916    1.3692 C   0  0  0  0  0  0  0  0  0  0  0  0
   -4.6449    4.6901    2.1951 C   0  0  0  0  0  0  0  0  0  0  0  0
   -6.1089    4.2676    2.3349 C   0  0  0  0  0  0  0  0  0  0  0  0
   -3.7876    3.8351   -0.0091 C   0  0  0  0  0  0  0  0  0  0  0  0
   -3.1192    2.8983   -0.7729 C   0  0  0  0  0  0  0  0  0  0  0  0
   -0.9349    1.4130   -2.0819 C   0  0  0  0  0  0  0  0  0  0  0  0
   -0.8093    0.8920   -3.3624 C   0  0  0  0  0  0  0  0  0  0  0  0
    0.0379    1.4830   -4.2811 C   0  0  0  0  0  0  0  0  0  0  0  0
    0.7927    2.5981   -3.9430 C   0  0  0  0  0  0  0  0  0  0  0  0
    1.6761    3.2621   -4.9594 C   0  0  0  0  0  0  0  0  0  0  0  0
    0.8693    4.2484   -5.8066 C   0  0  0  0  0  0  0  0  0  0  0  0
    0.6756    3.1066   -2.6560 C   0  0  0  0  0  0  0  0  0  0  0  0
   -0.1740    2.5225   -1.7355 C   0  0  0  0  0  0  0  0  0  0  0  0
    0.1163   -0.0794    0.4450 C   0  0  0  0  0  0  0  0  0  0  0  0
   10.3238    1.2424    8.8665 N   0  0  0  0  0  0  0  0  0  0  0  0
   11.3848    1.3373    9.8528 C   0  0  0  0  0  0  0  0  0  0  0  0
   12.7365    1.5898    9.1959 C   0  0  0  0  0  0  0  0  0  0  0  0
    9.7208    2.2981    8.2652 C   0  0  0  0  0  0  0  0  0  0  0  0
    9.9060    3.6374    8.4954 C   0  0  0  0  0  0  0  0  0  0  0  0
    9.1731    4.5747    7.7369 C   0  0  0  0  0  0  0  0  0  0  0  0
    8.5888    5.3482    7.1238 N   0  0  0  0  0  0  0  0  0  0  0  0
   10.7767    4.2173    9.4338 C   0  0  0  0  0  0  0  0  0  0  0  0
   11.4689    4.7552   10.1760 N   0  0  0  0  0  0  0  0  0  0  0  0
    8.5915   -1.9349    7.3651 H   0  0  0  0  0  0  0  0  0  0  0  0
    5.4123    0.4621    1.9377 H   0  0  0  0  0  0  0  0  0  0  0  0
    9.7576    4.5760    2.1130 H   0  0  0  0  0  0  0  0  0  0  0  0
    8.3098    4.5194    1.0593 H   0  0  0  0  0  0  0  0  0  0  0  0
    9.3806    2.7974   -0.3565 H   0  0  0  0  0  0  0  0  0  0  0  0
   10.8150    2.7994    0.6824 H   0  0  0  0  0  0  0  0  0  0  0  0
   10.4091    4.2334   -0.2736 H   0  0  0  0  0  0  0  0  0  0  0  0
    3.4465   -3.7825    3.4850 H   0  0  0  0  0  0  0  0  0  0  0  0
    3.1326   -3.7439    0.2899 H   0  0  0  0  0  0  0  0  0  0  0  0
    3.7241   -5.5332   -1.2725 H   0  0  0  0  0  0  0  0  0  0  0  0
    3.3608   -7.8550   -1.9919 H   0  0  0  0  0  0  0  0  0  0  0  0
    1.8383   -8.6797   -1.6277 H   0  0  0  0  0  0  0  0  0  0  0  0
    2.1818   -6.4217   -3.6603 H   0  0  0  0  0  0  0  0  0  0  0  0
    1.9926   -8.1354   -4.0476 H   0  0  0  0  0  0  0  0  0  0  0  0
    0.6645   -7.2432   -3.2975 H   0  0  0  0  0  0  0  0  0  0  0  0
    0.0561   -7.5220   -0.3953 H   0  0  0  0  0  0  0  0  0  0  0  0
   -0.5323   -5.7440    1.1846 H   0  0  0  0  0  0  0  0  0  0  0  0
    1.5680   -5.5813    3.3307 H   0  0  0  0  0  0  0  0  0  0  0  0
    0.5046   -6.4181    5.3757 H   0  0  0  0  0  0  0  0  0  0  0  0
   -1.5552   -6.5439    6.7264 H   0  0  0  0  0  0  0  0  0  0  0  0
   -2.7807   -5.2727    6.6106 H   0  0  0  0  0  0  0  0  0  0  0  0
   -1.5340   -5.1101    8.7556 H   0  0  0  0  0  0  0  0  0  0  0  0
   -1.2365   -3.6831    7.7569 H   0  0  0  0  0  0  0  0  0  0  0  0
   -0.0134   -4.9479    7.8699 H   0  0  0  0  0  0  0  0  0  0  0  0
   -2.5051   -3.4171    5.0365 H   0  0  0  0  0  0  0  0  0  0  0  0
   -1.4410   -2.5705    3.0024 H   0  0  0  0  0  0  0  0  0  0  0  0
   -1.5423   -3.6382    0.1656 H   0  0  0  0  0  0  0  0  0  0  0  0
   -9.4220   -3.1164   -6.2640 H   0  0  0  0  0  0  0  0  0  0  0  0
  -10.7498    2.5556   -7.1666 H   0  0  0  0  0  0  0  0  0  0  0  0
  -12.1800    2.3454   -8.2103 H   0  0  0  0  0  0  0  0  0  0  0  0
   -9.2511    2.3281   -9.1254 H   0  0  0  0  0  0  0  0  0  0  0  0
  -10.4043    3.6435   -9.3771 H   0  0  0  0  0  0  0  0  0  0  0  0
  -10.6458    2.1033  -10.1966 H   0  0  0  0  0  0  0  0  0  0  0  0
   -4.0680    0.6703   -5.0243 H   0  0  0  0  0  0  0  0  0  0  0  0
   -2.4237    3.9643   -6.7992 H   0  0  0  0  0  0  0  0  0  0  0  0
   -3.6967    4.1065   -8.0517 H   0  0  0  0  0  0  0  0  0  0  0  0
   -2.6352    2.3040   -9.3684 H   0  0  0  0  0  0  0  0  0  0  0  0
   -1.4696    3.6013   -9.0777 H   0  0  0  0  0  0  0  0  0  0  0  0
   -1.3820    2.1035   -8.1354 H   0  0  0  0  0  0  0  0  0  0  0  0
   -4.2683    1.0094   -2.9463 H   0  0  0  0  0  0  0  0  0  0  0  0
   -2.1984    0.7742    1.6811 H   0  0  0  0  0  0  0  0  0  0  0  0
   -3.3751    2.4430    3.0282 H   0  0  0  0  0  0  0  0  0  0  0  0
   -4.1966    4.7660    3.1878 H   0  0  0  0  0  0  0  0  0  0  0  0
   -4.5981    5.6732    1.7226 H   0  0  0  0  0  0  0  0  0  0  0  0
   -6.5771    4.1955    1.3558 H   0  0  0  0  0  0  0  0  0  0  0  0
   -6.1779    3.2958    2.8187 H   0  0  0  0  0  0  0  0  0  0  0  0
   -6.6586    4.9924    2.9306 H   0  0  0  0  0  0  0  0  0  0  0  0
   -4.2361    4.6929   -0.4894 H   0  0  0  0  0  0  0  0  0  0  0  0
   -3.0423    3.0337   -1.8421 H   0  0  0  0  0  0  0  0  0  0  0  0
   -1.3756    0.0173   -3.6481 H   0  0  0  0  0  0  0  0  0  0  0  0
    0.1175    1.0659   -5.2751 H   0  0  0  0  0  0  0  0  0  0  0  0
    2.1199    2.5078   -5.6126 H   0  0  0  0  0  0  0  0  0  0  0  0
    2.4839    3.7955   -4.4554 H   0  0  0  0  0  0  0  0  0  0  0  0
    0.4213    5.0115   -5.1738 H   0  0  0  0  0  0  0  0  0  0  0  0
    1.5101    4.7359   -6.5375 H   0  0  0  0  0  0  0  0  0  0  0  0
    0.0732    3.7288   -6.3350 H   0  0  0  0  0  0  0  0  0  0  0  0
    1.2586    3.9698   -2.3685 H   0  0  0  0  0  0  0  0  0  0  0  0
   -0.2563    2.9407   -0.7427 H   0  0  0  0  0  0  0  0  0  0  0  0
    0.5888    0.8876    0.5215 H   0  0  0  0  0  0  0  0  0  0  0  0
   11.1444    2.1256   10.5679 H   0  0  0  0  0  0  0  0  0  0  0  0
   11.3974    0.3721   10.3666 H   0  0  0  0  0  0  0  0  0  0  0  0
   12.7457    2.5421    8.6709 H   0  0  0  0  0  0  0  0  0  0  0  0
   13.5075    1.6146    9.9598 H   0  0  0  0  0  0  0  0  0  0  0  0
   12.9658    0.7926    8.4922 H   0  0  0  0  0  0  0  0  0  0  0  0
  1  2  2  0  0  0  0
  2  3  1  0  0  0  0
  3  4  1  0  0  0  0
  3  5  2  0  0  0  0
  5  6  1  0  0  0  0
  6  7  1  0  0  0  0
  7  8  2  0  0  0  0
  8  9  1  0  0  0  0
  9 10  1  0  0  0  0
 10 11  2  0  0  0  0
  7 11  1  0  0  0  0
  6 12  2  0  0  0  0
 12 13  1  0  0  0  0
 13 14  1  0  0  0  0
 14 15  2  0  0  0  0
 15 16  1  0  0  0  0
 16 17  1  0  0  0  0
 17 18  1  0  0  0  0
 18 19  1  0  0  0  0
 16 20  2  0  0  0  0
 15 21  1  0  0  0  0
 12 21  1  0  0  0  0
 13 22  2  0  0  0  0
 11 22  1  0  0  0  0
 22 23  1  0  0  0  0
 23 24  2  0  0  0  0
 24 25  1  0  0  0  0
 25 26  2  0  0  0  0
 26 27  1  0  0  0  0
 23 27  1  0  0  0  0
 26 28  1  0  0  0  0
 28 29  2  0  0  0  0
 29 30  1  0  0  0  0
 25 30  1  0  0  0  0
 30 31  1  0  0  0  0
 31 32  2  0  0  0  0
 32 33  1  0  0  0  0
 33 34  2  0  0  0  0
 34 35  1  0  0  0  0
 35 36  1  0  0  0  0
 34 37  1  0  0  0  0
 37 38  2  0  0  0  0
 31 38  1  0  0  0  0
 30 39  1  0  0  0  0
 39 40  2  0  0  0  0
 40 41  1  0  0  0  0
 41 42  2  0  0  0  0
 42 43  1  0  0  0  0
 43 44  1  0  0  0  0
 42 45  1  0  0  0  0
 45 46  2  0  0  0  0
 39 46  1  0  0  0  0
 29 47  1  0  0  0  0
 47 48  2  0  0  0  0
 48 49  1  0  0  0  0
 49 50  1  0  0  0  0
 50 51  1  0  0  0  0
 51 52  2  0  0  0  0
 48 52  1  0  0  0  0
 52 53  1  0  0  0  0
 53 54  1  0  0  0  0
 54 55  1  0  0  0  0
 55 56  2  0  0  0  0
 56 57  1  0  0  0  0
 57 58  1  0  0  0  0
 57 59  2  0  0  0  0
 59 60  1  0  0  0  0
 60 61  2  0  0  0  0
 61 62  1  0  0  0  0
 62 63  1  0  0  0  0
 63 64  1  0  0  0  0
 64 65  1  0  0  0  0
 63 66  1  0  0  0  0
 66 67  1  0  0  0  0
 61 67  1  0  0  0  0
 66 68  2  0  0  0  0
 68 69  1  0  0  0  0
 69 70  3  0  0  0  0
 68 71  1  0  0  0  0
 71 72  3  0  0  0  0
 62 73  2  0  0  0  0
 59 74  1  0  0  0  0
 74 75  2  0  0  0  0
 75 76  1  0  0  0  0
 76 77  1  0  0  0  0
 77 78  2  0  0  0  0
 74 78  1  0  0  0  0
 55 78  1  0  0  0  0
 56 79  1  0  0  0  0
 79 80  2  0  0  0  0
 58 80  1  0  0  0  0
 80 81  1  0  0  0  0
 81 82  1  0  0  0  0
 82 83  1  0  0  0  0
 83 84  1  0  0  0  0
 81 85  2  0  0  0  0
 54 86  2  0  0  0  0
 51 86  1  0  0  0  0
 50 87  1  0  0  0  0
 87 88  2  0  0  0  0
 88 89  1  0  0  0  0
 89 90  2  0  0  0  0
 90 91  1  0  0  0  0
 91 92  1  0  0  0  0
 90 93  1  0  0  0  0
 93 94  2  0  0  0  0
 87 94  1  0  0  0  0
 50 95  1  0  0  0  0
 95 96  2  0  0  0  0
 96 97  1  0  0  0  0
 97 98  2  0  0  0  0
 98 99  1  0  0  0  0
 99100  1  0  0  0  0
 98101  1  0  0  0  0
101102  2  0  0  0  0
 95102  1  0  0  0  0
 49103  2  0  0  0  0
 28103  1  0  0  0  0
  2104  1  0  0  0  0
104105  1  0  0  0  0
105106  1  0  0  0  0
104107  1  0  0  0  0
  4107  1  0  0  0  0
107108  2  0  0  0  0
108109  1  0  0  0  0
109110  3  0  0  0  0
108111  1  0  0  0  0
111112  3  0  0  0  0
  5113  1  0  0  0  0
 14114  1  0  0  0  0
 18115  1  0  0  0  0
 18116  1  0  0  0  0
 19117  1  0  0  0  0
 19118  1  0  0  0  0
 19119  1  0  0  0  0
 24120  1  0  0  0  0
 32121  1  0  0  0  0
 33122  1  0  0  0  0
 35123  1  0  0  0  0
 35124  1  0  0  0  0
 36125  1  0  0  0  0
 36126  1  0  0  0  0
 36127  1  0  0  0  0
 37128  1  0  0  0  0
 38129  1  0  0  0  0
 40130  1  0  0  0  0
 41131  1  0  0  0  0
 43132  1  0  0  0  0
 43133  1  0  0  0  0
 44134  1  0  0  0  0
 44135  1  0  0  0  0
 44136  1  0  0  0  0
 45137  1  0  0  0  0
 46138  1  0  0  0  0
 47139  1  0  0  0  0
 60140  1  0  0  0  0
 64141  1  0  0  0  0
 64142  1  0  0  0  0
 65143  1  0  0  0  0
 65144  1  0  0  0  0
 65145  1  0  0  0  0
 79146  1  0  0  0  0
 83147  1  0  0  0  0
 83148  1  0  0  0  0
 84149  1  0  0  0  0
 84150  1  0  0  0  0
 84151  1  0  0  0  0
 86152  1  0  0  0  0
 88153  1  0  0  0  0
 89154  1  0  0  0  0
 91155  1  0  0  0  0
 91156  1  0  0  0  0
 92157  1  0  0  0  0
 92158  1  0  0  0  0
 92159  1  0  0  0  0
 93160  1  0  0  0  0
 94161  1  0  0  0  0
 96162  1  0  0  0  0
 97163  1  0  0  0  0
 99164  1  0  0  0  0
 99165  1  0  0  0  0
100166  1  0  0  0  0
100167  1  0  0  0  0
100168  1  0  0  0  0
101169  1  0  0  0  0
102170  1  0  0  0  0
103171  1  0  0  0  0
105172  1  0  0  0  0
105173  1  0  0  0  0
106174  1  0  0  0  0
106175  1  0  0  0  0
106176  1  0  0  0  0
M  END
