120
A4T-23.sdf
C         -2.87910        1.98510        6.48590
O         -2.18330        1.82290        5.50010
C         -2.44030        1.85510        7.89130
C         -1.18840        1.52830        8.37220
C         -1.02470        1.46770        9.74680
C         -2.09520        1.73040       10.60160
C         -3.35300        2.05880       10.11680
C         -3.52540        2.12100        8.74300
C         -4.70140        2.43030        7.92650
C         -5.94320        2.73410        8.42100
C         -6.25500        2.79110        9.79630
N         -6.57650        2.85530       10.89620
C         -7.08860        3.03140        7.65260
N         -8.06770        3.28320        7.10700
C         -4.29740        2.34470        6.53800
C         -5.10610        2.55800        5.44700
C         -4.81820        2.47900        4.08000
C         -5.78830        2.69120        3.09790
C         -5.34750        2.55640        1.79040
C         -3.98770        2.23970        1.74680
S         -3.29190        2.09460        3.33080
C         -3.12300        1.98570        0.63810
C          2.38780       -1.29210       -3.71720
C          2.52740       -0.80660       -5.02730
C          3.43150       -1.55860       -5.75430
C          4.00320       -2.63080       -5.06310
S          3.39170       -2.68180       -3.43060
C          4.92440       -3.50140       -5.65160
C          5.57050       -4.59750       -5.12510
C          6.50660       -5.44930       -5.82750
C          6.93840       -5.33270       -7.12420
C          7.85720       -6.21330       -7.73330
N          8.59790       -6.89240       -8.28810
C          6.54380       -4.33570       -8.04050
N          6.28110       -3.56340       -8.84960
C          6.93370       -6.49510       -4.89390
C          7.80550       -7.56190       -5.04330
C          8.00730       -8.39640       -3.95300
C          7.36010       -8.18430       -2.73620
C          6.48560       -7.12100       -2.57890
C          6.28770       -6.29140       -3.66380
C          5.41560       -5.10140       -3.75980
O          4.71900       -4.65630       -2.86600
F          0.17160        1.15410       10.25900
F          7.58450       -9.01540       -1.71000
S         -1.91320        0.74320        0.85660
C         -1.28680        1.01080       -0.74180
C         -1.97800        2.01530       -1.37720
C         -3.00790        2.58260       -0.60790
C         -0.20190        0.24290       -1.24040
C          0.58480       -0.65660       -0.55650
C          1.57120       -1.26000       -1.34220
C          1.55130       -0.83200       -2.66670
S          0.28650        0.35350       -2.90190
C          1.86230        0.40530       -5.60060
C          2.54270        1.68750       -5.11700
C         -6.27640        2.60400        0.61910
C         -6.48250        1.20430        0.03770
C         -3.76820        3.74890       -1.08460
C         -3.70120        4.96470       -0.39260
C         -4.40080        6.05680       -0.88170
C         -5.15890        5.98070       -2.04150
C         -5.19900        4.77440       -2.72270
C         -4.51200        3.65880       -2.26710
C         -2.87820        5.12780        0.85060
C         -5.91900        7.17440       -2.53110
C         -4.60300        2.38190       -3.05030
C          2.54870       -2.21240       -0.78470
C          2.19290       -3.54810       -0.59530
C          3.12510       -4.42070       -0.05720
C          4.39470       -3.99310        0.29560
C          4.72250       -2.65570        0.11630
C          3.81750       -1.75560       -0.41690
C          4.18980       -0.31710       -0.61940
C          5.40970       -4.94200        0.85540
C          0.82980       -4.02580       -0.99600
F         -1.90910        1.66500       11.92470
F          8.84570       -9.43190       -4.07800
H         -0.36440        1.32610        7.70680
H         -4.14520        2.25210       10.82100
H         -6.13660        2.82460        5.64770
H         -6.80750        2.92400        3.35550
H          3.68540       -1.34830       -6.77930
H          5.14180       -3.25820       -6.68460
H          8.33010       -7.77290       -5.96040
H          5.97800       -6.95190       -1.64280
H         -1.72330        2.35700       -2.36480
H          0.45560       -0.86120        0.49220
H          0.80500        0.42430       -5.33150
H          1.92970        0.35460       -6.68860
H          3.58900        1.69170       -5.41360
H          2.05540        2.55660       -5.55080
H          2.49160        1.76860       -4.03420
H         -7.23650        3.00200        0.95110
H         -5.88410        3.26360       -0.15350
H         -6.92110        0.54370        0.78240
H         -7.14710        1.24990       -0.82090
H         -5.53330        0.77970       -0.27980
H         -4.34790        6.99440       -0.34680
H         -5.77790        4.69570       -3.63210
H         -2.53840        6.15700        0.94100
H         -3.47250        4.89400        1.73410
H         -2.01010        4.47300        0.84470
H         -5.30640        8.07160       -2.46970
H         -6.24100        7.03690       -3.56010
H         -6.80340        7.33250       -1.91350
H         -4.42660        1.51190       -2.42400
H         -5.58550        2.29130       -3.50840
H         -3.86320        2.37930       -3.85110
H          2.85440       -5.45770        0.08080
H          5.70830       -2.31090        0.39570
H          4.26220       -0.09010       -1.68360
H          5.14970       -0.10030       -0.15800
H          3.43730        0.34230       -0.18820
H          5.78620       -4.57950        1.81110
H          4.98260       -5.93090        1.00240
H          6.25720       -5.02220        0.17500
H          0.72030       -5.08790       -0.79460
H          0.05510       -3.48630       -0.45180
H          0.66860       -3.85650       -2.06050
