A4T-23.sdf
  xtb     12202113143D
 energy: -210.075101701796 gnorm: 0.000436335872 xtb: 6.4.1 (unknown)
120129  0     0  0            999 V2000
   -2.8791    1.9851    6.4859 C   0  0  0  0  0  0  0  0  0  0  0  0
   -2.1833    1.8229    5.5001 O   0  0  0  0  0  0  0  0  0  0  0  0
   -2.4403    1.8551    7.8913 C   0  0  0  0  0  0  0  0  0  0  0  0
   -1.1884    1.5283    8.3722 C   0  0  0  0  0  0  0  0  0  0  0  0
   -1.0247    1.4677    9.7468 C   0  0  0  0  0  0  0  0  0  0  0  0
   -2.0952    1.7304   10.6016 C   0  0  0  0  0  0  0  0  0  0  0  0
   -3.3530    2.0588   10.1168 C   0  0  0  0  0  0  0  0  0  0  0  0
   -3.5254    2.1210    8.7430 C   0  0  0  0  0  0  0  0  0  0  0  0
   -4.7014    2.4303    7.9265 C   0  0  0  0  0  0  0  0  0  0  0  0
   -5.9432    2.7341    8.4210 C   0  0  0  0  0  0  0  0  0  0  0  0
   -6.2550    2.7911    9.7963 C   0  0  0  0  0  0  0  0  0  0  0  0
   -6.5765    2.8553   10.8962 N   0  0  0  0  0  0  0  0  0  0  0  0
   -7.0886    3.0314    7.6526 C   0  0  0  0  0  0  0  0  0  0  0  0
   -8.0677    3.2832    7.1070 N   0  0  0  0  0  0  0  0  0  0  0  0
   -4.2974    2.3447    6.5380 C   0  0  0  0  0  0  0  0  0  0  0  0
   -5.1061    2.5580    5.4470 C   0  0  0  0  0  0  0  0  0  0  0  0
   -4.8182    2.4790    4.0800 C   0  0  0  0  0  0  0  0  0  0  0  0
   -5.7883    2.6912    3.0979 C   0  0  0  0  0  0  0  0  0  0  0  0
   -5.3475    2.5564    1.7904 C   0  0  0  0  0  0  0  0  0  0  0  0
   -3.9877    2.2397    1.7468 C   0  0  0  0  0  0  0  0  0  0  0  0
   -3.2919    2.0946    3.3308 S   0  0  0  0  0  0  0  0  0  0  0  0
   -3.1230    1.9857    0.6381 C   0  0  0  0  0  0  0  0  0  0  0  0
    2.3878   -1.2921   -3.7172 C   0  0  0  0  0  0  0  0  0  0  0  0
    2.5274   -0.8066   -5.0273 C   0  0  0  0  0  0  0  0  0  0  0  0
    3.4315   -1.5586   -5.7543 C   0  0  0  0  0  0  0  0  0  0  0  0
    4.0032   -2.6308   -5.0631 C   0  0  0  0  0  0  0  0  0  0  0  0
    3.3917   -2.6818   -3.4306 S   0  0  0  0  0  0  0  0  0  0  0  0
    4.9244   -3.5014   -5.6516 C   0  0  0  0  0  0  0  0  0  0  0  0
    5.5705   -4.5975   -5.1251 C   0  0  0  0  0  0  0  0  0  0  0  0
    6.5066   -5.4493   -5.8275 C   0  0  0  0  0  0  0  0  0  0  0  0
    6.9384   -5.3327   -7.1242 C   0  0  0  0  0  0  0  0  0  0  0  0
    7.8572   -6.2133   -7.7333 C   0  0  0  0  0  0  0  0  0  0  0  0
    8.5979   -6.8924   -8.2881 N   0  0  0  0  0  0  0  0  0  0  0  0
    6.5438   -4.3357   -8.0405 C   0  0  0  0  0  0  0  0  0  0  0  0
    6.2811   -3.5634   -8.8496 N   0  0  0  0  0  0  0  0  0  0  0  0
    6.9337   -6.4951   -4.8939 C   0  0  0  0  0  0  0  0  0  0  0  0
    7.8055   -7.5619   -5.0433 C   0  0  0  0  0  0  0  0  0  0  0  0
    8.0073   -8.3964   -3.9530 C   0  0  0  0  0  0  0  0  0  0  0  0
    7.3601   -8.1843   -2.7362 C   0  0  0  0  0  0  0  0  0  0  0  0
    6.4856   -7.1210   -2.5789 C   0  0  0  0  0  0  0  0  0  0  0  0
    6.2877   -6.2914   -3.6638 C   0  0  0  0  0  0  0  0  0  0  0  0
    5.4156   -5.1014   -3.7598 C   0  0  0  0  0  0  0  0  0  0  0  0
    4.7190   -4.6563   -2.8660 O   0  0  0  0  0  0  0  0  0  0  0  0
    0.1716    1.1541   10.2590 F   0  0  0  0  0  0  0  0  0  0  0  0
    7.5845   -9.0154   -1.7100 F   0  0  0  0  0  0  0  0  0  0  0  0
   -1.9132    0.7432    0.8566 S   0  0  0  0  0  0  0  0  0  0  0  0
   -1.2868    1.0108   -0.7418 C   0  0  0  0  0  0  0  0  0  0  0  0
   -1.9780    2.0153   -1.3772 C   0  0  0  0  0  0  0  0  0  0  0  0
   -3.0079    2.5826   -0.6079 C   0  0  0  0  0  0  0  0  0  0  0  0
   -0.2019    0.2429   -1.2404 C   0  0  0  0  0  0  0  0  0  0  0  0
    0.5848   -0.6566   -0.5565 C   0  0  0  0  0  0  0  0  0  0  0  0
    1.5712   -1.2600   -1.3422 C   0  0  0  0  0  0  0  0  0  0  0  0
    1.5513   -0.8320   -2.6667 C   0  0  0  0  0  0  0  0  0  0  0  0
    0.2865    0.3535   -2.9019 S   0  0  0  0  0  0  0  0  0  0  0  0
    1.8623    0.4053   -5.6006 C   0  0  0  0  0  0  0  0  0  0  0  0
    2.5427    1.6875   -5.1170 C   0  0  0  0  0  0  0  0  0  0  0  0
   -6.2764    2.6040    0.6191 C   0  0  0  0  0  0  0  0  0  0  0  0
   -6.4825    1.2043    0.0377 C   0  0  0  0  0  0  0  0  0  0  0  0
   -3.7682    3.7489   -1.0846 C   0  0  0  0  0  0  0  0  0  0  0  0
   -3.7012    4.9647   -0.3926 C   0  0  0  0  0  0  0  0  0  0  0  0
   -4.4008    6.0568   -0.8817 C   0  0  0  0  0  0  0  0  0  0  0  0
   -5.1589    5.9807   -2.0415 C   0  0  0  0  0  0  0  0  0  0  0  0
   -5.1990    4.7744   -2.7227 C   0  0  0  0  0  0  0  0  0  0  0  0
   -4.5120    3.6588   -2.2671 C   0  0  0  0  0  0  0  0  0  0  0  0
   -2.8782    5.1278    0.8506 C   0  0  0  0  0  0  0  0  0  0  0  0
   -5.9190    7.1744   -2.5311 C   0  0  0  0  0  0  0  0  0  0  0  0
   -4.6030    2.3819   -3.0503 C   0  0  0  0  0  0  0  0  0  0  0  0
    2.5487   -2.2124   -0.7847 C   0  0  0  0  0  0  0  0  0  0  0  0
    2.1929   -3.5481   -0.5953 C   0  0  0  0  0  0  0  0  0  0  0  0
    3.1251   -4.4207   -0.0572 C   0  0  0  0  0  0  0  0  0  0  0  0
    4.3947   -3.9931    0.2956 C   0  0  0  0  0  0  0  0  0  0  0  0
    4.7225   -2.6557    0.1163 C   0  0  0  0  0  0  0  0  0  0  0  0
    3.8175   -1.7556   -0.4169 C   0  0  0  0  0  0  0  0  0  0  0  0
    4.1898   -0.3171   -0.6194 C   0  0  0  0  0  0  0  0  0  0  0  0
    5.4097   -4.9420    0.8554 C   0  0  0  0  0  0  0  0  0  0  0  0
    0.8298   -4.0258   -0.9960 C   0  0  0  0  0  0  0  0  0  0  0  0
   -1.9091    1.6650   11.9247 F   0  0  0  0  0  0  0  0  0  0  0  0
    8.8457   -9.4319   -4.0780 F   0  0  0  0  0  0  0  0  0  0  0  0
   -0.3644    1.3261    7.7068 H   0  0  0  0  0  0  0  0  0  0  0  0
   -4.1452    2.2521   10.8210 H   0  0  0  0  0  0  0  0  0  0  0  0
   -6.1366    2.8246    5.6477 H   0  0  0  0  0  0  0  0  0  0  0  0
   -6.8075    2.9240    3.3555 H   0  0  0  0  0  0  0  0  0  0  0  0
    3.6854   -1.3483   -6.7793 H   0  0  0  0  0  0  0  0  0  0  0  0
    5.1418   -3.2582   -6.6846 H   0  0  0  0  0  0  0  0  0  0  0  0
    8.3301   -7.7729   -5.9604 H   0  0  0  0  0  0  0  0  0  0  0  0
    5.9780   -6.9519   -1.6428 H   0  0  0  0  0  0  0  0  0  0  0  0
   -1.7233    2.3570   -2.3648 H   0  0  0  0  0  0  0  0  0  0  0  0
    0.4556   -0.8612    0.4922 H   0  0  0  0  0  0  0  0  0  0  0  0
    0.8050    0.4243   -5.3315 H   0  0  0  0  0  0  0  0  0  0  0  0
    1.9297    0.3546   -6.6886 H   0  0  0  0  0  0  0  0  0  0  0  0
    3.5890    1.6917   -5.4136 H   0  0  0  0  0  0  0  0  0  0  0  0
    2.0554    2.5566   -5.5508 H   0  0  0  0  0  0  0  0  0  0  0  0
    2.4916    1.7686   -4.0342 H   0  0  0  0  0  0  0  0  0  0  0  0
   -7.2365    3.0020    0.9511 H   0  0  0  0  0  0  0  0  0  0  0  0
   -5.8841    3.2636   -0.1535 H   0  0  0  0  0  0  0  0  0  0  0  0
   -6.9211    0.5437    0.7824 H   0  0  0  0  0  0  0  0  0  0  0  0
   -7.1471    1.2499   -0.8209 H   0  0  0  0  0  0  0  0  0  0  0  0
   -5.5333    0.7797   -0.2798 H   0  0  0  0  0  0  0  0  0  0  0  0
   -4.3479    6.9944   -0.3468 H   0  0  0  0  0  0  0  0  0  0  0  0
   -5.7779    4.6957   -3.6321 H   0  0  0  0  0  0  0  0  0  0  0  0
   -2.5384    6.1570    0.9410 H   0  0  0  0  0  0  0  0  0  0  0  0
   -3.4725    4.8940    1.7341 H   0  0  0  0  0  0  0  0  0  0  0  0
   -2.0101    4.4730    0.8447 H   0  0  0  0  0  0  0  0  0  0  0  0
   -5.3064    8.0716   -2.4697 H   0  0  0  0  0  0  0  0  0  0  0  0
   -6.2410    7.0369   -3.5601 H   0  0  0  0  0  0  0  0  0  0  0  0
   -6.8034    7.3325   -1.9135 H   0  0  0  0  0  0  0  0  0  0  0  0
   -4.4266    1.5119   -2.4240 H   0  0  0  0  0  0  0  0  0  0  0  0
   -5.5855    2.2913   -3.5084 H   0  0  0  0  0  0  0  0  0  0  0  0
   -3.8632    2.3793   -3.8511 H   0  0  0  0  0  0  0  0  0  0  0  0
    2.8544   -5.4577    0.0808 H   0  0  0  0  0  0  0  0  0  0  0  0
    5.7083   -2.3109    0.3957 H   0  0  0  0  0  0  0  0  0  0  0  0
    4.2622   -0.0901   -1.6836 H   0  0  0  0  0  0  0  0  0  0  0  0
    5.1497   -0.1003   -0.1580 H   0  0  0  0  0  0  0  0  0  0  0  0
    3.4373    0.3423   -0.1882 H   0  0  0  0  0  0  0  0  0  0  0  0
    5.7862   -4.5795    1.8111 H   0  0  0  0  0  0  0  0  0  0  0  0
    4.9826   -5.9309    1.0024 H   0  0  0  0  0  0  0  0  0  0  0  0
    6.2572   -5.0222    0.1750 H   0  0  0  0  0  0  0  0  0  0  0  0
    0.7203   -5.0879   -0.7946 H   0  0  0  0  0  0  0  0  0  0  0  0
    0.0551   -3.4863   -0.4518 H   0  0  0  0  0  0  0  0  0  0  0  0
    0.6686   -3.8565   -2.0605 H   0  0  0  0  0  0  0  0  0  0  0  0
  1  2  2  0  0  0  0
  1  3  1  0  0  0  0
  3  4  2  0  0  0  0
  4  5  1  0  0  0  0
  5  6  2  0  0  0  0
  6  7  1  0  0  0  0
  7  8  2  0  0  0  0
  3  8  1  0  0  0  0
  8  9  1  0  0  0  0
  9 10  2  0  0  0  0
 10 11  1  0  0  0  0
 11 12  3  0  0  0  0
 10 13  1  0  0  0  0
 13 14  3  0  0  0  0
  9 15  1  0  0  0  0
  1 15  1  0  0  0  0
 15 16  2  0  0  0  0
 16 17  1  0  0  0  0
 17 18  2  0  0  0  0
 18 19  1  0  0  0  0
 19 20  2  0  0  0  0
 20 21  1  0  0  0  0
 17 21  1  0  0  0  0
 20 22  1  0  0  0  0
 23 24  2  0  0  0  0
 24 25  1  0  0  0  0
 25 26  2  0  0  0  0
 26 27  1  0  0  0  0
 23 27  1  0  0  0  0
 26 28  1  0  0  0  0
 28 29  2  0  0  0  0
 29 30  1  0  0  0  0
 30 31  2  0  0  0  0
 31 32  1  0  0  0  0
 32 33  3  0  0  0  0
 31 34  1  0  0  0  0
 34 35  3  0  0  0  0
 30 36  1  0  0  0  0
 36 37  2  0  0  0  0
 37 38  1  0  0  0  0
 38 39  2  0  0  0  0
 39 40  1  0  0  0  0
 40 41  2  0  0  0  0
 36 41  1  0  0  0  0
 41 42  1  0  0  0  0
 29 42  1  0  0  0  0
 42 43  2  0  0  0  0
  5 44  1  0  0  0  0
 39 45  1  0  0  0  0
 22 46  1  0  0  0  0
 46 47  1  0  0  0  0
 47 48  2  0  0  0  0
 48 49  1  0  0  0  0
 49 22  2  0  0  0  0
 47 50  1  0  0  0  0
 50 51  2  0  0  0  0
 51 52  1  0  0  0  0
 52 53  2  0  0  0  0
 53 54  1  0  0  0  0
 54 50  1  0  0  0  0
 53 23  1  0  0  0  0
 24 55  1  0  0  0  0
 55 56  1  0  0  0  0
 19 57  1  0  0  0  0
 57 58  1  0  0  0  0
 49 59  1  0  0  0  0
 59 60  2  0  0  0  0
 60 61  1  0  0  0  0
 61 62  2  0  0  0  0
 62 63  1  0  0  0  0
 63 64  2  0  0  0  0
 64 59  1  0  0  0  0
 60 65  1  0  0  0  0
 62 66  1  0  0  0  0
 64 67  1  0  0  0  0
 52 68  1  0  0  0  0
 68 69  2  0  0  0  0
 69 70  1  0  0  0  0
 70 71  2  0  0  0  0
 71 72  1  0  0  0  0
 72 73  2  0  0  0  0
 73 68  1  0  0  0  0
 73 74  1  0  0  0  0
 71 75  1  0  0  0  0
 69 76  1  0  0  0  0
  6 77  1  0  0  0  0
 38 78  1  0  0  0  0
  4 79  1  0  0  0  0
  7 80  1  0  0  0  0
 16 81  1  0  0  0  0
 18 82  1  0  0  0  0
 25 83  1  0  0  0  0
 28 84  1  0  0  0  0
 37 85  1  0  0  0  0
 40 86  1  0  0  0  0
 48 87  1  0  0  0  0
 51 88  1  0  0  0  0
 55 89  1  0  0  0  0
 55 90  1  0  0  0  0
 56 91  1  0  0  0  0
 56 92  1  0  0  0  0
 56 93  1  0  0  0  0
 57 94  1  0  0  0  0
 57 95  1  0  0  0  0
 58 96  1  0  0  0  0
 58 97  1  0  0  0  0
 58 98  1  0  0  0  0
 61 99  1  0  0  0  0
 63100  1  0  0  0  0
 65101  1  0  0  0  0
 65102  1  0  0  0  0
 65103  1  0  0  0  0
 66104  1  0  0  0  0
 66105  1  0  0  0  0
 66106  1  0  0  0  0
 67107  1  0  0  0  0
 67108  1  0  0  0  0
 67109  1  0  0  0  0
 70110  1  0  0  0  0
 72111  1  0  0  0  0
 74112  1  0  0  0  0
 74113  1  0  0  0  0
 74114  1  0  0  0  0
 75115  1  0  0  0  0
 75116  1  0  0  0  0
 75117  1  0  0  0  0
 76118  1  0  0  0  0
 76119  1  0  0  0  0
 76120  1  0  0  0  0
M  END
