97
ABP4T-4F.mol
N          8.00010        7.96550       -8.87170
C          7.28320        7.55210       -8.07650
C          6.46620        6.98530       -7.07490
C          7.16250        5.95570       -6.40830
N          7.79750        5.13280       -5.91810
C          5.18430        7.39280       -6.80610
C          4.47980        8.46560       -7.51140
C          4.86910        9.28520       -8.55900
C          3.95840       10.22120       -9.02720
F          4.31500       11.01970      -10.03940
C          2.68520       10.34830       -8.47170
F          1.83890       11.26450       -8.95700
C          2.28840        9.53380       -7.42310
C          3.19530        8.60240       -6.95910
C          3.02340        7.61660       -5.87100
O          2.03050        7.47530       -5.18200
C          4.27830        6.86550       -5.80680
C          4.55240        5.81550       -4.96190
C          3.76470        5.18080       -3.99820
C          4.22310        4.06840       -3.26520
C          5.59370        3.47730       -3.32650
C          6.57200        4.27680       -2.46110
C          3.23440        3.59700       -2.41770
S          3.17190        2.24220       -1.31780
C          1.51620        2.63380       -0.94300
C          0.51320        2.07610       -0.14450
C         -0.68430        2.79930       -0.22770
C         -1.63270        2.10780        0.53770
C         -0.96920        0.97900        1.10050
N          0.34710        0.98850        0.66830
C          1.33520       -0.06670        0.68110
C          0.82700       -1.33020       -0.00730
C         -1.71380        0.07600        1.90050
C         -3.12740        0.20840        1.94100
C         -3.79530        1.31200        1.36760
N         -5.08850        1.59570        1.37860
S         -5.31110        3.00470        0.61590
N         -3.76820        3.30480        0.23430
C         -3.02160        2.31250        0.69330
C         -3.60910       -0.90120        2.64760
C         -2.50890       -1.67760        3.04220
N         -1.34620       -1.04640        2.63350
C         -0.12150       -1.17460        3.40320
C          0.25530        0.13140        4.09840
C         -2.86800       -2.89610        3.64720
C         -1.93260       -3.92320        4.21090
C         -0.99270       -4.51020        3.15670
C         -4.25510       -2.98760        3.74760
S         -5.10350       -1.56510        3.13180
C         -5.07450       -3.99330        4.31580
C         -4.95420       -5.34440        4.13660
C         -4.27610       -5.95860        2.97460
C         -4.68630       -7.38120        2.99270
C         -4.34990       -8.37720        2.09740
C         -4.87960       -9.63950        2.31110
F         -4.57370      -10.63650        1.47180
C         -5.72930       -9.88170        3.39110
F         -6.23230      -11.10840        3.56640
C         -6.07030       -8.88060        4.28850
C         -5.53880       -7.61690        4.08450
C         -5.69400       -6.37270        4.83460
C         -6.33740       -6.22640        6.03510
C         -6.34380       -5.02980        6.78360
N         -6.35460       -4.09840        7.45430
C         -7.02960       -7.26500        6.69150
N         -7.60900       -8.07520        7.26140
O         -3.62400       -5.40980        2.11360
C          1.05650        3.77160       -1.62290
S         -0.60300        4.17590       -1.27010
C          2.02850        4.31610       -2.46730
S          2.10130        5.61720       -3.58640
H          5.83910        9.22820       -9.02470
H          1.30510        9.62700       -6.99030
H          5.53760        5.38090       -5.06060
H          5.96230        3.44600       -4.35270
H          5.54220        2.45210       -2.95270
H          6.24120        4.28800       -1.42500
H          7.55840        3.82460       -2.50890
H          6.64690        5.30280       -2.81250
H          1.66160       -0.26920        1.70230
H          2.20350        0.31400        0.13800
H         -0.06610       -1.71550        0.47770
H          0.58330       -1.11440       -1.04480
H          1.59750       -2.09600        0.01400
H         -0.30430       -1.92740        4.16760
H          0.69710       -1.53550        2.77690
H          0.45190        0.92700        3.38480
H         -0.55350        0.45310        4.75090
H          1.14620       -0.02180        4.70210
H         -2.51910       -4.72900        4.65280
H         -1.34950       -3.47310        5.02200
H         -0.36920       -3.74480        2.70560
H         -1.57520       -4.97970        2.37020
H         -0.35070       -5.25980        3.61300
H         -5.92710       -3.62740        4.87730
H         -3.69790       -8.18630        1.26010
H         -6.73660       -9.11380        5.10280
