AOIC1.mol
  xtb     01102215533D
 energy: -291.978193809843 gnorm: 0.000577958027 xtb: 6.4.1 (unknown)
175192  0     0  0            999 V2000
   -2.1485   -0.1239   -0.7446 C   0  0  0  0  0  0  0  0  0  0  0  0
   -3.4602   -0.0963   -1.3091 C   0  0  0  0  0  0  0  0  0  0  0  0
   -4.7941   -1.1954   -1.3672 S   0  0  0  0  0  0  0  0  0  0  0  0
   -5.6822   -0.0354   -2.3176 C   0  0  0  0  0  0  0  0  0  0  0  0
   -4.9426    1.1474   -2.5492 C   0  0  0  0  0  0  0  0  0  0  0  0
   -5.8425    2.2628   -3.4905 S   0  0  0  0  0  0  0  0  0  0  0  0
   -7.2064    1.1328   -3.5817 C   0  0  0  0  0  0  0  0  0  0  0  0
   -8.3198    1.5884   -4.3030 C   0  0  0  0  0  0  0  0  0  0  0  0
   -9.5044    0.9830   -4.6450 C   0  0  0  0  0  0  0  0  0  0  0  0
  -10.5504    1.6504   -5.4012 C   0  0  0  0  0  0  0  0  0  0  0  0
  -11.5648    0.6508   -5.7360 C   0  0  0  0  0  0  0  0  0  0  0  0
  -12.7309    0.7356   -6.4815 C   0  0  0  0  0  0  0  0  0  0  0  0
  -13.5019   -0.4092   -6.6169 C   0  0  0  0  0  0  0  0  0  0  0  0
  -14.6281   -0.3490   -7.3368 F   0  0  0  0  0  0  0  0  0  0  0  0
  -13.1328   -1.6175   -6.0252 C   0  0  0  0  0  0  0  0  0  0  0  0
  -13.9092   -2.6969   -6.1815 F   0  0  0  0  0  0  0  0  0  0  0  0
  -11.9690   -1.7101   -5.2797 C   0  0  0  0  0  0  0  0  0  0  0  0
  -11.2004   -0.5705   -5.1493 C   0  0  0  0  0  0  0  0  0  0  0  0
   -9.9201   -0.4157   -4.4224 C   0  0  0  0  0  0  0  0  0  0  0  0
   -9.3646   -1.2940   -3.7957 O   0  0  0  0  0  0  0  0  0  0  0  0
  -10.6354    2.9813   -5.7180 C   0  0  0  0  0  0  0  0  0  0  0  0
  -11.6947    3.5494   -6.4585 C   0  0  0  0  0  0  0  0  0  0  0  0
  -12.5201    4.0757   -7.0576 N   0  0  0  0  0  0  0  0  0  0  0  0
   -9.7243    3.9932   -5.3453 C   0  0  0  0  0  0  0  0  0  0  0  0
   -9.0553    4.8877   -5.0768 N   0  0  0  0  0  0  0  0  0  0  0  0
   -6.9418   -0.0436   -2.8907 C   0  0  0  0  0  0  0  0  0  0  0  0
   -3.6759    1.0992   -1.9783 C   0  0  0  0  0  0  0  0  0  0  0  0
   -2.4808    2.0040   -1.8472 C   0  0  0  0  0  0  0  0  0  0  0  0
   -2.9384    3.2403   -1.0902 C   0  0  0  0  0  0  0  0  0  0  0  0
   -2.7349    3.3885    0.2733 C   0  0  0  0  0  0  0  0  0  0  0  0
   -3.2102    4.5090    0.9317 C   0  0  0  0  0  0  0  0  0  0  0  0
   -3.9051    5.4988    0.2508 C   0  0  0  0  0  0  0  0  0  0  0  0
   -4.1205    5.3354   -1.1123 C   0  0  0  0  0  0  0  0  0  0  0  0
   -3.6445    4.2220   -1.7757 C   0  0  0  0  0  0  0  0  0  0  0  0
   -4.4569    6.6920    0.9756 C   0  0  0  0  0  0  0  0  0  0  0  0
   -5.8857    6.4162    1.4486 C   0  0  0  0  0  0  0  0  0  0  0  0
   -1.8319    2.3672   -3.1690 C   0  0  0  0  0  0  0  0  0  0  0  0
   -1.0023    3.4785   -3.2509 C   0  0  0  0  0  0  0  0  0  0  0  0
   -0.3771    3.7996   -4.4401 C   0  0  0  0  0  0  0  0  0  0  0  0
   -0.5612    3.0218   -5.5762 C   0  0  0  0  0  0  0  0  0  0  0  0
    0.1526    3.3516   -6.8550 C   0  0  0  0  0  0  0  0  0  0  0  0
    1.5291    2.6840   -6.8837 C   0  0  0  0  0  0  0  0  0  0  0  0
   -1.3808    1.9054   -5.4849 C   0  0  0  0  0  0  0  0  0  0  0  0
   -2.0065    1.5774   -4.2961 C   0  0  0  0  0  0  0  0  0  0  0  0
   -1.5351    1.1126   -1.0618 C   0  0  0  0  0  0  0  0  0  0  0  0
   11.8842   -0.6694    2.5399 O   0  0  0  0  0  0  0  0  0  0  0  0
   11.3309    0.4063    2.5175 C   0  0  0  0  0  0  0  0  0  0  0  0
    9.9041    0.6898    2.7940 C   0  0  0  0  0  0  0  0  0  0  0  0
    9.7357    2.1207    2.8625 C   0  0  0  0  0  0  0  0  0  0  0  0
   10.9500    2.7259    2.3143 C   0  0  0  0  0  0  0  0  0  0  0  0
   11.9163    1.7182    2.1472 C   0  0  0  0  0  0  0  0  0  0  0  0
   13.1867    1.9977    1.6845 C   0  0  0  0  0  0  0  0  0  0  0  0
   13.4823    3.3154    1.3721 C   0  0  0  0  0  0  0  0  0  0  0  0
   14.7017    3.6301    0.9160 F   0  0  0  0  0  0  0  0  0  0  0  0
   12.5237    4.3174    1.5230 C   0  0  0  0  0  0  0  0  0  0  0  0
   12.8345    5.5776    1.1970 F   0  0  0  0  0  0  0  0  0  0  0  0
   11.2508    4.0403    2.0002 C   0  0  0  0  0  0  0  0  0  0  0  0
    8.7736    2.7889    3.5763 C   0  0  0  0  0  0  0  0  0  0  0  0
    8.7116    4.1911    3.6905 C   0  0  0  0  0  0  0  0  0  0  0  0
    8.6074    5.3294    3.7972 N   0  0  0  0  0  0  0  0  0  0  0  0
    7.8080    2.1275    4.3633 C   0  0  0  0  0  0  0  0  0  0  0  0
    7.0473    1.6169    5.0551 N   0  0  0  0  0  0  0  0  0  0  0  0
   -1.4835   -1.1133   -0.0245 C   0  0  0  0  0  0  0  0  0  0  0  0
   -0.1938   -0.8430    0.3663 C   0  0  0  0  0  0  0  0  0  0  0  0
    0.4306    0.3779    0.0212 C   0  0  0  0  0  0  0  0  0  0  0  0
   -0.2358    1.3702   -0.6943 C   0  0  0  0  0  0  0  0  0  0  0  0
    0.7656   -1.7542    1.1188 C   0  0  0  0  0  0  0  0  0  0  0  0
    1.9858   -0.8678    1.2267 C   0  0  0  0  0  0  0  0  0  0  0  0
    1.7551    0.3289    0.5475 C   0  0  0  0  0  0  0  0  0  0  0  0
    0.2817   -2.1236    2.5041 C   0  0  0  0  0  0  0  0  0  0  0  0
    0.7586   -3.2600    3.1422 C   0  0  0  0  0  0  0  0  0  0  0  0
    0.4025   -3.5332    4.4484 C   0  0  0  0  0  0  0  0  0  0  0  0
   -0.4369   -2.6815    5.1537 C   0  0  0  0  0  0  0  0  0  0  0  0
   -0.9260   -1.5556    4.5060 C   0  0  0  0  0  0  0  0  0  0  0  0
   -0.5675   -1.2736    3.2010 C   0  0  0  0  0  0  0  0  0  0  0  0
   -0.8328   -2.9957    6.5669 C   0  0  0  0  0  0  0  0  0  0  0  0
   -2.0189   -3.9617    6.5924 C   0  0  0  0  0  0  0  0  0  0  0  0
    0.9930   -2.9299    0.1805 C   0  0  0  0  0  0  0  0  0  0  0  0
    1.9017   -2.8226   -0.8638 C   0  0  0  0  0  0  0  0  0  0  0  0
    2.0159   -3.8200   -1.8126 C   0  0  0  0  0  0  0  0  0  0  0  0
    1.2257   -4.9599   -1.7517 C   0  0  0  0  0  0  0  0  0  0  0  0
    1.2857   -6.0259   -2.8131 C   0  0  0  0  0  0  0  0  0  0  0  0
    2.6978   -6.3623   -3.2862 C   0  0  0  0  0  0  0  0  0  0  0  0
    0.3237   -5.0667   -0.6997 C   0  0  0  0  0  0  0  0  0  0  0  0
    0.1969   -4.0652    0.2452 C   0  0  0  0  0  0  0  0  0  0  0  0
    3.6850   -1.7071    4.1103 C   0  0  0  0  0  0  0  0  0  0  0  0
    2.6160   -0.9236    4.5172 C   0  0  0  0  0  0  0  0  0  0  0  0
    2.2729   -0.8383    5.8538 C   0  0  0  0  0  0  0  0  0  0  0  0
    2.9909   -1.5211    6.8237 C   0  0  0  0  0  0  0  0  0  0  0  0
    4.0833   -2.2766    6.4180 C   0  0  0  0  0  0  0  0  0  0  0  0
    4.4303   -2.3635    5.0842 C   0  0  0  0  0  0  0  0  0  0  0  0
    2.6347   -1.3932    8.2759 C   0  0  0  0  0  0  0  0  0  0  0  0
    3.3147   -0.1645    8.8833 C   0  0  0  0  0  0  0  0  0  0  0  0
    4.1528   -3.2377    2.1158 C   0  0  0  0  0  0  0  0  0  0  0  0
    4.5775   -3.4374    0.8081 C   0  0  0  0  0  0  0  0  0  0  0  0
    4.6305   -4.7081    0.2668 C   0  0  0  0  0  0  0  0  0  0  0  0
    4.2766   -5.8183    1.0209 C   0  0  0  0  0  0  0  0  0  0  0  0
    4.3146   -7.2062    0.4490 C   0  0  0  0  0  0  0  0  0  0  0  0
    2.9064   -7.7905    0.3285 C   0  0  0  0  0  0  0  0  0  0  0  0
    3.8644   -5.6153    2.3310 C   0  0  0  0  0  0  0  0  0  0  0  0
    3.7947   -4.3453    2.8716 C   0  0  0  0  0  0  0  0  0  0  0  0
    3.2652   -0.9118    1.7688 C   0  0  0  0  0  0  0  0  0  0  0  0
    3.9949    0.2397    1.4323 C   0  0  0  0  0  0  0  0  0  0  0  0
    3.1066    1.4000    0.5138 S   0  0  0  0  0  0  0  0  0  0  0  0
    4.1021   -1.8185    2.6474 C   0  0  0  0  0  0  0  0  0  0  0  0
    5.4493   -1.1253    2.5520 C   0  0  0  0  0  0  0  0  0  0  0  0
    5.3146    0.1085    1.9008 C   0  0  0  0  0  0  0  0  0  0  0  0
    6.7469   -1.3798    2.9439 C   0  0  0  0  0  0  0  0  0  0  0  0
    7.6173   -0.3305    2.6462 C   0  0  0  0  0  0  0  0  0  0  0  0
    6.7817    0.9800    1.8168 S   0  0  0  0  0  0  0  0  0  0  0  0
    9.0055   -0.3410    2.8529 C   0  0  0  0  0  0  0  0  0  0  0  0
   -8.1927    2.6023   -4.6640 H   0  0  0  0  0  0  0  0  0  0  0  0
  -13.0615    1.6420   -6.9608 H   0  0  0  0  0  0  0  0  0  0  0  0
  -11.6770   -2.6409   -4.8203 H   0  0  0  0  0  0  0  0  0  0  0  0
   -7.6449   -0.8532   -2.8275 H   0  0  0  0  0  0  0  0  0  0  0  0
   -2.1997    2.6307    0.8268 H   0  0  0  0  0  0  0  0  0  0  0  0
   -3.0353    4.6141    1.9930 H   0  0  0  0  0  0  0  0  0  0  0  0
   -4.6652    6.0891   -1.6618 H   0  0  0  0  0  0  0  0  0  0  0  0
   -3.8130    4.1163   -2.8377 H   0  0  0  0  0  0  0  0  0  0  0  0
   -4.4601    7.5583    0.3114 H   0  0  0  0  0  0  0  0  0  0  0  0
   -3.8300    6.9243    1.8388 H   0  0  0  0  0  0  0  0  0  0  0  0
   -6.5293    6.1966    0.5998 H   0  0  0  0  0  0  0  0  0  0  0  0
   -6.2855    7.2805    1.9733 H   0  0  0  0  0  0  0  0  0  0  0  0
   -5.9035    5.5618    2.1217 H   0  0  0  0  0  0  0  0  0  0  0  0
   -0.8576    4.1050   -2.3826 H   0  0  0  0  0  0  0  0  0  0  0  0
    0.2595    4.6714   -4.4883 H   0  0  0  0  0  0  0  0  0  0  0  0
   -0.4341    3.0043   -7.7075 H   0  0  0  0  0  0  0  0  0  0  0  0
    0.2756    4.4329   -6.9420 H   0  0  0  0  0  0  0  0  0  0  0  0
    2.0474    2.9207   -7.8098 H   0  0  0  0  0  0  0  0  0  0  0  0
    1.4270    1.6036   -6.8082 H   0  0  0  0  0  0  0  0  0  0  0  0
    2.1344    3.0289   -6.0484 H   0  0  0  0  0  0  0  0  0  0  0  0
   -1.5355    1.2842   -6.3556 H   0  0  0  0  0  0  0  0  0  0  0  0
   -2.6362    0.7004   -4.2502 H   0  0  0  0  0  0  0  0  0  0  0  0
   13.9278    1.2233    1.5678 H   0  0  0  0  0  0  0  0  0  0  0  0
   10.5398    4.8444    2.0999 H   0  0  0  0  0  0  0  0  0  0  0  0
   -1.9678   -2.0480    0.2126 H   0  0  0  0  0  0  0  0  0  0  0  0
    0.2550    2.2982   -0.9435 H   0  0  0  0  0  0  0  0  0  0  0  0
    1.4185   -3.9288    2.6121 H   0  0  0  0  0  0  0  0  0  0  0  0
    0.7927   -4.4169    4.9329 H   0  0  0  0  0  0  0  0  0  0  0  0
   -1.5867   -0.8813    5.0326 H   0  0  0  0  0  0  0  0  0  0  0  0
   -0.9454   -0.3798    2.7247 H   0  0  0  0  0  0  0  0  0  0  0  0
   -1.1078   -2.0763    7.0875 H   0  0  0  0  0  0  0  0  0  0  0  0
    0.0124   -3.4464    7.0914 H   0  0  0  0  0  0  0  0  0  0  0  0
   -2.3029   -4.1897    7.6170 H   0  0  0  0  0  0  0  0  0  0  0  0
   -1.7616   -4.8905    6.0883 H   0  0  0  0  0  0  0  0  0  0  0  0
   -2.8747   -3.5229    6.0841 H   0  0  0  0  0  0  0  0  0  0  0  0
    2.5165   -1.9397   -0.9557 H   0  0  0  0  0  0  0  0  0  0  0  0
    2.7201   -3.6919   -2.6200 H   0  0  0  0  0  0  0  0  0  0  0  0
    0.8089   -6.9322   -2.4323 H   0  0  0  0  0  0  0  0  0  0  0  0
    0.6961   -5.6884   -3.6721 H   0  0  0  0  0  0  0  0  0  0  0  0
    2.6692   -7.2183   -3.9565 H   0  0  0  0  0  0  0  0  0  0  0  0
    3.1433   -5.5300   -3.8247 H   0  0  0  0  0  0  0  0  0  0  0  0
    3.3344   -6.6077   -2.4404 H   0  0  0  0  0  0  0  0  0  0  0  0
   -0.3091   -5.9406   -0.6275 H   0  0  0  0  0  0  0  0  0  0  0  0
   -0.5338   -4.1692    1.0338 H   0  0  0  0  0  0  0  0  0  0  0  0
    2.0328   -0.3731    3.7965 H   0  0  0  0  0  0  0  0  0  0  0  0
    1.4291   -0.2290    6.1427 H   0  0  0  0  0  0  0  0  0  0  0  0
    4.6730   -2.8021    7.1556 H   0  0  0  0  0  0  0  0  0  0  0  0
    5.2877   -2.9538    4.7983 H   0  0  0  0  0  0  0  0  0  0  0  0
    2.9539   -2.2862    8.8172 H   0  0  0  0  0  0  0  0  0  0  0  0
    1.5523   -1.2956    8.3827 H   0  0  0  0  0  0  0  0  0  0  0  0
    2.9962    0.7375    8.3662 H   0  0  0  0  0  0  0  0  0  0  0  0
    4.3950   -0.2455    8.7897 H   0  0  0  0  0  0  0  0  0  0  0  0
    3.0616   -0.0707    9.9367 H   0  0  0  0  0  0  0  0  0  0  0  0
    4.8729   -2.5879    0.2084 H   0  0  0  0  0  0  0  0  0  0  0  0
    4.9583   -4.8366   -0.7546 H   0  0  0  0  0  0  0  0  0  0  0  0
    4.9158   -7.8511    1.0953 H   0  0  0  0  0  0  0  0  0  0  0  0
    4.7882   -7.1850   -0.5345 H   0  0  0  0  0  0  0  0  0  0  0  0
    2.9395   -8.7636   -0.1561 H   0  0  0  0  0  0  0  0  0  0  0  0
    2.4555   -7.9101    1.3105 H   0  0  0  0  0  0  0  0  0  0  0  0
    2.2734   -7.1266   -0.2546 H   0  0  0  0  0  0  0  0  0  0  0  0
    3.5941   -6.4638    2.9429 H   0  0  0  0  0  0  0  0  0  0  0  0
    3.4601   -4.2233    3.8901 H   0  0  0  0  0  0  0  0  0  0  0  0
    7.0901   -2.2726    3.4338 H   0  0  0  0  0  0  0  0  0  0  0  0
    9.4473   -1.3241    2.9874 H   0  0  0  0  0  0  0  0  0  0  0  0
  1  2  1  0  0  0  0
  2  3  1  0  0  0  0
  3  4  1  0  0  0  0
  4  5  2  0  0  0  0
  5  6  1  0  0  0  0
  6  7  1  0  0  0  0
  7  8  1  0  0  0  0
  8  9  2  0  0  0  0
  9 10  1  0  0  0  0
 10 11  1  0  0  0  0
 11 12  1  0  0  0  0
 12 13  2  0  0  0  0
 13 14  1  0  0  0  0
 13 15  1  0  0  0  0
 15 16  1  0  0  0  0
 15 17  2  0  0  0  0
 11 18  2  0  0  0  0
 17 18  1  0  0  0  0
 18 19  1  0  0  0  0
  9 19  1  0  0  0  0
 19 20  2  0  0  0  0
 10 21  2  0  0  0  0
 21 22  1  0  0  0  0
 22 23  3  0  0  0  0
 21 24  1  0  0  0  0
 24 25  3  0  0  0  0
  7 26  2  0  0  0  0
  4 26  1  0  0  0  0
  2 27  2  0  0  0  0
  5 27  1  0  0  0  0
 27 28  1  0  0  0  0
 28 29  1  0  0  0  0
 29 30  2  0  0  0  0
 30 31  1  0  0  0  0
 31 32  2  0  0  0  0
 32 33  1  0  0  0  0
 33 34  2  0  0  0  0
 29 34  1  0  0  0  0
 32 35  1  0  0  0  0
 35 36  1  0  0  0  0
 28 37  1  0  0  0  0
 37 38  2  0  0  0  0
 38 39  1  0  0  0  0
 39 40  2  0  0  0  0
 40 41  1  0  0  0  0
 41 42  1  0  0  0  0
 40 43  1  0  0  0  0
 43 44  2  0  0  0  0
 37 44  1  0  0  0  0
 28 45  1  0  0  0  0
  1 45  2  0  0  0  0
 46 47  2  0  0  0  0
 47 48  1  0  0  0  0
 48 49  1  0  0  0  0
 49 50  1  0  0  0  0
 50 51  2  0  0  0  0
 47 51  1  0  0  0  0
 51 52  1  0  0  0  0
 52 53  2  0  0  0  0
 53 54  1  0  0  0  0
 53 55  1  0  0  0  0
 55 56  1  0  0  0  0
 55 57  2  0  0  0  0
 50 57  1  0  0  0  0
 49 58  2  0  0  0  0
 58 59  1  0  0  0  0
 59 60  3  0  0  0  0
 58 61  1  0  0  0  0
 61 62  3  0  0  0  0
  1 63  1  0  0  0  0
 63 64  2  0  0  0  0
 64 65  1  0  0  0  0
 65 66  2  0  0  0  0
 66 45  1  0  0  0  0
 64 67  1  0  0  0  0
 67 68  1  0  0  0  0
 68 69  2  0  0  0  0
 69 65  1  0  0  0  0
 70 71  2  0  0  0  0
 71 72  1  0  0  0  0
 72 73  2  0  0  0  0
 73 74  1  0  0  0  0
 74 75  2  0  0  0  0
 70 75  1  0  0  0  0
 73 76  1  0  0  0  0
 76 77  1  0  0  0  0
 78 79  2  0  0  0  0
 79 80  1  0  0  0  0
 80 81  2  0  0  0  0
 81 82  1  0  0  0  0
 82 83  1  0  0  0  0
 81 84  1  0  0  0  0
 84 85  2  0  0  0  0
 78 85  1  0  0  0  0
 86 87  2  0  0  0  0
 87 88  1  0  0  0  0
 88 89  2  0  0  0  0
 89 90  1  0  0  0  0
 90 91  2  0  0  0  0
 86 91  1  0  0  0  0
 89 92  1  0  0  0  0
 92 93  1  0  0  0  0
 94 95  2  0  0  0  0
 95 96  1  0  0  0  0
 96 97  2  0  0  0  0
 97 98  1  0  0  0  0
 98 99  1  0  0  0  0
 97100  1  0  0  0  0
100101  2  0  0  0  0
 94101  1  0  0  0  0
 67 78  1  0  0  0  0
 70 67  1  0  0  0  0
 68102  1  0  0  0  0
102103  2  0  0  0  0
103104  1  0  0  0  0
104 69  1  0  0  0  0
102105  1  0  0  0  0
105106  1  0  0  0  0
106107  2  0  0  0  0
107103  1  0  0  0  0
105 94  1  0  0  0  0
105 86  1  0  0  0  0
106108  1  0  0  0  0
108109  2  0  0  0  0
109110  1  0  0  0  0
110107  1  0  0  0  0
109111  1  0  0  0  0
111 48  2  0  0  0  0
  8112  1  0  0  0  0
 12113  1  0  0  0  0
 17114  1  0  0  0  0
 26115  1  0  0  0  0
 30116  1  0  0  0  0
 31117  1  0  0  0  0
 33118  1  0  0  0  0
 34119  1  0  0  0  0
 35120  1  0  0  0  0
 35121  1  0  0  0  0
 36122  1  0  0  0  0
 36123  1  0  0  0  0
 36124  1  0  0  0  0
 38125  1  0  0  0  0
 39126  1  0  0  0  0
 41127  1  0  0  0  0
 41128  1  0  0  0  0
 42129  1  0  0  0  0
 42130  1  0  0  0  0
 42131  1  0  0  0  0
 43132  1  0  0  0  0
 44133  1  0  0  0  0
 52134  1  0  0  0  0
 57135  1  0  0  0  0
 63136  1  0  0  0  0
 66137  1  0  0  0  0
 71138  1  0  0  0  0
 72139  1  0  0  0  0
 74140  1  0  0  0  0
 75141  1  0  0  0  0
 76142  1  0  0  0  0
 76143  1  0  0  0  0
 77144  1  0  0  0  0
 77145  1  0  0  0  0
 77146  1  0  0  0  0
 79147  1  0  0  0  0
 80148  1  0  0  0  0
 82149  1  0  0  0  0
 82150  1  0  0  0  0
 83151  1  0  0  0  0
 83152  1  0  0  0  0
 83153  1  0  0  0  0
 84154  1  0  0  0  0
 85155  1  0  0  0  0
 87156  1  0  0  0  0
 88157  1  0  0  0  0
 90158  1  0  0  0  0
 91159  1  0  0  0  0
 92160  1  0  0  0  0
 92161  1  0  0  0  0
 93162  1  0  0  0  0
 93163  1  0  0  0  0
 93164  1  0  0  0  0
 95165  1  0  0  0  0
 96166  1  0  0  0  0
 98167  1  0  0  0  0
 98168  1  0  0  0  0
 99169  1  0  0  0  0
 99170  1  0  0  0  0
 99171  1  0  0  0  0
100172  1  0  0  0  0
101173  1  0  0  0  0
108174  1  0  0  0  0
111175  1  0  0  0  0
M  END
