175
AOIC2.mol
O         -4.63520        7.24630        0.83960
C         -4.50680        8.45400        0.75550
C         -3.26640        9.22780        0.68510
C         -3.60260       10.63340        0.59810
C         -5.06400       10.73500        0.60930
C         -5.60570        9.44230        0.70160
C         -6.96650        9.21350        0.72930
C         -5.90870       11.83160        0.54360
C         -7.27690       11.60310        0.57060
F         -8.10860       12.64950        0.50640
C         -7.80410       10.31530        0.66170
F         -9.13170       10.14160        0.68360
C         -2.74360       11.69910        0.51320
C         -1.33490       11.62870        0.49520
N         -0.18690       11.66610        0.47710
C         -3.15940       13.04470        0.42550
N         -3.42800       14.15820        0.35240
C         -1.99190        8.70810        0.68700
C         -1.54340        7.38650        0.74430
C         -0.17480        7.06910        0.69810
C          0.05390        5.71420        0.73110
C         -1.12890        4.97210        0.82450
C         -0.83420        3.57580        0.82910
C          0.57250        3.44020        0.74300
C          1.25200        4.79900        0.72820
C          2.04370        5.09510        1.99100
C          2.87300        6.21020        2.02050
C          3.56500        6.53980        3.16900
C          3.44180        5.77170        4.32050
C          4.23030        6.10640        5.55330
C          5.59220        5.40960        5.52140
C          2.60700        4.66370        4.28700
C          1.90950        4.32960        3.13960
C          2.11420        4.89940       -0.51470
C          1.59910        5.38250       -1.70900
C          2.38560        5.42530       -2.84590
C          3.70040        4.98140       -2.82190
C          4.54280        4.98660       -4.06470
C          4.47520        3.62600       -4.76130
C          4.20680        4.48520       -1.62710
C          3.42610        4.44190       -0.48840
C          1.15750        2.19980        0.64500
C          0.31020        1.09490        0.65330
C         -1.09430        1.22690        0.78020
C         -1.76690       -0.13610        0.79390
C         -0.57880       -1.04030        0.60320
C          0.58920       -0.29980        0.52790
S          2.01240       -1.24650        0.25140
C          1.02940       -2.67830        0.21780
C         -0.33980       -2.40080        0.42640
S         -1.32440       -3.82940        0.39120
C          0.09460       -4.77800        0.08860
C          1.27350       -4.03250        0.02980
C          2.45780       -4.91030       -0.29270
C          3.51140       -4.96650        0.79690
C          3.27650       -4.47720        2.07260
C          4.25530       -4.56670        3.04630
C          5.48160       -5.15640        2.77490
C          6.56060       -5.20910        3.81730
C          7.46970       -3.98330        3.70560
C          5.70620       -5.65540        1.49730
C          4.73510       -5.56390        0.52010
C          3.05020       -4.41760       -1.60270
C          2.70000       -4.97830       -2.82170
C          3.22480       -4.47410       -3.99820
C          4.09460       -3.39260       -3.98790
C          4.69890       -2.87690       -5.26160
C          6.04100       -3.56160       -5.52870
C          4.43120       -2.82810       -2.76370
C          3.91680       -3.33160       -1.58520
C          1.77330       -6.25490       -0.39220
C          0.38910       -6.13500       -0.15540
S         -0.45090       -7.61960       -0.25410
C          1.06080       -8.44420       -0.63210
C          1.22480       -9.79770       -0.92560
C          0.30460      -10.82160       -0.98990
C          0.59080      -12.19240       -1.35090
C         -0.66740      -12.93860       -1.26620
C         -0.96150      -14.27180       -1.50260
C         -2.27440      -14.68900       -1.33590
C         -3.28000      -13.80690       -0.94270
F         -4.53360      -14.25380       -0.79270
C         -2.99460      -12.47150       -0.70620
F         -2.57810      -15.97320       -1.55970
C         -1.68870      -12.05780       -0.87320
C         -1.12190      -10.70380       -0.69250
O         -1.73910       -9.70790       -0.35900
C          1.79700      -12.72920       -1.72430
C          3.01580      -12.02800       -1.83260
N          4.04730      -11.53680       -1.95560
C          1.98830      -14.08460       -2.06540
N          2.21730      -15.17190       -2.35400
C          2.14680       -7.54860       -0.64970
C         -2.44820       -0.30980        2.14030
C         -3.73240        0.18350        2.33360
C         -4.35110        0.06490        3.56320
C         -3.70470       -0.54160        4.63260
C         -4.39900       -0.72030        5.95150
C         -5.12560       -2.06640        5.99160
C         -2.41790       -1.02360        4.43650
C         -1.79310       -0.90520        3.20860
C         -2.72770       -0.37580       -0.35580
C         -3.59030       -1.46410       -0.29960
C         -4.44370       -1.73710       -1.35050
C         -4.45580       -0.93550       -2.48520
C         -3.58300        0.14230       -2.54040
C         -2.72140        0.41740       -1.49350
C         -5.42600       -1.19900       -3.59990
C         -6.74190       -0.46130       -3.34380
C         -1.67890        2.46700        0.87100
S         -2.53670        5.93680        0.85470
H         -7.36850        8.21550        0.80000
H         -5.55480       12.84680        0.47210
H         -1.18090        9.42360        0.62450
H          0.58210        7.82990        0.63030
H          2.98260        6.81740        1.13360
H          4.20610        7.40950        3.17410
H          3.68280        5.78640        6.44210
H          4.38040        7.18610        5.61420
H          6.16910        5.66090        6.40820
H          6.15390        5.71800        4.64250
H          5.46410        4.33010        5.48410
H          2.49350        4.05450        5.17240
H          1.25850        3.46740        3.14350
H          0.57780        5.73230       -1.75340
H          1.97010        5.81270       -3.76520
H          5.58080        5.20660       -3.80660
H          4.18970        5.76000       -4.74930
H          3.44980        3.39540       -5.04190
H          4.83120        2.84210       -4.09650
H          5.08960        3.62700       -5.65850
H          5.22760        4.13250       -1.58680
H          3.84330        4.06330        0.43370
H          2.22580        2.07640        0.55600
H          2.32690       -4.02160        2.31260
H          4.05890       -4.17430        4.03390
H          7.15850       -6.11290        3.68510
H          6.11400       -5.23690        4.81310
H          6.89470       -3.07130        3.85030
H          7.93150       -3.94340        2.72160
H          8.25490       -4.02230        4.45670
H          6.65250       -6.12280        1.26640
H          4.92850       -5.94870       -0.47060
H          2.01780       -5.81470       -2.85810
H          2.94820       -4.92780       -4.93910
H          4.02360       -3.06960       -6.09740
H          4.85330       -1.79840       -5.18760
H          6.73120       -3.37390       -4.70930
H          5.90490       -4.63670       -5.62140
H          6.48300       -3.18680       -6.44880
H          5.10230       -1.98180       -2.73260
H          4.19360       -2.88350       -0.64180
H          2.25250      -10.06010       -1.14540
H         -0.22290      -14.99450       -1.80770
H         -3.76900      -11.78500       -0.40320
H          3.14820       -7.87870       -0.86110
H         -4.25680        0.65030        1.51270
H         -5.35180        0.45100        3.69450
H         -5.12190        0.08380        6.10200
H         -3.66950       -0.68100        6.76300
H         -4.41950       -2.88190        5.85220
H         -5.62700       -2.20010        6.94720
H         -5.86850       -2.11870        5.19880
H         -1.89500       -1.49620        5.25580
H         -0.78820       -1.28250        3.08500
H         -3.59850       -2.09570        0.57710
H         -5.10820       -2.58680       -1.28920
H         -3.57170        0.77520       -3.41630
H         -2.04450        1.25630       -1.56520
H         -5.00280       -0.86180       -4.54820
H         -5.62270       -2.27030       -3.67410
H         -6.56890        0.61090       -3.28330
H         -7.44930       -0.65460       -4.14660
H         -7.18280       -0.79000       -2.40530
H         -2.74710        2.59320        0.95240
