91
AOT1.mol
O          4.33350        0.97810        3.59350
C          4.42320        0.88340        4.80540
C          3.62480        0.05550        5.70660
C          4.13280        0.21030        7.05190
C          5.21640        1.19540        6.99750
C          5.39560        1.59510        5.66270
C          6.34930        2.52200        5.29320
C          6.01300        1.74030        7.99180
C          6.97020        2.67420        7.62190
F          7.74660        3.21450        8.56840
C          7.14080        3.06290        6.29370
F          8.07680        3.96870        5.98150
C          3.71580       -0.43870        8.18550
C          2.70070       -1.41670        8.25430
N          1.90050       -2.22600        8.40900
C          4.27050       -0.22560        9.46530
N          4.67590       -0.09820       10.53160
C          2.54350       -0.71290        5.33700
C          1.95190       -0.88660        4.08810
C          0.79630       -1.69700        3.93100
O          0.29000       -2.29660        5.01260
C         -0.80300       -3.19150        4.86560
C         -0.36880       -4.54100        4.30670
C          0.32710       -1.72530        2.62260
C          1.10130       -0.95710        1.76630
C          0.84650       -0.74200        0.38960
S         -0.60470       -1.30040       -0.37730
C          1.64890       -0.03680       -0.49940
O          2.85270        0.48550       -0.11600
C          3.96050       -0.41520       -0.17490
C          4.45330       -0.65440       -1.59630
C          1.07030        0.09110       -1.78460
O          1.60450        0.73070       -2.85290
C          2.18920        2.01310       -2.61790
C          1.12950        3.05450       -2.28330
C         -0.16840       -0.54240       -1.87650
C         -1.05480       -0.58030       -2.98210
C         -0.77690       -0.19350       -4.28450
C         -1.88470       -0.30820       -5.11770
O         -1.98460       -0.00460       -6.41650
C         -0.82070        0.37940       -7.13280
C          0.06740       -0.81260       -7.46790
C         -3.04260       -0.78920       -4.45130
C         -4.25060       -0.94770       -5.12510
C         -5.48000       -1.35450       -4.65530
C         -6.69300       -1.46220       -5.43440
C         -7.76650       -1.85470       -4.51710
C         -7.22590       -2.00790       -3.22940
C         -7.99730       -2.37450       -2.14520
C         -9.34870       -2.59060       -2.36250
F        -10.13630       -2.94610       -1.33910
C         -9.89580       -2.44010       -3.63620
F        -11.20460       -2.65290       -3.81750
C         -9.11880       -2.07320       -4.72580
C         -6.84580       -1.25520       -6.78150
C         -5.82230       -0.90320       -7.68670
N         -5.05890       -0.62350       -8.49830
C         -8.07400       -1.38010       -7.46460
N         -9.04010       -1.46170       -8.07930
C         -5.77760       -1.71190       -3.27040
O         -5.00920       -1.76240       -2.32570
S         -2.69490       -1.09730       -2.76860
S          2.42940       -0.18380        2.56210
H          6.47600        2.82080        4.26490
H          5.92180        1.47620        9.03240
H          2.03550       -1.26480        6.11880
H         -1.18550       -3.31130        5.88180
H         -1.58310       -2.73920        4.24290
H          0.39590       -4.97450        4.94610
H          0.03600       -4.43600        3.30280
H         -1.22210       -5.21180        4.27320
H         -0.53730       -2.26290        2.27640
H          3.68800       -1.36910        0.29230
H          4.72840        0.06750        0.43210
H          5.28820       -1.34920       -1.57390
H          4.78520        0.27620       -2.04960
H          3.66280       -1.07960       -2.21180
H          2.68820        2.25330       -3.55960
H          2.92820        1.96030       -1.81510
H          1.59420        4.03260       -2.20020
H          0.36830        3.08740       -3.05980
H          0.65160        2.81350       -1.33600
H          0.19690        0.14700       -4.58070
H         -0.26420        1.13960       -6.57280
H         -1.20980        0.82800       -8.04980
H         -0.50170       -1.54760       -8.03130
H          0.44430       -1.28400       -6.56320
H          0.90880       -0.48160       -8.06970
H         -4.17950       -0.68620       -6.17400
H         -7.56920       -2.48860       -1.16220
H         -9.59200       -1.97000       -5.68820
