AQx.sdf
  xtb     12202113163D
 energy: -199.626487553932 gnorm: 0.000436539200 xtb: 6.4.1 (unknown)
106117  0     0  0            999 V2000
    1.8727    6.8093   -2.7204 C   0  0  0  0  0  0  0  0  0  0  0  0
    2.0449    5.6805   -2.2941 O   0  0  0  0  0  0  0  0  0  0  0  0
    2.9338    7.7428   -3.1545 C   0  0  0  0  0  0  0  0  0  0  0  0
    4.3000    7.5469   -3.1591 C   0  0  0  0  0  0  0  0  0  0  0  0
    5.0957    8.5846   -3.6180 C   0  0  0  0  0  0  0  0  0  0  0  0
    6.4266    8.4394   -3.6393 F   0  0  0  0  0  0  0  0  0  0  0  0
    4.5228    9.7776   -4.0572 C   0  0  0  0  0  0  0  0  0  0  0  0
    5.3145   10.7633   -4.4950 F   0  0  0  0  0  0  0  0  0  0  0  0
    3.1490    9.9729   -4.0527 C   0  0  0  0  0  0  0  0  0  0  0  0
    2.3463    8.9405   -3.5945 C   0  0  0  0  0  0  0  0  0  0  0  0
    0.8920    8.8277   -3.4604 C   0  0  0  0  0  0  0  0  0  0  0  0
   -0.0058    9.8060   -3.8058 C   0  0  0  0  0  0  0  0  0  0  0  0
    0.3579   11.0595   -4.3419 C   0  0  0  0  0  0  0  0  0  0  0  0
    0.5836   12.0956   -4.7810 N   0  0  0  0  0  0  0  0  0  0  0  0
   -1.4086    9.7198   -3.6877 C   0  0  0  0  0  0  0  0  0  0  0  0
   -2.5560    9.7321   -3.6239 N   0  0  0  0  0  0  0  0  0  0  0  0
    0.6091    7.5172   -2.9150 C   0  0  0  0  0  0  0  0  0  0  0  0
   -0.6484    7.0322   -2.6293 C   0  0  0  0  0  0  0  0  0  0  0  0
   -1.0643    5.8057   -2.1134 C   0  0  0  0  0  0  0  0  0  0  0  0
    0.0072    4.4669   -1.6901 S   0  0  0  0  0  0  0  0  0  0  0  0
   -1.3475    3.5176   -1.2109 C   0  0  0  0  0  0  0  0  0  0  0  0
   -2.5618    4.2153   -1.3653 C   0  0  0  0  0  0  0  0  0  0  0  0
   -2.4188    5.4950   -1.8771 C   0  0  0  0  0  0  0  0  0  0  0  0
   -3.5730    6.4199   -2.0824 C   0  0  0  0  0  0  0  0  0  0  0  0
   -3.7435    7.3528   -0.8799 C   0  0  0  0  0  0  0  0  0  0  0  0
   -3.9702    3.2902   -0.8777 S   0  0  0  0  0  0  0  0  0  0  0  0
   -2.9256    1.9751   -0.4748 C   0  0  0  0  0  0  0  0  0  0  0  0
   -1.5684    2.2331   -0.7116 C   0  0  0  0  0  0  0  0  0  0  0  0
   -0.8189    1.1458   -0.3473 N   0  0  0  0  0  0  0  0  0  0  0  0
    0.6138    1.2793   -0.2080 C   0  0  0  0  0  0  0  0  0  0  0  0
    1.3401    1.1533   -1.5457 C   0  0  0  0  0  0  0  0  0  0  0  0
   -1.6830    0.1726    0.1128 C   0  0  0  0  0  0  0  0  0  0  0  0
   -3.0114    0.6904    0.0750 C   0  0  0  0  0  0  0  0  0  0  0  0
   -4.1382    0.0095    0.6059 C   0  0  0  0  0  0  0  0  0  0  0  0
   -5.3586    0.5561    0.5582 N   0  0  0  0  0  0  0  0  0  0  0  0
   -6.3503   -0.1021    1.1208 C   0  0  0  0  0  0  0  0  0  0  0  0
   -7.7034    0.5234    1.0528 C   0  0  0  0  0  0  0  0  0  0  0  0
   -6.1347   -1.3472    1.7647 C   0  0  0  0  0  0  0  0  0  0  0  0
   -7.2478   -2.0948    2.4196 C   0  0  0  0  0  0  0  0  0  0  0  0
   -4.9389   -1.8964    1.8062 N   0  0  0  0  0  0  0  0  0  0  0  0
   -3.9275   -1.2386    1.2273 C   0  0  0  0  0  0  0  0  0  0  0  0
   -2.6244   -1.8003    1.1737 C   0  0  0  0  0  0  0  0  0  0  0  0
   -1.5077   -1.1570    0.5637 C   0  0  0  0  0  0  0  0  0  0  0  0
   -0.4330   -2.0302    0.5714 N   0  0  0  0  0  0  0  0  0  0  0  0
    0.7242   -2.0892   -0.2957 C   0  0  0  0  0  0  0  0  0  0  0  0
    0.3248   -2.5134   -1.7072 C   0  0  0  0  0  0  0  0  0  0  0  0
   -0.8521   -3.1912    1.1692 C   0  0  0  0  0  0  0  0  0  0  0  0
   -2.1871   -3.0694    1.5749 C   0  0  0  0  0  0  0  0  0  0  0  0
   -2.8177   -4.4832    2.3421 S   0  0  0  0  0  0  0  0  0  0  0  0
   -1.2693   -5.2700    2.0909 C   0  0  0  0  0  0  0  0  0  0  0  0
   -0.3200   -4.4508    1.4492 C   0  0  0  0  0  0  0  0  0  0  0  0
    1.1735   -5.2681    1.1941 S   0  0  0  0  0  0  0  0  0  0  0  0
    0.5202   -6.7235    1.9531 C   0  0  0  0  0  0  0  0  0  0  0  0
   -0.8119   -6.5462    2.3790 C   0  0  0  0  0  0  0  0  0  0  0  0
   -1.6388   -7.5601    3.0989 C   0  0  0  0  0  0  0  0  0  0  0  0
   -1.3261   -7.5523    4.5980 C   0  0  0  0  0  0  0  0  0  0  0  0
    1.2139   -7.9225    2.1125 C   0  0  0  0  0  0  0  0  0  0  0  0
    2.4947   -8.2836    1.7550 C   0  0  0  0  0  0  0  0  0  0  0  0
    3.0850   -9.5870    1.9746 C   0  0  0  0  0  0  0  0  0  0  0  0
    2.5135  -10.6775    2.5801 C   0  0  0  0  0  0  0  0  0  0  0  0
    1.2119  -10.7361    3.1197 C   0  0  0  0  0  0  0  0  0  0  0  0
    0.1684  -10.8677    3.5829 N   0  0  0  0  0  0  0  0  0  0  0  0
    3.1641  -11.9180    2.7504 C   0  0  0  0  0  0  0  0  0  0  0  0
    3.6334  -12.9516    2.9203 N   0  0  0  0  0  0  0  0  0  0  0  0
    4.4421   -9.5509    1.4240 C   0  0  0  0  0  0  0  0  0  0  0  0
    5.4332  -10.5173    1.3584 C   0  0  0  0  0  0  0  0  0  0  0  0
    6.6372  -10.1764    0.7590 C   0  0  0  0  0  0  0  0  0  0  0  0
    7.6058  -11.0964    0.6846 F   0  0  0  0  0  0  0  0  0  0  0  0
    6.8611   -8.9043    0.2334 C   0  0  0  0  0  0  0  0  0  0  0  0
    8.0383   -8.6192   -0.3375 F   0  0  0  0  0  0  0  0  0  0  0  0
    5.8757   -7.9320    0.2957 C   0  0  0  0  0  0  0  0  0  0  0  0
    4.6785   -8.2727    0.8921 C   0  0  0  0  0  0  0  0  0  0  0  0
    3.4754   -7.4348    1.0813 C   0  0  0  0  0  0  0  0  0  0  0  0
    3.3527   -6.2740    0.7313 O   0  0  0  0  0  0  0  0  0  0  0  0
    4.7383    6.6225   -2.8187 H   0  0  0  0  0  0  0  0  0  0  0  0
    2.7585   10.9140   -4.4029 H   0  0  0  0  0  0  0  0  0  0  0  0
   -1.4672    7.7081   -2.8336 H   0  0  0  0  0  0  0  0  0  0  0  0
   -3.4434    7.0159   -2.9869 H   0  0  0  0  0  0  0  0  0  0  0  0
   -4.4761    5.8172   -2.1960 H   0  0  0  0  0  0  0  0  0  0  0  0
   -2.8526    7.9582   -0.7319 H   0  0  0  0  0  0  0  0  0  0  0  0
   -4.5862    8.0169   -1.0473 H   0  0  0  0  0  0  0  0  0  0  0  0
   -3.9259    6.7756    0.0234 H   0  0  0  0  0  0  0  0  0  0  0  0
    0.8114    2.2772    0.1988 H   0  0  0  0  0  0  0  0  0  0  0  0
    0.9649    0.5526    0.5262 H   0  0  0  0  0  0  0  0  0  0  0  0
    2.4139    1.1634   -1.3821 H   0  0  0  0  0  0  0  0  0  0  0  0
    1.0687    0.2377   -2.0639 H   0  0  0  0  0  0  0  0  0  0  0  0
    1.0877    1.9957   -2.1838 H   0  0  0  0  0  0  0  0  0  0  0  0
   -7.6341    1.4650    0.5157 H   0  0  0  0  0  0  0  0  0  0  0  0
   -8.4018   -0.1356    0.5392 H   0  0  0  0  0  0  0  0  0  0  0  0
   -8.0890    0.7063    2.0546 H   0  0  0  0  0  0  0  0  0  0  0  0
   -6.8575   -3.0141    2.8465 H   0  0  0  0  0  0  0  0  0  0  0  0
   -8.0238   -2.3341    1.6940 H   0  0  0  0  0  0  0  0  0  0  0  0
   -7.6986   -1.4928    3.2072 H   0  0  0  0  0  0  0  0  0  0  0  0
    1.2431   -1.1369   -0.3223 H   0  0  0  0  0  0  0  0  0  0  0  0
    1.4019   -2.8322    0.1324 H   0  0  0  0  0  0  0  0  0  0  0  0
   -0.1423   -3.4951   -1.6874 H   0  0  0  0  0  0  0  0  0  0  0  0
   -0.3818   -1.8050   -2.1354 H   0  0  0  0  0  0  0  0  0  0  0  0
    1.2056   -2.5632   -2.3410 H   0  0  0  0  0  0  0  0  0  0  0  0
   -1.4698   -8.5612    2.6999 H   0  0  0  0  0  0  0  0  0  0  0  0
   -2.6907   -7.3064    2.9535 H   0  0  0  0  0  0  0  0  0  0  0  0
   -1.9441   -8.2874    5.1053 H   0  0  0  0  0  0  0  0  0  0  0  0
   -1.5286   -6.5715    5.0215 H   0  0  0  0  0  0  0  0  0  0  0  0
   -0.2824   -7.7998    4.7758 H   0  0  0  0  0  0  0  0  0  0  0  0
    0.6294   -8.6923    2.5971 H   0  0  0  0  0  0  0  0  0  0  0  0
    5.3127  -11.5147    1.7475 H   0  0  0  0  0  0  0  0  0  0  0  0
    6.0437   -6.9471   -0.1095 H   0  0  0  0  0  0  0  0  0  0  0  0
  1  2  2  0  0  0  0
  1  3  1  0  0  0  0
  3  4  2  0  0  0  0
  4  5  1  0  0  0  0
  5  6  1  0  0  0  0
  5  7  2  0  0  0  0
  7  8  1  0  0  0  0
  7  9  1  0  0  0  0
  9 10  2  0  0  0  0
  3 10  1  0  0  0  0
 10 11  1  0  0  0  0
 11 12  2  0  0  0  0
 12 13  1  0  0  0  0
 13 14  3  0  0  0  0
 12 15  1  0  0  0  0
 15 16  3  0  0  0  0
 11 17  1  0  0  0  0
  1 17  1  0  0  0  0
 17 18  2  0  0  0  0
 18 19  1  0  0  0  0
 19 20  1  0  0  0  0
 20 21  1  0  0  0  0
 21 22  2  0  0  0  0
 22 23  1  0  0  0  0
 23 24  1  0  0  0  0
 24 25  1  0  0  0  0
 19 23  2  0  0  0  0
 22 26  1  0  0  0  0
 26 27  1  0  0  0  0
 27 28  2  0  0  0  0
 21 28  1  0  0  0  0
 28 29  1  0  0  0  0
 29 30  1  0  0  0  0
 30 31  1  0  0  0  0
 29 32  1  0  0  0  0
 32 33  2  0  0  0  0
 27 33  1  0  0  0  0
 33 34  1  0  0  0  0
 34 35  2  0  0  0  0
 35 36  1  0  0  0  0
 36 37  1  0  0  0  0
 36 38  2  0  0  0  0
 38 39  1  0  0  0  0
 38 40  1  0  0  0  0
 40 41  2  0  0  0  0
 34 41  1  0  0  0  0
 41 42  1  0  0  0  0
 42 43  2  0  0  0  0
 32 43  1  0  0  0  0
 43 44  1  0  0  0  0
 44 45  1  0  0  0  0
 45 46  1  0  0  0  0
 44 47  1  0  0  0  0
 47 48  2  0  0  0  0
 42 48  1  0  0  0  0
 48 49  1  0  0  0  0
 49 50  1  0  0  0  0
 50 51  2  0  0  0  0
 47 51  1  0  0  0  0
 51 52  1  0  0  0  0
 52 53  1  0  0  0  0
 53 54  2  0  0  0  0
 50 54  1  0  0  0  0
 54 55  1  0  0  0  0
 55 56  1  0  0  0  0
 53 57  1  0  0  0  0
 57 58  2  0  0  0  0
 58 59  1  0  0  0  0
 59 60  2  0  0  0  0
 60 61  1  0  0  0  0
 61 62  3  0  0  0  0
 60 63  1  0  0  0  0
 63 64  3  0  0  0  0
 59 65  1  0  0  0  0
 65 66  2  0  0  0  0
 66 67  1  0  0  0  0
 67 68  1  0  0  0  0
 67 69  2  0  0  0  0
 69 70  1  0  0  0  0
 69 71  1  0  0  0  0
 71 72  2  0  0  0  0
 65 72  1  0  0  0  0
 72 73  1  0  0  0  0
 73 74  2  0  0  0  0
 58 73  1  0  0  0  0
  4 75  1  0  0  0  0
  9 76  1  0  0  0  0
 18 77  1  0  0  0  0
 24 78  1  0  0  0  0
 24 79  1  0  0  0  0
 25 80  1  0  0  0  0
 25 81  1  0  0  0  0
 25 82  1  0  0  0  0
 30 83  1  0  0  0  0
 30 84  1  0  0  0  0
 31 85  1  0  0  0  0
 31 86  1  0  0  0  0
 31 87  1  0  0  0  0
 37 88  1  0  0  0  0
 37 89  1  0  0  0  0
 37 90  1  0  0  0  0
 39 91  1  0  0  0  0
 39 92  1  0  0  0  0
 39 93  1  0  0  0  0
 45 94  1  0  0  0  0
 45 95  1  0  0  0  0
 46 96  1  0  0  0  0
 46 97  1  0  0  0  0
 46 98  1  0  0  0  0
 55 99  1  0  0  0  0
 55100  1  0  0  0  0
 56101  1  0  0  0  0
 56102  1  0  0  0  0
 56103  1  0  0  0  0
 57104  1  0  0  0  0
 66105  1  0  0  0  0
 71106  1  0  0  0  0
M  END
