148
AT-4Cl.mol
O         -5.47020        2.44030        5.11000
C         -5.36970        2.28740        6.31070
C         -4.15580        2.13730        7.13680
C         -4.56810        1.92390        8.51250
C         -6.02320        2.04730        8.56580
C         -6.91610        1.98760        9.62310
C         -8.27420        2.12680        9.35710
Cl        -9.38870        2.05750       10.66230
C         -8.74240        2.32060        8.05330
Cl       -10.42700        2.48250        7.76080
C         -7.84880        2.38290        6.99160
C         -6.50270        2.24770        7.26170
C         -3.77130        1.58840        9.57730
C         -2.38280        1.34050        9.53070
N         -1.26180        1.09470        9.58280
C         -4.24950        1.40020       10.89160
N         -4.56570        1.24180       11.98360
C         -2.84110        2.27910        6.76140
C         -2.24150        2.42340        5.50370
C         -2.74040        2.35150        4.20320
C         -1.75290        2.50990        3.25110
C         -1.65930        2.53840        1.74370
C         -0.14610        2.58350        1.55850
C          0.50930        2.72430        2.77840
C          1.91920        2.70550        2.87340
C          2.63490        2.35980        1.77150
C          1.98590        2.00080        0.55550
C          2.65740        1.28770       -0.42690
C          1.95680        0.68990       -1.47760
C          2.43740       -0.41710       -2.20520
C          1.67200       -0.97390       -3.22600
C          2.29420       -2.19630       -3.62540
S          1.97950       -3.43090       -4.76110
C          3.38070       -4.32140       -4.17590
C          3.84690       -5.55180       -4.64830
C          3.35740       -6.38230       -5.62920
C          3.94340       -7.64310       -6.03760
C          3.08740       -8.20330       -7.08390
C          3.17460       -9.37730       -7.81310
C          2.19390       -9.64790       -8.76220
Cl         2.29540      -11.10210       -9.67040
C          1.13570       -8.76130       -8.98620
Cl        -0.05620       -9.12650      -10.16720
C          1.04400       -7.58300       -8.25540
C          2.01890       -7.32030       -7.31600
C          2.14650       -6.15260       -6.42080
O          1.38340       -5.20500       -6.36390
C          5.08880       -8.22890       -5.56250
C          5.93480       -7.70400       -4.56320
N          6.67760       -7.35320       -3.76000
C          5.59410       -9.46420       -6.02080
N          6.06150      -10.46180       -6.34340
C          4.02350       -3.63950       -3.12870
C          3.40630       -2.45190       -2.81490
C          3.58840       -1.33970       -1.81280
C          4.97780       -0.76550       -1.94610
C          5.20980        0.42370       -2.61700
C          6.49390        0.91890       -2.77560
C          7.58070        0.21840       -2.26390
C          7.34790       -0.98800       -1.59730
C          6.06860       -1.47230       -1.44610
O          8.88110        0.60570       -2.32730
C          9.24600        1.74480       -3.08060
C          9.24860        1.47870       -4.58300
C          3.21450       -1.75600       -0.39310
C          2.10190       -2.56780       -0.18980
C          1.54520       -2.70490        1.06210
C          2.06180       -1.99660        2.14890
O          1.34670       -2.04770        3.30040
C          1.64610       -1.11700        4.32610
C          0.47530       -1.09590        5.29660
C          3.24560       -1.28880        1.97540
C          3.81270       -1.18060        0.71760
C          0.44320       -0.40200       -3.62680
C         -0.07010        0.61880       -2.89080
C          0.61890        1.12950       -1.75370
C         -0.01940        1.94600       -0.83090
C          0.57810        2.23330        0.40150
C         -2.15660        1.27550        1.05570
C         -3.12460        1.28600        0.05820
C         -3.32750        0.17740       -0.73690
C         -2.55240       -0.97000       -0.56780
O         -2.71260       -1.95180       -1.49090
C         -1.73430       -2.97270       -1.56260
C         -1.90160       -3.69040       -2.89260
C         -1.66630       -1.02400        0.50350
C         -1.47990        0.08740        1.30170
C         -2.34860        3.80240        1.25670
C         -1.66840        4.77780        0.53770
C         -2.31340        5.92420        0.12370
C         -3.66050        6.13660        0.41960
C         -4.34360        5.16230        1.14120
C         -3.68880        4.01540        1.55110
O         -4.18940        7.29440       -0.05570
C         -5.51580        7.65390        0.27720
C         -5.64230        8.18090        1.70350
C         -0.48320        2.70280        3.80220
S         -0.49320        2.69300        5.50590
H         -6.59410        1.84180       10.64090
H         -8.19500        2.53190        5.98110
H         -2.12420        2.29650        7.57400
H         -3.78060        2.16960        4.01200
H          2.39220        2.90320        3.82350
H          3.70930        2.26200        1.82000
H          3.71700        1.11970       -0.33060
H          4.74160       -5.88520       -4.13650
H          3.97340      -10.08600       -7.67020
H          0.23340       -6.89010       -8.41650
H          4.89800       -4.03810       -2.64680
H          4.37940        0.98030       -3.02680
H          6.62440        1.85250       -3.29960
H          8.19660       -1.52730       -1.20750
H          5.90750       -2.40510       -0.92650
H          8.59950        2.59640       -2.83470
H         10.26020        1.97630       -2.74370
H          9.58940        2.36480       -5.11150
H          8.25320        1.21790       -4.93440
H          9.91870        0.65300       -4.80850
H          1.64950       -3.07930       -1.02720
H          0.68170       -3.33160        1.22100
H          1.79460       -0.11850        3.89000
H          2.56630       -1.41380        4.84740
H          0.32170       -2.08630        5.71500
H          0.67470       -0.39560        6.10270
H         -0.43320       -0.79560        4.77960
H          3.72580       -0.80120        2.80900
H          4.73030       -0.62180        0.61130
H         -0.09120       -0.82610       -4.46280
H         -1.04800        1.02030       -3.11090
H         -1.02800        2.27290       -1.02590
H         -3.69490        2.18150       -0.13670
H         -4.05400        0.19510       -1.53390
H         -1.86310       -3.67880       -0.73030
H         -0.73190       -2.52690       -1.49530
H         -1.76970       -2.98940       -3.71200
H         -2.89690       -4.12010       -2.96080
H         -1.16320       -4.48200       -2.98330
H         -1.09440       -1.91280        0.70970
H         -0.75530        0.03510        2.10190
H         -0.62420        4.64860        0.29750
H         -1.78810        6.68100       -0.43700
H         -5.38560        5.27640        1.39400
H         -4.24300        3.27660        2.10820
H         -6.19950        6.81270        0.10900
H         -5.76600        8.44610       -0.43400
H         -5.37210        7.41600        2.42750
H         -4.98040        9.03230        1.84100
H         -6.66570        8.49580        1.88780
