ATT-2.sdf
  xtb     12202113193D
 energy: -284.112306595913 gnorm: 0.000339409134 xtb: 6.4.1 (unknown)
170186  0     0  0            999 V2000
   -0.1539   -1.0564   -1.2093 C   0  0  0  0  0  0  0  0  0  0  0  0
    0.5864   -0.0887   -1.9310 C   0  0  0  0  0  0  0  0  0  0  0  0
    1.4247    0.8231   -1.2933 C   0  0  0  0  0  0  0  0  0  0  0  0
    1.4820    0.7716    0.0793 C   0  0  0  0  0  0  0  0  0  0  0  0
    0.7236   -0.1809    0.8022 C   0  0  0  0  0  0  0  0  0  0  0  0
   -0.0970   -1.1078    0.1631 C   0  0  0  0  0  0  0  0  0  0  0  0
   -0.9808   -1.9194   -2.1481 C   0  0  0  0  0  0  0  0  0  0  0  0
   -0.6880   -1.2632   -3.4731 C   0  0  0  0  0  0  0  0  0  0  0  0
    0.2485   -0.2494   -3.3084 C   0  0  0  0  0  0  0  0  0  0  0  0
   -1.0884   -1.4276   -4.7904 C   0  0  0  0  0  0  0  0  0  0  0  0
   -0.4594   -0.5287   -5.6416 C   0  0  0  0  0  0  0  0  0  0  0  0
    0.6594    0.5191   -4.7857 S   0  0  0  0  0  0  0  0  0  0  0  0
    2.2999    1.6424    1.0193 C   0  0  0  0  0  0  0  0  0  0  0  0
    1.8953    1.0787    2.3570 C   0  0  0  0  0  0  0  0  0  0  0  0
    0.9827    0.0445    2.1877 C   0  0  0  0  0  0  0  0  0  0  0  0
    2.1606    1.3643    3.6881 C   0  0  0  0  0  0  0  0  0  0  0  0
    1.4467    0.5386    4.5473 C   0  0  0  0  0  0  0  0  0  0  0  0
    0.4387   -0.6042    3.6785 S   0  0  0  0  0  0  0  0  0  0  0  0
    1.4542    0.5538    5.9583 C   0  0  0  0  0  0  0  0  0  0  0  0
    1.9121    3.1098    1.0046 C   0  0  0  0  0  0  0  0  0  0  0  0
    3.7677    1.4425    0.6891 C   0  0  0  0  0  0  0  0  0  0  0  0
   -2.4352   -1.8572   -1.7264 C   0  0  0  0  0  0  0  0  0  0  0  0
   -0.4875   -3.3541   -2.2432 C   0  0  0  0  0  0  0  0  0  0  0  0
   -1.5681   -0.5994   -9.3899 C   0  0  0  0  0  0  0  0  0  0  0  0
   -2.2094   -0.8420  -10.6012 C   0  0  0  0  0  0  0  0  0  0  0  0
   -3.2539   -1.6917  -10.8951 C   0  0  0  0  0  0  0  0  0  0  0  0
    0.6402   -0.2468    9.6989 C   0  0  0  0  0  0  0  0  0  0  0  0
   -3.2954   -0.9019   -2.2482 C   0  0  0  0  0  0  0  0  0  0  0  0
   -4.6099   -0.8360   -1.8237 C   0  0  0  0  0  0  0  0  0  0  0  0
   -5.0943   -1.7102   -0.8605 C   0  0  0  0  0  0  0  0  0  0  0  0
   -4.2254   -2.6563   -0.3319 C   0  0  0  0  0  0  0  0  0  0  0  0
   -2.9126   -2.7295   -0.7559 C   0  0  0  0  0  0  0  0  0  0  0  0
    0.7439   -3.7453   -1.7395 C   0  0  0  0  0  0  0  0  0  0  0  0
    1.1746   -5.0523   -1.8842 C   0  0  0  0  0  0  0  0  0  0  0  0
    0.3946   -5.9952   -2.5386 C   0  0  0  0  0  0  0  0  0  0  0  0
   -0.8314   -5.5931   -3.0545 C   0  0  0  0  0  0  0  0  0  0  0  0
   -1.2674   -4.2907   -2.9117 C   0  0  0  0  0  0  0  0  0  0  0  0
    2.7367    4.0322    1.6382 C   0  0  0  0  0  0  0  0  0  0  0  0
    2.3869    5.3671    1.6890 C   0  0  0  0  0  0  0  0  0  0  0  0
    1.2048    5.8165    1.1134 C   0  0  0  0  0  0  0  0  0  0  0  0
    0.3793    4.8888    0.4939 C   0  0  0  0  0  0  0  0  0  0  0  0
    0.7232    3.5496    0.4421 C   0  0  0  0  0  0  0  0  0  0  0  0
    4.5190    0.4621    1.3212 C   0  0  0  0  0  0  0  0  0  0  0  0
    5.8433    0.2625    0.9768 C   0  0  0  0  0  0  0  0  0  0  0  0
    6.4470    1.0259   -0.0130 C   0  0  0  0  0  0  0  0  0  0  0  0
    5.6877    1.9998   -0.6489 C   0  0  0  0  0  0  0  0  0  0  0  0
    4.3649    2.2052   -0.3067 C   0  0  0  0  0  0  0  0  0  0  0  0
    0.8043    7.2603    1.2105 C   0  0  0  0  0  0  0  0  0  0  0  0
    7.8976    0.8387   -0.3514 C   0  0  0  0  0  0  0  0  0  0  0  0
    0.8854   -7.4009   -2.7325 C   0  0  0  0  0  0  0  0  0  0  0  0
   -6.5347   -1.6714   -0.4390 C   0  0  0  0  0  0  0  0  0  0  0  0
   -7.3711   -2.6041   -1.3176 C   0  0  0  0  0  0  0  0  0  0  0  0
    1.6608   -7.5191   -4.0463 C   0  0  0  0  0  0  0  0  0  0  0  0
    0.0115    7.5071    2.4957 C   0  0  0  0  0  0  0  0  0  0  0  0
    8.7708    1.7382    0.5259 C   0  0  0  0  0  0  0  0  0  0  0  0
   -0.5206    0.3366   -9.2543 C   0  0  0  0  0  0  0  0  0  0  0  0
   -0.0375    0.4427   -7.9317 C   0  0  0  0  0  0  0  0  0  0  0  0
   -0.6750   -0.3964   -7.0285 C   0  0  0  0  0  0  0  0  0  0  0  0
   -1.9044   -1.3369   -7.8356 S   0  0  0  0  0  0  0  0  0  0  0  0
    0.4465   -0.5196    6.8908 S   0  0  0  0  0  0  0  0  0  0  0  0
    1.0175    0.1305    8.4144 C   0  0  0  0  0  0  0  0  0  0  0  0
    1.9626    1.1505    8.1702 C   0  0  0  0  0  0  0  0  0  0  0  0
    2.1951    1.3792    6.7974 C   0  0  0  0  0  0  0  0  0  0  0  0
    0.1605    1.2000  -10.1387 C   0  0  0  0  0  0  0  0  0  0  0  0
    1.1244    1.9264   -9.4972 C   0  0  0  0  0  0  0  0  0  0  0  0
    1.2449    1.5988   -7.7887 S   0  0  0  0  0  0  0  0  0  0  0  0
    2.0252    2.9103  -10.1046 C   0  0  0  0  0  0  0  0  0  0  0  0
    2.8658    3.4102   -9.1887 O   0  0  0  0  0  0  0  0  0  0  0  0
    2.7274    2.0049    8.9924 C   0  0  0  0  0  0  0  0  0  0  0  0
    3.5097    2.8504    8.2578 C   0  0  0  0  0  0  0  0  0  0  0  0
    3.3528    2.6421    6.5344 S   0  0  0  0  0  0  0  0  0  0  0  0
    4.4371    3.8840    8.7299 C   0  0  0  0  0  0  0  0  0  0  0  0
    4.4370    3.9670   10.0628 O   0  0  0  0  0  0  0  0  0  0  0  0
    5.0996    4.5742    7.9931 O   0  0  0  0  0  0  0  0  0  0  0  0
    5.3151    4.9291   10.6496 C   0  0  0  0  0  0  0  0  0  0  0  0
    6.7280    4.3806   10.7852 C   0  0  0  0  0  0  0  0  0  0  0  0
    2.0162    3.2155  -11.2703 O   0  0  0  0  0  0  0  0  0  0  0  0
    3.7953    4.3966   -9.6352 C   0  0  0  0  0  0  0  0  0  0  0  0
    3.1597    5.7785   -9.6814 C   0  0  0  0  0  0  0  0  0  0  0  0
   -3.9263   -2.5634   -9.9339 C   0  0  0  0  0  0  0  0  0  0  0  0
   -4.9865   -3.2616  -10.6823 C   0  0  0  0  0  0  0  0  0  0  0  0
   -4.9559   -2.8428  -12.0243 C   0  0  0  0  0  0  0  0  0  0  0  0
   -3.8779   -1.8642  -12.1878 C   0  0  0  0  0  0  0  0  0  0  0  0
   -5.9060   -4.1859  -10.2288 C   0  0  0  0  0  0  0  0  0  0  0  0
   -6.8175   -4.7037  -11.1391 C   0  0  0  0  0  0  0  0  0  0  0  0
   -6.7952   -4.2961  -12.4643 C   0  0  0  0  0  0  0  0  0  0  0  0
   -5.8701   -3.3659  -12.9236 C   0  0  0  0  0  0  0  0  0  0  0  0
   -3.6701   -2.6956   -8.7464 O   0  0  0  0  0  0  0  0  0  0  0  0
   -3.5469   -1.2437  -13.3660 C   0  0  0  0  0  0  0  0  0  0  0  0
   -4.2066   -1.4662  -14.5923 C   0  0  0  0  0  0  0  0  0  0  0  0
   -2.5103   -0.3029  -13.5350 C   0  0  0  0  0  0  0  0  0  0  0  0
   -4.6975   -1.5952  -15.6224 N   0  0  0  0  0  0  0  0  0  0  0  0
   -1.6880    0.4693  -13.7541 N   0  0  0  0  0  0  0  0  0  0  0  0
   -0.2740   -1.1917   10.1118 C   0  0  0  0  0  0  0  0  0  0  0  0
   -1.0854   -2.0192    9.2217 C   0  0  0  0  0  0  0  0  0  0  0  0
   -1.9453   -2.8390   10.0944 C   0  0  0  0  0  0  0  0  0  0  0  0
   -1.6616   -2.5350   11.4380 C   0  0  0  0  0  0  0  0  0  0  0  0
   -0.6105   -1.5153   11.4786 C   0  0  0  0  0  0  0  0  0  0  0  0
   -2.9012   -3.7714    9.7453 C   0  0  0  0  0  0  0  0  0  0  0  0
   -3.5915   -4.4143   10.7643 C   0  0  0  0  0  0  0  0  0  0  0  0
   -3.3200   -4.1195   12.0916 C   0  0  0  0  0  0  0  0  0  0  0  0
   -2.3569   -3.1818   12.4460 C   0  0  0  0  0  0  0  0  0  0  0  0
   -1.0639   -2.0333    8.0005 O   0  0  0  0  0  0  0  0  0  0  0  0
   -0.0586   -0.9917   12.6216 C   0  0  0  0  0  0  0  0  0  0  0  0
    0.9596   -0.0183   12.6686 C   0  0  0  0  0  0  0  0  0  0  0  0
   -0.4344   -1.3671   13.9277 C   0  0  0  0  0  0  0  0  0  0  0  0
    1.7859    0.7715   12.7908 N   0  0  0  0  0  0  0  0  0  0  0  0
   -0.6887   -1.6225   15.0180 N   0  0  0  0  0  0  0  0  0  0  0  0
    1.9879    1.5458   -1.8629 H   0  0  0  0  0  0  0  0  0  0  0  0
   -0.6650   -1.8267    0.7328 H   0  0  0  0  0  0  0  0  0  0  0  0
   -1.8051   -2.1450   -5.1468 H   0  0  0  0  0  0  0  0  0  0  0  0
    2.8290    2.1295    4.0364 H   0  0  0  0  0  0  0  0  0  0  0  0
   -1.8146   -0.2521  -11.4181 H   0  0  0  0  0  0  0  0  0  0  0  0
    1.1518    0.3080   10.4745 H   0  0  0  0  0  0  0  0  0  0  0  0
   -2.9401   -0.2065   -2.9947 H   0  0  0  0  0  0  0  0  0  0  0  0
   -5.2683   -0.0906   -2.2467 H   0  0  0  0  0  0  0  0  0  0  0  0
   -4.5808   -3.3441    0.4222 H   0  0  0  0  0  0  0  0  0  0  0  0
   -2.2559   -3.4799   -0.3397 H   0  0  0  0  0  0  0  0  0  0  0  0
    1.3724   -3.0309   -1.2281 H   0  0  0  0  0  0  0  0  0  0  0  0
    2.1337   -5.3421   -1.4791 H   0  0  0  0  0  0  0  0  0  0  0  0
   -1.4526   -6.3095   -3.5728 H   0  0  0  0  0  0  0  0  0  0  0  0
   -2.2269   -3.9977   -3.3123 H   0  0  0  0  0  0  0  0  0  0  0  0
    3.6629    3.7020    2.0856 H   0  0  0  0  0  0  0  0  0  0  0  0
    3.0417    6.0710    2.1824 H   0  0  0  0  0  0  0  0  0  0  0  0
   -0.5476    5.2160    0.0444 H   0  0  0  0  0  0  0  0  0  0  0  0
    0.0599    2.8470   -0.0411 H   0  0  0  0  0  0  0  0  0  0  0  0
    4.0706   -0.1491    2.0909 H   0  0  0  0  0  0  0  0  0  0  0  0
    6.4150   -0.5016    1.4839 H   0  0  0  0  0  0  0  0  0  0  0  0
    6.1372    2.6044   -1.4238 H   0  0  0  0  0  0  0  0  0  0  0  0
    3.7948    2.9740   -0.8079 H   0  0  0  0  0  0  0  0  0  0  0  0
    0.1900    7.5337    0.3503 H   0  0  0  0  0  0  0  0  0  0  0  0
    1.6944    7.8926    1.2106 H   0  0  0  0  0  0  0  0  0  0  0  0
    8.0679    1.0852   -1.4013 H   0  0  0  0  0  0  0  0  0  0  0  0
    8.1831   -0.2035   -0.1941 H   0  0  0  0  0  0  0  0  0  0  0  0
    1.5371   -7.6836   -1.9035 H   0  0  0  0  0  0  0  0  0  0  0  0
    0.0383   -8.0895   -2.7521 H   0  0  0  0  0  0  0  0  0  0  0  0
   -6.9197   -0.6534   -0.5262 H   0  0  0  0  0  0  0  0  0  0  0  0
   -6.6242   -1.9830    0.6036 H   0  0  0  0  0  0  0  0  0  0  0  0
   -7.3025   -2.3029   -2.3606 H   0  0  0  0  0  0  0  0  0  0  0  0
   -7.0107   -3.6269   -1.2331 H   0  0  0  0  0  0  0  0  0  0  0  0
   -8.4155   -2.5773   -1.0157 H   0  0  0  0  0  0  0  0  0  0  0  0
    1.0242   -7.2515   -4.8867 H   0  0  0  0  0  0  0  0  0  0  0  0
    2.0154   -8.5373   -4.1888 H   0  0  0  0  0  0  0  0  0  0  0  0
    2.5181   -6.8497   -4.0408 H   0  0  0  0  0  0  0  0  0  0  0  0
   -0.8863    6.8931    2.5097 H   0  0  0  0  0  0  0  0  0  0  0  0
   -0.2804    8.5521    2.5686 H   0  0  0  0  0  0  0  0  0  0  0  0
    0.6129    7.2523    3.3655 H   0  0  0  0  0  0  0  0  0  0  0  0
    8.6231    1.5000    1.5768 H   0  0  0  0  0  0  0  0  0  0  0  0
    9.8221    1.6022    0.2830 H   0  0  0  0  0  0  0  0  0  0  0  0
    8.5108    2.7832    0.3728 H   0  0  0  0  0  0  0  0  0  0  0  0
   -0.0274    1.2973  -11.1929 H   0  0  0  0  0  0  0  0  0  0  0  0
    2.7167    2.0113   10.0672 H   0  0  0  0  0  0  0  0  0  0  0  0
    5.3160    5.8322   10.0301 H   0  0  0  0  0  0  0  0  0  0  0  0
    4.8799    5.1450   11.6271 H   0  0  0  0  0  0  0  0  0  0  0  0
    7.3532    5.1093   11.2930 H   0  0  0  0  0  0  0  0  0  0  0  0
    6.7184    3.4574   11.3594 H   0  0  0  0  0  0  0  0  0  0  0  0
    7.1464    4.1826    9.8012 H   0  0  0  0  0  0  0  0  0  0  0  0
    4.1591    4.1142  -10.6287 H   0  0  0  0  0  0  0  0  0  0  0  0
    4.6129    4.3603   -8.9125 H   0  0  0  0  0  0  0  0  0  0  0  0
    2.3598    5.7944  -10.4177 H   0  0  0  0  0  0  0  0  0  0  0  0
    3.9087    6.5139   -9.9603 H   0  0  0  0  0  0  0  0  0  0  0  0
    2.7510    6.0372   -8.7073 H   0  0  0  0  0  0  0  0  0  0  0  0
   -5.9050   -4.4877   -9.1927 H   0  0  0  0  0  0  0  0  0  0  0  0
   -7.5494   -5.4278  -10.8144 H   0  0  0  0  0  0  0  0  0  0  0  0
   -7.5114   -4.7079  -13.1594 H   0  0  0  0  0  0  0  0  0  0  0  0
   -5.8786   -3.0689  -13.9594 H   0  0  0  0  0  0  0  0  0  0  0  0
   -3.0967   -3.9836    8.7055 H   0  0  0  0  0  0  0  0  0  0  0  0
   -4.3458   -5.1480   10.5228 H   0  0  0  0  0  0  0  0  0  0  0  0
   -3.8670   -4.6272   12.8718 H   0  0  0  0  0  0  0  0  0  0  0  0
   -2.1692   -2.9737   13.4865 H   0  0  0  0  0  0  0  0  0  0  0  0
  1  2  1  0  0  0  0
  2  3  2  0  0  0  0
  3  4  1  0  0  0  0
  4  5  2  0  0  0  0
  5  6  1  0  0  0  0
  6  1  2  0  0  0  0
  1  7  1  0  0  0  0
  7  8  1  0  0  0  0
  8  9  2  0  0  0  0
  9  2  1  0  0  0  0
  8 10  1  0  0  0  0
 10 11  2  0  0  0  0
 11 12  1  0  0  0  0
 12  9  1  0  0  0  0
  4 13  1  0  0  0  0
 13 14  1  0  0  0  0
 14 15  2  0  0  0  0
 15  5  1  0  0  0  0
 14 16  1  0  0  0  0
 16 17  2  0  0  0  0
 17 18  1  0  0  0  0
 18 15  1  0  0  0  0
 17 19  1  0  0  0  0
 13 20  1  0  0  0  0
 13 21  1  0  0  0  0
  7 22  1  0  0  0  0
  7 23  1  0  0  0  0
 24 25  1  0  0  0  0
 25 26  2  0  0  0  0
 22 28  2  0  0  0  0
 28 29  1  0  0  0  0
 29 30  2  0  0  0  0
 30 31  1  0  0  0  0
 31 32  2  0  0  0  0
 32 22  1  0  0  0  0
 23 33  2  0  0  0  0
 33 34  1  0  0  0  0
 34 35  2  0  0  0  0
 35 36  1  0  0  0  0
 36 37  2  0  0  0  0
 37 23  1  0  0  0  0
 20 38  2  0  0  0  0
 38 39  1  0  0  0  0
 39 40  2  0  0  0  0
 40 41  1  0  0  0  0
 41 42  2  0  0  0  0
 42 20  1  0  0  0  0
 21 43  2  0  0  0  0
 43 44  1  0  0  0  0
 44 45  2  0  0  0  0
 45 46  1  0  0  0  0
 46 47  2  0  0  0  0
 47 21  1  0  0  0  0
 40 48  1  0  0  0  0
 45 49  1  0  0  0  0
 35 50  1  0  0  0  0
 30 51  1  0  0  0  0
 51 52  1  0  0  0  0
 50 53  1  0  0  0  0
 48 54  1  0  0  0  0
 49 55  1  0  0  0  0
 24 56  2  0  0  0  0
 56 57  1  0  0  0  0
 57 58  2  0  0  0  0
 58 59  1  0  0  0  0
 59 24  1  0  0  0  0
 19 60  1  0  0  0  0
 60 61  1  0  0  0  0
 61 62  2  0  0  0  0
 62 63  1  0  0  0  0
 63 19  2  0  0  0  0
 61 27  1  0  0  0  0
 58 11  1  0  0  0  0
 56 64  1  0  0  0  0
 64 65  2  0  0  0  0
 65 66  1  0  0  0  0
 66 57  1  0  0  0  0
 65 67  1  0  0  0  0
 67 68  1  0  0  0  0
 62 69  1  0  0  0  0
 69 70  2  0  0  0  0
 70 71  1  0  0  0  0
 71 63  1  0  0  0  0
 70 72  1  0  0  0  0
 72 73  1  0  0  0  0
 72 74  2  0  0  0  0
 73 75  1  0  0  0  0
 75 76  1  0  0  0  0
 67 77  2  0  0  0  0
 68 78  1  0  0  0  0
 78 79  1  0  0  0  0
 26 80  1  0  0  0  0
 80 81  1  0  0  0  0
 81 82  2  0  0  0  0
 82 83  1  0  0  0  0
 83 26  1  0  0  0  0
 81 84  1  0  0  0  0
 84 85  2  0  0  0  0
 85 86  1  0  0  0  0
 86 87  2  0  0  0  0
 87 82  1  0  0  0  0
 80 88  2  0  0  0  0
 83 89  2  0  0  0  0
 89 90  1  0  0  0  0
 89 91  1  0  0  0  0
 90 92  3  0  0  0  0
 91 93  3  0  0  0  0
 94 95  1  0  0  0  0
 95 96  1  0  0  0  0
 96 97  2  0  0  0  0
 97 98  1  0  0  0  0
 98 94  1  0  0  0  0
 96 99  1  0  0  0  0
 99100  2  0  0  0  0
100101  1  0  0  0  0
101102  2  0  0  0  0
102 97  1  0  0  0  0
 95103  2  0  0  0  0
 98104  2  0  0  0  0
104105  1  0  0  0  0
104106  1  0  0  0  0
105107  3  0  0  0  0
106108  3  0  0  0  0
 27 94  2  0  0  0  0
  3109  1  0  0  0  0
  6110  1  0  0  0  0
 10111  1  0  0  0  0
 16112  1  0  0  0  0
 25113  1  0  0  0  0
 27114  1  0  0  0  0
 28115  1  0  0  0  0
 29116  1  0  0  0  0
 31117  1  0  0  0  0
 32118  1  0  0  0  0
 33119  1  0  0  0  0
 34120  1  0  0  0  0
 36121  1  0  0  0  0
 37122  1  0  0  0  0
 38123  1  0  0  0  0
 39124  1  0  0  0  0
 41125  1  0  0  0  0
 42126  1  0  0  0  0
 43127  1  0  0  0  0
 44128  1  0  0  0  0
 46129  1  0  0  0  0
 47130  1  0  0  0  0
 48131  1  0  0  0  0
 48132  1  0  0  0  0
 49133  1  0  0  0  0
 49134  1  0  0  0  0
 50135  1  0  0  0  0
 50136  1  0  0  0  0
 51137  1  0  0  0  0
 51138  1  0  0  0  0
 52139  1  0  0  0  0
 52140  1  0  0  0  0
 52141  1  0  0  0  0
 53142  1  0  0  0  0
 53143  1  0  0  0  0
 53144  1  0  0  0  0
 54145  1  0  0  0  0
 54146  1  0  0  0  0
 54147  1  0  0  0  0
 55148  1  0  0  0  0
 55149  1  0  0  0  0
 55150  1  0  0  0  0
 64151  1  0  0  0  0
 69152  1  0  0  0  0
 75153  1  0  0  0  0
 75154  1  0  0  0  0
 76155  1  0  0  0  0
 76156  1  0  0  0  0
 76157  1  0  0  0  0
 78158  1  0  0  0  0
 78159  1  0  0  0  0
 79160  1  0  0  0  0
 79161  1  0  0  0  0
 79162  1  0  0  0  0
 84163  1  0  0  0  0
 85164  1  0  0  0  0
 86165  1  0  0  0  0
 87166  1  0  0  0  0
 99167  1  0  0  0  0
100168  1  0  0  0  0
101169  1  0  0  0  0
102170  1  0  0  0  0
M  END
