124
BCPDT-2.mol
O          4.47540        3.33350       -5.96280
C          5.29980        4.04790       -6.50360
C          5.75340        3.94430       -7.90690
C          6.71070        4.94100       -8.15960
C          6.91480        5.71950       -6.93550
C          6.03960        5.16860       -5.92260
C          5.91800        5.62560       -4.62960
C          5.10480        5.18880       -3.58190
C          5.12430        5.81730       -2.32240
C          4.23750        5.26470       -1.43200
C          3.82910        5.48240        0.00920
C          5.06480        5.29320        0.91070
C          4.79540        5.42200        2.40380
C          3.10440        6.82850        0.21300
C          3.97700        8.06240        0.02890
C          3.54230        4.17690       -1.99670
S          3.95600        3.85660       -3.62190
C          2.68340        3.64390       -1.01460
C          2.81710        4.37020        0.17130
C          1.95690        3.93470        1.17100
C          1.17160        2.86910        0.76560
S          1.51900        2.39400       -0.89290
C          0.20140        2.09600        1.47020
C         -0.66510        2.37430        2.52200
C         -0.78930        3.68360        3.17980
C         -1.97250        3.81710        4.02580
C         -2.39100        4.99190        4.59970
C         -1.76670        6.33870        4.54550
C         -0.69200        6.47960        5.62770
S         -3.83210        4.74770        5.52720
C         -3.87670        3.06050        5.15370
C         -4.94370        2.17420        5.68360
C         -6.03520        2.92230        6.43460
C         -2.82590        2.71490        4.33720
C         -2.59980        1.36570        3.83520
O         -3.29660        0.42150        4.17830
O          0.01240        4.59440        3.03810
C         -1.50370        1.26510        2.85990
C         -1.26030        0.14270        2.07820
S         -0.03160        0.47120        0.89510
C         -1.82770       -1.16530        2.05830
C         -2.36220       -1.93030        3.08050
C         -2.75920       -3.18630        2.64340
C         -3.42820       -4.38900        3.26570
C         -4.84230       -3.95690        3.71520
C         -5.72020       -5.08130        4.24660
C         -2.61120       -4.97370        4.42780
C         -1.16700       -5.26850        4.03930
C         -2.52570       -3.39470        1.28270
S         -1.80040       -2.03670        0.53050
C         -2.95430       -4.69000        0.92480
C         -3.47370       -5.31810        2.07540
C         -3.86260       -6.60920        1.81930
C         -3.67140       -6.98590        0.47630
S         -2.97100       -5.67640       -0.46900
C         -4.01530       -8.25930        0.01870
C         -3.91540       -8.82170       -1.23420
C         -3.38910       -8.15740       -2.42680
C         -3.48230       -9.14890       -3.51960
C         -4.03220      -10.34060       -3.01880
C         -4.21790      -11.42170       -3.86570
C         -3.84590      -11.27960       -5.19480
F         -4.01710      -12.31250       -6.02800
C         -3.30020      -10.09200       -5.68150
F         -2.95570      -10.00050       -6.97180
C         -3.11170       -9.00600       -4.84150
O         -2.95810       -7.02270       -2.52350
C         -4.31240      -10.16700       -1.59140
C         -4.85250      -11.12800       -0.77530
C         -5.21370      -12.42170       -1.20790
N         -5.53180      -13.48710       -1.49290
C         -5.12820      -10.98410        0.60050
N         -5.38360      -10.95160        1.72030
C          7.78550        6.77180       -6.81090
C          8.60610        7.24760       -7.85570
N          9.30310        7.68200       -8.65750
C          7.99770        7.53520       -5.64400
N          8.23240        8.20490       -4.74030
C          7.27880        5.04520       -9.41930
C          6.87280        4.14490      -10.39390
F          7.40910        4.23080      -11.61660
C          5.92340        3.15760      -10.13130
F          5.56240        2.30980      -11.10230
C          5.34960        3.04710       -8.87480
H          6.54250        6.46750       -4.35640
H          5.78810        6.63970       -2.12290
H          5.47380        4.30020        0.70670
H          5.81800        6.02330        0.61110
H          5.72370        5.27380        2.95110
H          4.08330        4.67250        2.73630
H          4.40960        6.40610        2.65390
H          2.66980        6.83040        1.21330
H          2.27740        6.86820       -0.50070
H          3.37520        8.95500        0.18460
H          4.38520        8.10360       -0.97690
H          4.79670        8.08050        0.74150
H          1.87520        4.36280        2.15050
H         -1.29880        6.47250        3.56840
H         -2.53320        7.10300        4.68790
H         -0.26390        7.47760        5.59590
H         -1.11800        6.31200        6.61460
H          0.09990        5.75560        5.45580
H         -5.36840        1.61090        4.84690
H         -4.47770        1.42910        6.33680
H         -6.79190        2.22580        6.78580
H         -6.51360        3.65400        5.78680
H         -5.62100        3.44410        7.29510
H         -2.44620       -1.57380        4.08840
H         -4.72580       -3.18930        4.48260
H         -5.33900       -3.49360        2.85920
H         -5.87660       -5.84340        3.48830
H         -5.28410       -5.54430        5.12730
H         -6.69110       -4.67780        4.52470
H         -3.08520       -5.89770        4.75970
H         -2.62880       -4.26230        5.25540
H         -1.12720       -5.96930        3.20830
H         -0.65050       -4.35770        3.74540
H         -0.63730       -5.70640        4.88170
H         -4.26260       -7.29990        2.54030
H         -4.42680       -8.89020        0.79720
H         -4.63470      -12.36110       -3.54220
H         -2.69010       -8.08540       -5.21210
H          8.01560        5.78850       -9.67550
H          4.61450        2.28620       -8.66630
