144
BDCPDT-BC.sdf
C          1.16320       -0.90700       -0.78670
C          0.27580       -0.32880       -1.74340
C         -0.85620        0.36000       -1.30350
C         -1.05880        0.47340        0.05120
C         -0.17220       -0.10640        1.00740
C          0.94700       -0.81550        0.56740
S         -2.37940        1.35310        0.80070
C         -1.73550        0.96680        2.36020
C         -0.59580        0.18430        2.32150
C         -2.03110        1.29240        3.70530
C         -1.05120        0.72810        4.53330
C         -0.06740       -0.07970        3.71310
C         -0.17850       -1.52930        4.15000
C          1.35560        0.44600        3.79460
C          0.29380       -1.89030        5.40720
C          0.18170       -3.19330        5.84950
C         -0.40420       -4.17010        5.05300
C         -0.87830       -3.80220        3.80220
C         -0.77050       -2.49740        3.35330
C          2.44560       -0.40880        3.70550
C          3.73300        0.09480        3.71760
C          3.96610        1.45980        3.81590
C          2.87170        2.31080        3.89760
C          1.58270        1.81300        3.88380
C         -0.56560       -5.57530        5.55620
C         -1.88040       -5.71780        6.32580
C          5.36470        2.00380        3.77770
C          5.80040        2.24960        2.33160
S         -3.18350        2.20100        4.57380
C         -2.33340        1.85000        6.08490
C         -1.22300        1.03950        5.86800
C         -2.87410        2.43320        7.24470
C         -2.43640        2.46080        8.54130
C         -1.19520        1.88970        9.13520
C         -1.19600        2.33940       10.53010
C         -2.33650        3.07430       10.77750
C         -3.15380        3.16920        9.59590
O         -0.34710        1.19600        8.60890
C         -4.36680        3.80960        9.55430
C         -4.88890        4.44310       10.70260
C         -5.22860        3.91990        8.44640
N         -5.33120        4.96670       11.62300
N         -5.99060        4.05190        7.59670
S          2.54200       -1.69510       -1.53260
C          1.94520       -1.23580       -3.09070
C          0.74680       -0.54620       -3.05570
C          2.39150       -1.32710       -4.43040
C          1.47470       -0.66600       -5.25900
C          0.30680       -0.14720       -4.44610
C         -0.94450       -0.86110       -4.92490
C          0.16820        1.36480       -4.49520
C         -1.57130       -1.84010       -4.16920
C         -2.69110       -2.49030       -4.65780
C         -3.20480       -2.18750       -5.91050
C         -2.56990       -1.20760       -6.66430
C         -1.45330       -0.55410       -6.18210
C          1.30380        2.16160       -4.55710
C          1.19590        3.53920       -4.54870
C         -0.04530        4.15730       -4.47110
C         -1.17650        3.35590       -4.39720
C         -1.07440        1.97720       -4.40770
C         -4.44580       -2.86350       -6.41720
C         -5.69100       -2.08950       -5.97950
C         -0.15930        5.65300       -4.41340
C         -0.13700        6.13330       -2.96080
S          3.72450       -1.95280       -5.28990
C          3.06840       -1.30050       -6.79780
C          1.85420       -0.65380       -6.58720
C          3.85020       -1.51030       -7.94790
C          3.71140       -1.07580       -9.23820
C          2.67090       -0.19100       -9.83310
C          3.10000        0.02760      -11.21740
C          4.25990       -0.67870      -11.45800
C          4.67960       -1.39510      -10.28180
O          1.67160        0.26640       -9.31380
C          5.78430       -2.20810      -10.23520
C          6.24040       -2.95410       -9.13160
C          6.60260       -2.38040      -11.37230
N          6.67760       -3.59600       -8.28500
N          7.28310       -2.53280      -12.28360
C          2.64560        0.75970      -12.34300
C          3.51950        0.56800      -13.43840
S          4.86060       -0.49930      -13.06190
C          1.53080        1.58750      -12.49090
C          1.31010        2.19940      -13.70350
C          2.18070        2.00220      -14.77700
C          3.28890        1.18760      -14.65630
C         -0.35030        2.21870       11.66130
C         -0.91090        2.89800       12.76780
S         -2.44920        3.65560       12.39460
C          0.87580        1.56600       11.80570
C          1.51060        1.60080       13.02600
C          0.94660        2.27530       14.11060
C         -0.26470        2.92760       13.99320
H         -1.53300        0.80540       -2.01360
H          1.62730       -1.25520        1.27770
H          0.76180       -1.14820        6.03610
H          0.55640       -3.45700        6.82800
H         -1.33810       -4.54490        3.16580
H         -1.14870       -2.24090        2.37490
H          2.29160       -1.47620        3.63750
H          4.56980       -0.58590        3.65080
H          3.02940        3.37720        3.97350
H          0.74580        2.49380        3.94490
H          0.26620       -5.82990        6.21610
H         -0.56250       -6.27300        4.71640
H         -2.72400       -5.48480        5.67990
H         -1.89940       -5.03450        7.17190
H         -1.99640       -6.73360        6.69640
H          5.41300        2.94230        4.33320
H          6.05110        1.29420        4.24410
H          6.81360        2.64340        2.30120
H          5.77060        1.32200        1.76430
H          5.13470        2.96410        1.85230
H         -0.58500        0.72720        6.67310
H         -3.79300        2.97540        7.05200
H         -1.19120       -2.10090       -3.19260
H         -3.16850       -3.24910       -4.05430
H         -2.95170       -0.95660       -7.64340
H         -0.97690        0.20780       -6.78040
H          2.28000        1.70210       -4.61570
H          2.09020        4.14320       -4.60500
H         -2.15260        3.81550       -4.33290
H         -1.97120        1.37620       -4.36010
H         -4.41930       -2.91630       -7.50730
H         -4.49920       -3.88160       -6.02650
H         -6.59100       -2.57770       -6.34560
H         -5.66240       -1.07490       -6.37070
H         -5.74150       -2.03630       -4.89430
H          0.67070        6.10910       -4.95650
H         -1.09200        5.97180       -4.88310
H         -0.96560        5.69920       -2.40560
H         -0.21890        7.21680       -2.91710
H          0.79090        5.83480       -2.47780
H          1.31150       -0.19320       -7.39110
H          4.73200       -2.10960       -7.75100
H          0.86850        1.72980      -11.65130
H          0.45290        2.84300      -13.83140
H          1.98460        2.49500      -15.71710
H          3.96300        1.03390      -15.48430
H          1.29820        1.05020       10.95770
H          2.45920        1.10110       13.15150
H          1.46610        2.28760       15.05670
H         -0.70220        3.44970       14.82970
