BDCPDT-BC.sdf
  xtb     12202113273D
 energy: -240.264979332009 gnorm: 0.000352887029 xtb: 6.4.1 (unknown)
144160  0     0  0            999 V2000
    1.1632   -0.9070   -0.7867 C   0  0  0  0  0  0  0  0  0  0  0  0
    0.2758   -0.3288   -1.7434 C   0  0  0  0  0  0  0  0  0  0  0  0
   -0.8562    0.3600   -1.3035 C   0  0  0  0  0  0  0  0  0  0  0  0
   -1.0588    0.4734    0.0512 C   0  0  0  0  0  0  0  0  0  0  0  0
   -0.1722   -0.1064    1.0074 C   0  0  0  0  0  0  0  0  0  0  0  0
    0.9470   -0.8155    0.5674 C   0  0  0  0  0  0  0  0  0  0  0  0
   -2.3794    1.3531    0.8007 S   0  0  0  0  0  0  0  0  0  0  0  0
   -1.7355    0.9668    2.3602 C   0  0  0  0  0  0  0  0  0  0  0  0
   -0.5958    0.1843    2.3215 C   0  0  0  0  0  0  0  0  0  0  0  0
   -2.0311    1.2924    3.7053 C   0  0  0  0  0  0  0  0  0  0  0  0
   -1.0512    0.7281    4.5333 C   0  0  0  0  0  0  0  0  0  0  0  0
   -0.0674   -0.0797    3.7131 C   0  0  0  0  0  0  0  0  0  0  0  0
   -0.1785   -1.5293    4.1500 C   0  0  0  0  0  0  0  0  0  0  0  0
    1.3556    0.4460    3.7946 C   0  0  0  0  0  0  0  0  0  0  0  0
    0.2938   -1.8903    5.4072 C   0  0  0  0  0  0  0  0  0  0  0  0
    0.1817   -3.1933    5.8495 C   0  0  0  0  0  0  0  0  0  0  0  0
   -0.4042   -4.1701    5.0530 C   0  0  0  0  0  0  0  0  0  0  0  0
   -0.8783   -3.8022    3.8022 C   0  0  0  0  0  0  0  0  0  0  0  0
   -0.7705   -2.4974    3.3533 C   0  0  0  0  0  0  0  0  0  0  0  0
    2.4456   -0.4088    3.7055 C   0  0  0  0  0  0  0  0  0  0  0  0
    3.7330    0.0948    3.7176 C   0  0  0  0  0  0  0  0  0  0  0  0
    3.9661    1.4598    3.8159 C   0  0  0  0  0  0  0  0  0  0  0  0
    2.8717    2.3108    3.8976 C   0  0  0  0  0  0  0  0  0  0  0  0
    1.5827    1.8130    3.8838 C   0  0  0  0  0  0  0  0  0  0  0  0
   -0.5656   -5.5753    5.5562 C   0  0  0  0  0  0  0  0  0  0  0  0
   -1.8804   -5.7178    6.3258 C   0  0  0  0  0  0  0  0  0  0  0  0
    5.3647    2.0038    3.7777 C   0  0  0  0  0  0  0  0  0  0  0  0
    5.8004    2.2496    2.3316 C   0  0  0  0  0  0  0  0  0  0  0  0
   -3.1835    2.2010    4.5738 S   0  0  0  0  0  0  0  0  0  0  0  0
   -2.3334    1.8500    6.0849 C   0  0  0  0  0  0  0  0  0  0  0  0
   -1.2230    1.0395    5.8680 C   0  0  0  0  0  0  0  0  0  0  0  0
   -2.8741    2.4332    7.2447 C   0  0  0  0  0  0  0  0  0  0  0  0
   -2.4364    2.4608    8.5413 C   0  0  0  0  0  0  0  0  0  0  0  0
   -1.1952    1.8897    9.1352 C   0  0  0  0  0  0  0  0  0  0  0  0
   -1.1960    2.3394   10.5301 C   0  0  0  0  0  0  0  0  0  0  0  0
   -2.3365    3.0743   10.7775 C   0  0  0  0  0  0  0  0  0  0  0  0
   -3.1538    3.1692    9.5959 C   0  0  0  0  0  0  0  0  0  0  0  0
   -0.3471    1.1960    8.6089 O   0  0  0  0  0  0  0  0  0  0  0  0
   -4.3668    3.8096    9.5543 C   0  0  0  0  0  0  0  0  0  0  0  0
   -4.8889    4.4431   10.7026 C   0  0  0  0  0  0  0  0  0  0  0  0
   -5.2286    3.9199    8.4464 C   0  0  0  0  0  0  0  0  0  0  0  0
   -5.3312    4.9667   11.6230 N   0  0  0  0  0  0  0  0  0  0  0  0
   -5.9906    4.0519    7.5967 N   0  0  0  0  0  0  0  0  0  0  0  0
    2.5420   -1.6951   -1.5326 S   0  0  0  0  0  0  0  0  0  0  0  0
    1.9452   -1.2358   -3.0907 C   0  0  0  0  0  0  0  0  0  0  0  0
    0.7468   -0.5462   -3.0557 C   0  0  0  0  0  0  0  0  0  0  0  0
    2.3915   -1.3271   -4.4304 C   0  0  0  0  0  0  0  0  0  0  0  0
    1.4747   -0.6660   -5.2590 C   0  0  0  0  0  0  0  0  0  0  0  0
    0.3068   -0.1472   -4.4461 C   0  0  0  0  0  0  0  0  0  0  0  0
   -0.9445   -0.8611   -4.9249 C   0  0  0  0  0  0  0  0  0  0  0  0
    0.1682    1.3648   -4.4952 C   0  0  0  0  0  0  0  0  0  0  0  0
   -1.5713   -1.8401   -4.1692 C   0  0  0  0  0  0  0  0  0  0  0  0
   -2.6911   -2.4903   -4.6578 C   0  0  0  0  0  0  0  0  0  0  0  0
   -3.2048   -2.1875   -5.9105 C   0  0  0  0  0  0  0  0  0  0  0  0
   -2.5699   -1.2076   -6.6643 C   0  0  0  0  0  0  0  0  0  0  0  0
   -1.4533   -0.5541   -6.1821 C   0  0  0  0  0  0  0  0  0  0  0  0
    1.3038    2.1616   -4.5571 C   0  0  0  0  0  0  0  0  0  0  0  0
    1.1959    3.5392   -4.5487 C   0  0  0  0  0  0  0  0  0  0  0  0
   -0.0453    4.1573   -4.4711 C   0  0  0  0  0  0  0  0  0  0  0  0
   -1.1765    3.3559   -4.3972 C   0  0  0  0  0  0  0  0  0  0  0  0
   -1.0744    1.9772   -4.4077 C   0  0  0  0  0  0  0  0  0  0  0  0
   -4.4458   -2.8635   -6.4172 C   0  0  0  0  0  0  0  0  0  0  0  0
   -5.6910   -2.0895   -5.9795 C   0  0  0  0  0  0  0  0  0  0  0  0
   -0.1593    5.6530   -4.4134 C   0  0  0  0  0  0  0  0  0  0  0  0
   -0.1370    6.1333   -2.9608 C   0  0  0  0  0  0  0  0  0  0  0  0
    3.7245   -1.9528   -5.2899 S   0  0  0  0  0  0  0  0  0  0  0  0
    3.0684   -1.3005   -6.7978 C   0  0  0  0  0  0  0  0  0  0  0  0
    1.8542   -0.6538   -6.5872 C   0  0  0  0  0  0  0  0  0  0  0  0
    3.8502   -1.5103   -7.9479 C   0  0  0  0  0  0  0  0  0  0  0  0
    3.7114   -1.0758   -9.2382 C   0  0  0  0  0  0  0  0  0  0  0  0
    2.6709   -0.1910   -9.8331 C   0  0  0  0  0  0  0  0  0  0  0  0
    3.1000    0.0276  -11.2174 C   0  0  0  0  0  0  0  0  0  0  0  0
    4.2599   -0.6787  -11.4580 C   0  0  0  0  0  0  0  0  0  0  0  0
    4.6796   -1.3951  -10.2818 C   0  0  0  0  0  0  0  0  0  0  0  0
    1.6716    0.2664   -9.3138 O   0  0  0  0  0  0  0  0  0  0  0  0
    5.7843   -2.2081  -10.2352 C   0  0  0  0  0  0  0  0  0  0  0  0
    6.2404   -2.9541   -9.1316 C   0  0  0  0  0  0  0  0  0  0  0  0
    6.6026   -2.3804  -11.3723 C   0  0  0  0  0  0  0  0  0  0  0  0
    6.6776   -3.5960   -8.2850 N   0  0  0  0  0  0  0  0  0  0  0  0
    7.2831   -2.5328  -12.2836 N   0  0  0  0  0  0  0  0  0  0  0  0
    2.6456    0.7597  -12.3430 C   0  0  0  0  0  0  0  0  0  0  0  0
    3.5195    0.5680  -13.4384 C   0  0  0  0  0  0  0  0  0  0  0  0
    4.8606   -0.4993  -13.0619 S   0  0  0  0  0  0  0  0  0  0  0  0
    1.5308    1.5875  -12.4909 C   0  0  0  0  0  0  0  0  0  0  0  0
    1.3101    2.1994  -13.7035 C   0  0  0  0  0  0  0  0  0  0  0  0
    2.1807    2.0022  -14.7770 C   0  0  0  0  0  0  0  0  0  0  0  0
    3.2889    1.1876  -14.6563 C   0  0  0  0  0  0  0  0  0  0  0  0
   -0.3503    2.2187   11.6613 C   0  0  0  0  0  0  0  0  0  0  0  0
   -0.9109    2.8980   12.7678 C   0  0  0  0  0  0  0  0  0  0  0  0
   -2.4492    3.6556   12.3946 S   0  0  0  0  0  0  0  0  0  0  0  0
    0.8758    1.5660   11.8057 C   0  0  0  0  0  0  0  0  0  0  0  0
    1.5106    1.6008   13.0260 C   0  0  0  0  0  0  0  0  0  0  0  0
    0.9466    2.2753   14.1106 C   0  0  0  0  0  0  0  0  0  0  0  0
   -0.2647    2.9276   13.9932 C   0  0  0  0  0  0  0  0  0  0  0  0
   -1.5330    0.8054   -2.0136 H   0  0  0  0  0  0  0  0  0  0  0  0
    1.6273   -1.2552    1.2777 H   0  0  0  0  0  0  0  0  0  0  0  0
    0.7618   -1.1482    6.0361 H   0  0  0  0  0  0  0  0  0  0  0  0
    0.5564   -3.4570    6.8280 H   0  0  0  0  0  0  0  0  0  0  0  0
   -1.3381   -4.5449    3.1658 H   0  0  0  0  0  0  0  0  0  0  0  0
   -1.1487   -2.2409    2.3749 H   0  0  0  0  0  0  0  0  0  0  0  0
    2.2916   -1.4762    3.6375 H   0  0  0  0  0  0  0  0  0  0  0  0
    4.5698   -0.5859    3.6508 H   0  0  0  0  0  0  0  0  0  0  0  0
    3.0294    3.3772    3.9735 H   0  0  0  0  0  0  0  0  0  0  0  0
    0.7458    2.4938    3.9449 H   0  0  0  0  0  0  0  0  0  0  0  0
    0.2662   -5.8299    6.2161 H   0  0  0  0  0  0  0  0  0  0  0  0
   -0.5625   -6.2730    4.7164 H   0  0  0  0  0  0  0  0  0  0  0  0
   -2.7240   -5.4848    5.6799 H   0  0  0  0  0  0  0  0  0  0  0  0
   -1.8994   -5.0345    7.1719 H   0  0  0  0  0  0  0  0  0  0  0  0
   -1.9964   -6.7336    6.6964 H   0  0  0  0  0  0  0  0  0  0  0  0
    5.4130    2.9423    4.3332 H   0  0  0  0  0  0  0  0  0  0  0  0
    6.0511    1.2942    4.2441 H   0  0  0  0  0  0  0  0  0  0  0  0
    6.8136    2.6434    2.3012 H   0  0  0  0  0  0  0  0  0  0  0  0
    5.7706    1.3220    1.7643 H   0  0  0  0  0  0  0  0  0  0  0  0
    5.1347    2.9641    1.8523 H   0  0  0  0  0  0  0  0  0  0  0  0
   -0.5850    0.7272    6.6731 H   0  0  0  0  0  0  0  0  0  0  0  0
   -3.7930    2.9754    7.0520 H   0  0  0  0  0  0  0  0  0  0  0  0
   -1.1912   -2.1009   -3.1926 H   0  0  0  0  0  0  0  0  0  0  0  0
   -3.1685   -3.2491   -4.0543 H   0  0  0  0  0  0  0  0  0  0  0  0
   -2.9517   -0.9566   -7.6434 H   0  0  0  0  0  0  0  0  0  0  0  0
   -0.9769    0.2078   -6.7804 H   0  0  0  0  0  0  0  0  0  0  0  0
    2.2800    1.7021   -4.6157 H   0  0  0  0  0  0  0  0  0  0  0  0
    2.0902    4.1432   -4.6050 H   0  0  0  0  0  0  0  0  0  0  0  0
   -2.1526    3.8155   -4.3329 H   0  0  0  0  0  0  0  0  0  0  0  0
   -1.9712    1.3762   -4.3601 H   0  0  0  0  0  0  0  0  0  0  0  0
   -4.4193   -2.9163   -7.5073 H   0  0  0  0  0  0  0  0  0  0  0  0
   -4.4992   -3.8816   -6.0265 H   0  0  0  0  0  0  0  0  0  0  0  0
   -6.5910   -2.5777   -6.3456 H   0  0  0  0  0  0  0  0  0  0  0  0
   -5.6624   -1.0749   -6.3707 H   0  0  0  0  0  0  0  0  0  0  0  0
   -5.7415   -2.0363   -4.8943 H   0  0  0  0  0  0  0  0  0  0  0  0
    0.6707    6.1091   -4.9565 H   0  0  0  0  0  0  0  0  0  0  0  0
   -1.0920    5.9718   -4.8831 H   0  0  0  0  0  0  0  0  0  0  0  0
   -0.9656    5.6992   -2.4056 H   0  0  0  0  0  0  0  0  0  0  0  0
   -0.2189    7.2168   -2.9171 H   0  0  0  0  0  0  0  0  0  0  0  0
    0.7909    5.8348   -2.4778 H   0  0  0  0  0  0  0  0  0  0  0  0
    1.3115   -0.1932   -7.3911 H   0  0  0  0  0  0  0  0  0  0  0  0
    4.7320   -2.1096   -7.7510 H   0  0  0  0  0  0  0  0  0  0  0  0
    0.8685    1.7298  -11.6513 H   0  0  0  0  0  0  0  0  0  0  0  0
    0.4529    2.8430  -13.8314 H   0  0  0  0  0  0  0  0  0  0  0  0
    1.9846    2.4950  -15.7171 H   0  0  0  0  0  0  0  0  0  0  0  0
    3.9630    1.0339  -15.4843 H   0  0  0  0  0  0  0  0  0  0  0  0
    1.2982    1.0502   10.9577 H   0  0  0  0  0  0  0  0  0  0  0  0
    2.4592    1.1011   13.1515 H   0  0  0  0  0  0  0  0  0  0  0  0
    1.4661    2.2876   15.0567 H   0  0  0  0  0  0  0  0  0  0  0  0
   -0.7022    3.4497   14.8297 H   0  0  0  0  0  0  0  0  0  0  0  0
  1  2  1  0  0  0  0
  2  3  2  0  0  0  0
  3  4  1  0  0  0  0
  4  5  2  0  0  0  0
  5  6  1  0  0  0  0
  6  1  2  0  0  0  0
  4  7  1  0  0  0  0
  7  8  1  0  0  0  0
  8  9  2  0  0  0  0
  9  5  1  0  0  0  0
  8 10  1  0  0  0  0
 10 11  2  0  0  0  0
 11 12  1  0  0  0  0
 12  9  1  0  0  0  0
 12 13  1  0  0  0  0
 12 14  1  0  0  0  0
 13 15  2  0  0  0  0
 15 16  1  0  0  0  0
 16 17  2  0  0  0  0
 17 18  1  0  0  0  0
 18 19  2  0  0  0  0
 19 13  1  0  0  0  0
 14 20  2  0  0  0  0
 20 21  1  0  0  0  0
 21 22  2  0  0  0  0
 22 23  1  0  0  0  0
 23 24  2  0  0  0  0
 24 14  1  0  0  0  0
 17 25  1  0  0  0  0
 25 26  1  0  0  0  0
 22 27  1  0  0  0  0
 27 28  1  0  0  0  0
 10 29  1  0  0  0  0
 29 30  1  0  0  0  0
 30 31  2  0  0  0  0
 31 11  1  0  0  0  0
 30 32  1  0  0  0  0
 32 33  2  0  0  0  0
 33 34  1  0  0  0  0
 34 35  1  0  0  0  0
 35 36  2  0  0  0  0
 36 37  1  0  0  0  0
 37 33  1  0  0  0  0
 34 38  2  0  0  0  0
 37 39  2  0  0  0  0
 39 40  1  0  0  0  0
 39 41  1  0  0  0  0
 40 42  3  0  0  0  0
 41 43  3  0  0  0  0
 44 45  1  0  0  0  0
 45 46  2  0  0  0  0
 45 47  1  0  0  0  0
 47 48  2  0  0  0  0
 48 49  1  0  0  0  0
 49 46  1  0  0  0  0
 49 50  1  0  0  0  0
 49 51  1  0  0  0  0
 50 52  2  0  0  0  0
 52 53  1  0  0  0  0
 53 54  2  0  0  0  0
 54 55  1  0  0  0  0
 55 56  2  0  0  0  0
 56 50  1  0  0  0  0
 51 57  2  0  0  0  0
 57 58  1  0  0  0  0
 58 59  2  0  0  0  0
 59 60  1  0  0  0  0
 60 61  2  0  0  0  0
 61 51  1  0  0  0  0
 54 62  1  0  0  0  0
 62 63  1  0  0  0  0
 59 64  1  0  0  0  0
 64 65  1  0  0  0  0
 47 66  1  0  0  0  0
 66 67  1  0  0  0  0
 67 68  2  0  0  0  0
 68 48  1  0  0  0  0
 67 69  1  0  0  0  0
 69 70  2  0  0  0  0
 70 71  1  0  0  0  0
 71 72  1  0  0  0  0
 72 73  2  0  0  0  0
 73 74  1  0  0  0  0
 74 70  1  0  0  0  0
 71 75  2  0  0  0  0
 74 76  2  0  0  0  0
 76 77  1  0  0  0  0
 76 78  1  0  0  0  0
 77 79  3  0  0  0  0
 78 80  3  0  0  0  0
 44  1  1  0  0  0  0
 46  2  1  0  0  0  0
 72 81  1  0  0  0  0
 81 82  2  0  0  0  0
 82 83  1  0  0  0  0
 83 73  1  0  0  0  0
 81 84  1  0  0  0  0
 84 85  2  0  0  0  0
 85 86  1  0  0  0  0
 86 87  2  0  0  0  0
 87 82  1  0  0  0  0
 35 88  1  0  0  0  0
 88 89  2  0  0  0  0
 89 90  1  0  0  0  0
 90 36  1  0  0  0  0
 88 91  1  0  0  0  0
 91 92  2  0  0  0  0
 92 93  1  0  0  0  0
 93 94  2  0  0  0  0
 94 89  1  0  0  0  0
  3 95  1  0  0  0  0
  6 96  1  0  0  0  0
 15 97  1  0  0  0  0
 16 98  1  0  0  0  0
 18 99  1  0  0  0  0
 19100  1  0  0  0  0
 20101  1  0  0  0  0
 21102  1  0  0  0  0
 23103  1  0  0  0  0
 24104  1  0  0  0  0
 25105  1  0  0  0  0
 25106  1  0  0  0  0
 26107  1  0  0  0  0
 26108  1  0  0  0  0
 26109  1  0  0  0  0
 27110  1  0  0  0  0
 27111  1  0  0  0  0
 28112  1  0  0  0  0
 28113  1  0  0  0  0
 28114  1  0  0  0  0
 31115  1  0  0  0  0
 32116  1  0  0  0  0
 52117  1  0  0  0  0
 53118  1  0  0  0  0
 55119  1  0  0  0  0
 56120  1  0  0  0  0
 57121  1  0  0  0  0
 58122  1  0  0  0  0
 60123  1  0  0  0  0
 61124  1  0  0  0  0
 62125  1  0  0  0  0
 62126  1  0  0  0  0
 63127  1  0  0  0  0
 63128  1  0  0  0  0
 63129  1  0  0  0  0
 64130  1  0  0  0  0
 64131  1  0  0  0  0
 65132  1  0  0  0  0
 65133  1  0  0  0  0
 65134  1  0  0  0  0
 68135  1  0  0  0  0
 69136  1  0  0  0  0
 84137  1  0  0  0  0
 85138  1  0  0  0  0
 86139  1  0  0  0  0
 87140  1  0  0  0  0
 91141  1  0  0  0  0
 92142  1  0  0  0  0
 93143  1  0  0  0  0
 94144  1  0  0  0  0
M  END
