138
BDTC-4Cl.sdf
C         13.53580       -7.35380       -3.50350
C         13.54890       -7.22410       -4.88880
C         12.53190       -6.54250       -5.56370
C         11.47960       -5.97510       -4.85500
C         11.47290       -6.10560       -3.48230
C         12.48910       -6.79010       -2.79400
C         10.48310       -5.59650       -2.51030
C         10.96790       -6.00490       -1.19150
C         12.19510       -6.75230       -1.36050
C         10.36650       -5.70900        0.01180
C          9.19230       -5.01070        0.29560
C          8.75680       -4.80530        1.61850
C          7.58310       -4.09840        1.69460
C          7.08350       -3.77620        0.41700
S          8.07650       -4.30400       -0.86830
C          6.64860       -3.61250        2.78230
C          5.55780       -2.98890        1.93910
C          5.85690       -3.10310        0.57880
C          4.37370       -2.30080        2.16700
C          3.75500       -1.91210        0.98750
S          4.66330       -2.38770       -0.42570
C          2.52630       -1.20950        0.85000
C          7.28870       -2.50870        3.64800
C          6.15020       -4.82940        3.58600
C          5.13950       -4.51040        4.67930
C          8.46310       -2.96320        4.50380
O          9.47550       -4.96510       -2.77500
Cl        14.84540       -7.91910       -5.77600
Cl        12.57980       -6.40220       -7.27520
C         12.96060       -7.34180       -0.38560
C         14.14550       -8.06400       -0.63910
C         12.68990       -7.32960        0.99800
N         12.54560       -7.36950        2.13740
N         15.11560       -8.66450       -0.76850
C         -4.78060        2.90950        0.35650
S         -5.44350        3.21400       -1.23310
C         -6.78360        4.01680       -0.51850
C         -6.72080        4.03980        0.87650
C         -5.57890        3.41880        1.36690
C         -7.94880        4.67780       -0.95390
C         -8.64190        5.14340        0.18100
C         -7.90430        4.78440        1.45370
S         -8.73600        5.01220       -2.43240
C        -10.04790        5.78490       -1.54870
C         -9.82310        5.75370       -0.15940
C        -11.19640        6.36260       -2.09180
C        -11.61310        6.47620       -3.39960
C        -12.84410        7.09400       -3.84320
C        -12.89410        6.96980       -5.30080
C        -11.73460        6.30720       -5.73840
C        -10.89070        5.97890       -4.57090
C        -13.84010        7.37560       -6.22670
C        -13.61140        7.11170       -7.57360
C        -12.45440        6.45170       -7.99810
C        -11.50220        6.04340       -7.07170
Cl       -12.20490        6.14190       -9.66890
Cl       -14.78150        7.61120       -8.72830
O         -9.81510        5.40750       -4.60030
C        -13.80730        7.69570       -3.07260
C        -13.77830        7.83120       -1.66940
C        -14.98480        8.27640       -3.58890
C         -8.80950        3.88160        2.31400
C         -7.37970        6.03270        2.19200
C         -8.45910        6.93630        2.77190
C         -8.17670        3.37440        3.60280
N        -13.83600        7.98440       -0.53190
N        -15.96260        8.76700       -3.93680
S          1.95290       -0.73580       -0.73350
C          0.52830       -0.01530       -0.03860
C          0.52560       -0.13560        1.37390
C          1.66680       -0.82500        1.84320
C         -0.50800        0.56020       -0.76270
C         -1.58470        1.07470       -0.01190
C         -1.58770        0.95710        1.39990
C         -0.56100        0.36220        2.12460
C         -2.71090        1.78530       -0.48760
C         -3.56160        2.19530        0.49950
S         -3.00210        1.71040        2.08930
C         -0.62310        0.27690        3.56920
C         -1.71890        0.02370        4.34670
C         -1.44490        0.05010        5.72800
C         -0.14790        0.34010        6.01960
S          0.77300        0.57300        4.57020
C          0.50920        0.42730        7.35350
C          1.48210       -0.73270        7.57370
C         -0.50230        0.62110       -2.20910
C         -1.53560        0.37450       -3.07010
C         -1.17390        0.50580       -4.42480
C          0.12720        0.86300       -4.60630
S          0.94420        1.02990       -3.08830
C          0.86690        1.06580       -5.88280
C          1.88320       -0.05370       -6.11710
H         14.33810       -7.88640       -3.02020
H         10.68890       -5.44530       -5.36220
H         10.87200       -6.06420        0.90150
H          9.31570       -5.19170        2.45230
H          3.96500       -2.06730        3.13230
H          7.62560       -1.71630        2.97460
H          6.51300       -2.08440        4.28730
H          7.01770       -5.32410        4.02470
H          5.69870       -5.52940        2.87830
H          5.55500       -3.83120        5.41850
H          4.85630       -5.42950        5.18750
H          4.24100       -4.06750        4.25930
H          8.84460       -2.11710        5.07100
H          9.26950       -3.34410        3.88400
H          8.16670       -3.73520        5.20840
H         -5.30090        3.33140        2.40180
H        -10.53960        6.16770        0.52770
H        -11.85660        6.77680       -1.33950
H        -14.74450        7.88640       -5.94010
H        -10.60470        5.53360       -7.38440
H         -9.71780        4.43830        2.54840
H         -9.10090        3.02550        1.70010
H         -6.77960        6.60720        1.48160
H         -6.71230        5.70160        2.98910
H         -9.11050        7.31370        1.98890
H         -9.06190        6.41340        3.50910
H         -7.99160        7.78780        3.26110
H         -8.89420        2.75530        4.13680
H         -7.29990        2.76860        3.39300
H         -7.88940        4.19520        4.25400
H          1.84070       -1.04560        2.87910
H         -2.87660        2.01830       -1.52360
H         -2.68620       -0.21390        3.94240
H         -2.18930       -0.13780        6.48120
H          1.05480        1.37110        7.43500
H         -0.26370        0.41190        8.12460
H          1.93910       -0.66010        8.55720
H          2.26860       -0.71150        6.82240
H          0.95980       -1.68420        7.50180
H         -2.51230        0.06300       -2.74480
H         -1.85870        0.34120       -5.23780
H          1.39130        2.02440       -5.85620
H          0.14830        1.09150       -6.70470
H          1.38110       -1.01760       -6.16090
H          2.41130        0.10670       -7.05350
H          2.60870       -0.07930       -5.30720
