92
BDTN-Th.mol
O         -6.69840       -3.28600        4.59500
C         -7.24090       -2.71330        5.51990
C         -8.45910       -3.15510        6.20960
C         -9.33540       -4.18630        6.11240
S        -10.57600       -4.04480        7.30250
C         -9.90690       -2.58580        7.93490
C         -8.78200       -2.23340        7.25440
C         -7.78960       -1.17670        7.27190
C         -6.83950       -1.45640        6.20250
C         -5.76940       -0.63790        5.93980
C         -4.75600       -0.69010        4.96860
C         -4.50230       -1.57880        3.93330
C         -3.37020       -1.22280        3.21360
N         -2.69670       -1.70390        2.12030
C         -3.17770       -2.82310        1.34160
C         -3.10670       -4.13330        2.12290
C         -1.65890       -0.84360        1.87090
C         -0.64060       -0.66630        0.88830
C         -0.20990       -1.45870       -0.18800
O         -0.64030       -2.74820       -0.39340
C         -0.02470       -3.71110        0.46050
C          1.44450       -3.94910        0.13990
C          0.68370       -0.90780       -1.09020
S          1.21200       -1.78510       -2.50950
C         -1.68290        0.20170        2.81800
S         -0.49860        1.43010        2.53830
C          0.02570        0.57510        1.09660
C          0.97550        1.09580        0.22930
O          1.59850        2.28930        0.49980
C          2.54430        2.26620        1.56680
C          3.75810        1.40160        1.24920
C          1.25190        0.38860       -0.95220
C          2.07140        0.67590       -2.08110
N          2.81200        1.72250       -2.56300
C          2.82730        3.10380       -2.14050
C          1.89190        3.95030       -3.00060
C          2.15350       -0.41060       -2.97880
C          2.97300       -0.01920       -4.03110
C          3.35780        1.31760       -3.75350
C          4.17010        1.88360       -4.72580
C          4.42430        0.99670       -5.76290
C          5.17570        1.11410       -6.94360
C          5.85510        2.16740       -7.50330
C          5.94400        3.57290       -7.03100
C          6.71290        4.27860       -8.06400
C          7.14570        5.54490       -8.28670
S          8.02840        5.63500       -9.76610
C          7.81220        3.95330      -10.08460
C          7.09270        3.36060       -9.09280
C          6.58810        2.04390       -8.75660
C          6.82060        0.92630       -9.51700
C          6.40530       -0.39210       -9.24700
N          6.11870       -1.49550       -9.10370
C          7.56360        1.00570      -10.71350
N          8.16360        1.05000      -11.69090
O          5.48670        4.06810       -6.01970
S          3.64000       -0.57880       -5.50870
C         -2.74740       -0.03620        3.67850
S         -3.56060        0.62350        5.03640
C         -7.80950       -0.13500        8.16380
C         -8.82470       -0.03530        9.13850
N         -9.64040        0.06370        9.94000
C         -6.89300        0.93030        8.25790
N         -6.19690        1.83200        8.40880
H         -9.33660       -5.01100        5.42840
H        -10.39220       -2.10040        8.75740
H         -5.67350        0.22180        6.59300
H         -5.13790       -2.42260        3.74220
H         -2.58580       -2.88510        0.42900
H         -4.21890       -2.62300        1.06610
H         -2.09880       -4.31410        2.48740
H         -3.78140       -4.11630        2.97400
H         -3.39420       -4.95530        1.47360
H         -0.12970       -3.39600        1.50740
H         -0.59950       -4.62510        0.29740
H          1.82630       -4.74290        0.77600
H          2.02910       -3.04850        0.31680
H          1.55930       -4.24130       -0.90040
H          2.83380        3.31190        1.68970
H          2.06940        1.92220        2.49210
H          3.46170        0.36190        1.12210
H          4.24090        1.73880        0.33510
H          4.47010        1.46380        2.06700
H          2.51000        3.15080       -1.10050
H          3.85300        3.47320       -2.23050
H          2.19360        3.92010       -4.04480
H          1.91760        4.98150       -2.66080
H          0.87140        3.58310       -2.91880
H          4.56840        2.88100       -4.71480
H          5.20330        0.19110       -7.51160
H          7.00740        6.42220       -7.68720
H          8.22900        3.53090      -10.97650
