89
BIBT-NI.sdf
N          2.06880        2.61700       10.57870
C          0.78040        2.18840       10.30900
C          0.46210        1.91400        8.89910
C          1.42920        2.10260        7.89160
C          2.71330        2.57510        8.23390
C          3.05960        2.84770        9.63960
C          2.39980        2.89530       11.97270
C          2.11190        4.34910       12.32460
O          4.15490        3.24900        9.97750
O         -0.03030        2.04860       11.20290
C          1.11540        1.82870        6.53360
C          2.09770        2.10350        5.56100
C          3.33860        2.56890        5.91450
C          3.65820        2.79350        7.25370
C         -0.80220        1.47430        8.56150
C         -1.11600        1.18620        7.23880
C         -0.18540        1.33250        6.22170
C         -0.58170        0.95280        4.87840
S          0.43480        0.02420        3.83210
C         -0.79050       -0.02210        2.59070
C         -1.92810        0.63760        3.02920
C         -1.81980        1.16430        4.31060
C         -0.62450       -0.62870        1.30160
C         -1.59570       -0.38260        0.27070
C         -1.48640       -0.97260       -1.03630
C         -0.43900       -1.87220       -1.39980
C          0.49510       -2.06920       -0.39770
C          0.41370       -1.45790        0.88690
C          1.75540       -2.84380       -0.44660
N          2.34680       -2.67770        0.79160
C          1.61690       -1.86820        1.63280
N         -2.66090        0.41000        0.34740
S         -3.44500        0.41210       -1.05440
N         -2.47510       -0.59760       -1.83940
O          1.98140       -1.57510        2.75080
C          3.60240       -3.29160        1.16570
C          3.37570       -4.63110        1.85690
O          2.25180       -3.48610       -1.34020
N         -2.81200       -1.77120      -11.24630
C         -1.62770       -2.33020      -10.79590
C         -1.48800       -2.48660       -9.33990
C         -2.51440       -2.07190       -8.46780
C         -3.69950       -1.51880       -8.99620
C         -3.85790       -1.33870      -10.45020
C         -2.95310       -1.58780      -12.68740
C         -2.40150       -0.23630      -13.12280
O         -4.85090       -0.84140      -10.94190
O         -0.76310       -2.67190      -11.57770
C         -2.36620       -2.21510       -7.06210
C         -3.45780       -1.85800       -6.24510
C         -4.60630       -1.33210       -6.78020
C         -4.72670       -1.14280       -8.15690
C         -0.33800       -3.05040       -8.82470
C         -0.17030       -3.17390       -7.45100
C         -1.14280       -2.75040       -6.55750
C         -0.84650       -2.85330       -5.14210
S         -1.25450       -1.61210       -4.00410
C         -0.44370       -2.45120       -2.71340
C          0.07870       -3.64280       -3.16510
C         -0.14010       -3.86190       -4.52570
H          1.79550        2.22810       12.58950
H          3.46060        2.67590       12.10570
H          1.05710        4.56870       12.17710
H          2.70620        5.01060       11.69880
H          2.36510        4.53080       13.36530
H          1.86720        1.95620        4.51840
H          4.07510        2.76920        5.15130
H          4.63370        3.15360        7.54360
H         -1.53260        1.34220        9.34540
H         -2.09830        0.80700        7.00070
H         -2.81180        0.72530        2.42690
H         -2.60690        1.71610        4.79310
H          4.17980       -3.42700        0.24810
H          4.11930       -2.60090        1.83610
H          2.78700       -4.49180        2.76070
H          4.33130       -5.07130        2.12640
H          2.85070       -5.31380        1.19250
H         -4.01660       -1.65760      -12.92180
H         -2.40490       -2.39630      -13.17410
H         -1.34450       -0.16610      -12.87650
H         -2.93920        0.56650      -12.62350
H         -2.51900       -0.12140      -14.19650
H         -3.39830       -2.01260       -5.17980
H         -5.42820       -1.06660       -6.13280
H         -5.62210       -0.72120       -8.58800
H          0.43370       -3.37230       -9.50740
H          0.75500       -3.57610       -7.06770
H          0.60000       -4.33530       -2.53340
H          0.18490       -4.74930       -5.03860
