BN-0F.mol
  xtb     01102216223D
 energy: -216.214777260945 gnorm: 0.000311844397 xtb: 6.4.1 (unknown)
132144  0     0  0            999 V2000
    7.7858   -3.4085   -4.7362 O   0  0  0  0  0  0  0  0  0  0  0  0
    8.3714   -3.7759   -5.7424 C   0  0  0  0  0  0  0  0  0  0  0  0
    9.8199   -3.6883   -5.9864 C   0  0  0  0  0  0  0  0  0  0  0  0
   10.1070   -4.2325   -7.2706 C   0  0  0  0  0  0  0  0  0  0  0  0
    8.8537   -4.6780   -7.8759 C   0  0  0  0  0  0  0  0  0  0  0  0
    7.7895   -4.3863   -6.9397 C   0  0  0  0  0  0  0  0  0  0  0  0
    6.4500   -4.6271   -7.1437 C   0  0  0  0  0  0  0  0  0  0  0  0
    5.3458   -4.3759   -6.3264 C   0  0  0  0  0  0  0  0  0  0  0  0
    4.0360   -4.6774   -6.7424 C   0  0  0  0  0  0  0  0  0  0  0  0
    3.0856   -4.3467   -5.8085 C   0  0  0  0  0  0  0  0  0  0  0  0
    1.5792   -4.3970   -5.6918 C   0  0  0  0  0  0  0  0  0  0  0  0
    1.0591   -5.8450   -5.5566 C   0  0  0  0  0  0  0  0  0  0  0  0
    1.3188   -6.7366   -6.7632 C   0  0  0  0  0  0  0  0  0  0  0  0
    0.8862   -3.6461   -6.8389 C   0  0  0  0  0  0  0  0  0  0  0  0
    1.2586   -2.1685   -6.8813 C   0  0  0  0  0  0  0  0  0  0  0  0
    3.6606   -3.7695   -4.6592 C   0  0  0  0  0  0  0  0  0  0  0  0
    5.3643   -3.6562   -4.7199 S   0  0  0  0  0  0  0  0  0  0  0  0
    2.6186   -3.3901   -3.7881 C   0  0  0  0  0  0  0  0  0  0  0  0
    1.3887   -3.7060   -4.3610 C   0  0  0  0  0  0  0  0  0  0  0  0
    0.3078   -3.3224   -3.5749 C   0  0  0  0  0  0  0  0  0  0  0  0
    0.6961   -2.7118   -2.3970 C   0  0  0  0  0  0  0  0  0  0  0  0
    2.4462   -2.6263   -2.2626 S   0  0  0  0  0  0  0  0  0  0  0  0
   -0.1061   -2.1458   -1.3434 C   0  0  0  0  0  0  0  0  0  0  0  0
   -1.4611   -1.7780   -1.5225 C   0  0  0  0  0  0  0  0  0  0  0  0
   -2.0058   -2.0122   -2.7473 O   0  0  0  0  0  0  0  0  0  0  0  0
   -3.3548   -1.6785   -3.0110 C   0  0  0  0  0  0  0  0  0  0  0  0
   -4.3386   -2.6918   -2.4323 C   0  0  0  0  0  0  0  0  0  0  0  0
   -2.1323   -1.1672   -0.4803 C   0  0  0  0  0  0  0  0  0  0  0  0
   -1.5357   -0.9059    0.7582 C   0  0  0  0  0  0  0  0  0  0  0  0
   -0.1952   -1.3134    0.9460 C   0  0  0  0  0  0  0  0  0  0  0  0
    0.3217   -1.0960    2.1808 O   0  0  0  0  0  0  0  0  0  0  0  0
    1.6983   -1.2950    2.4423 C   0  0  0  0  0  0  0  0  0  0  0  0
    2.5732   -0.2021    1.8391 C   0  0  0  0  0  0  0  0  0  0  0  0
    0.4831   -1.9072   -0.0992 C   0  0  0  0  0  0  0  0  0  0  0  0
   -2.2536   -0.2172    1.7944 C   0  0  0  0  0  0  0  0  0  0  0  0
   -3.5484    0.2811    1.7322 C   0  0  0  0  0  0  0  0  0  0  0  0
   -3.9284    0.9578    2.8832 C   0  0  0  0  0  0  0  0  0  0  0  0
   -5.1537    1.6867    3.3891 C   0  0  0  0  0  0  0  0  0  0  0  0
   -6.3423    0.7272    3.6158 C   0  0  0  0  0  0  0  0  0  0  0  0
   -6.9770    0.1492    2.3591 C   0  0  0  0  0  0  0  0  0  0  0  0
   -5.5317    2.9408    2.5670 C   0  0  0  0  0  0  0  0  0  0  0  0
   -5.3033    2.8477    1.0630 C   0  0  0  0  0  0  0  0  0  0  0  0
   -2.9118    0.9623    3.8434 C   0  0  0  0  0  0  0  0  0  0  0  0
   -1.4959    0.1430    3.3246 S   0  0  0  0  0  0  0  0  0  0  0  0
   -3.3520    1.6683    4.9806 C   0  0  0  0  0  0  0  0  0  0  0  0
   -4.6605    2.1212    4.7540 C   0  0  0  0  0  0  0  0  0  0  0  0
   -5.1753    2.8493    5.8044 C   0  0  0  0  0  0  0  0  0  0  0  0
   -4.2732    2.9731    6.8622 C   0  0  0  0  0  0  0  0  0  0  0  0
   -2.7541    2.1303    6.5096 S   0  0  0  0  0  0  0  0  0  0  0  0
   -4.3503    3.6068    8.1086 C   0  0  0  0  0  0  0  0  0  0  0  0
   -5.3050    4.4295    8.6592 C   0  0  0  0  0  0  0  0  0  0  0  0
   -5.1942    4.9835    9.9961 C   0  0  0  0  0  0  0  0  0  0  0  0
   -4.3310    4.5928   10.9902 C   0  0  0  0  0  0  0  0  0  0  0  0
   -3.3941    3.5416   10.9169 C   0  0  0  0  0  0  0  0  0  0  0  0
   -2.6205    2.6926   10.9615 N   0  0  0  0  0  0  0  0  0  0  0  0
   -4.2916    5.1768   12.2727 C   0  0  0  0  0  0  0  0  0  0  0  0
   -4.1991    5.6071   13.3338 N   0  0  0  0  0  0  0  0  0  0  0  0
   -6.2233    6.0074   10.1463 C   0  0  0  0  0  0  0  0  0  0  0  0
   -7.0175    6.0158    8.9670 C   0  0  0  0  0  0  0  0  0  0  0  0
   -8.0710    6.8680    8.8091 C   0  0  0  0  0  0  0  0  0  0  0  0
   -8.3809    7.7781    9.8447 C   0  0  0  0  0  0  0  0  0  0  0  0
   -7.5866    7.7821   11.0266 C   0  0  0  0  0  0  0  0  0  0  0  0
   -7.9003    8.6976   12.0514 C   0  0  0  0  0  0  0  0  0  0  0  0
   -8.9477    9.5679   11.9172 C   0  0  0  0  0  0  0  0  0  0  0  0
   -9.7294    9.5628   10.7527 C   0  0  0  0  0  0  0  0  0  0  0  0
   -9.4521    8.6864    9.7388 C   0  0  0  0  0  0  0  0  0  0  0  0
   -6.5042    6.8814   11.1621 C   0  0  0  0  0  0  0  0  0  0  0  0
   -6.5054    5.0075    8.0206 C   0  0  0  0  0  0  0  0  0  0  0  0
   -7.0010    4.7481    6.9398 O   0  0  0  0  0  0  0  0  0  0  0  0
    8.7430   -5.2668   -9.1123 C   0  0  0  0  0  0  0  0  0  0  0  0
    7.5478   -5.7029   -9.7172 C   0  0  0  0  0  0  0  0  0  0  0  0
    6.6224   -6.0851  -10.2827 N   0  0  0  0  0  0  0  0  0  0  0  0
    9.8352   -5.5247   -9.9651 C   0  0  0  0  0  0  0  0  0  0  0  0
   10.6756   -5.7657  -10.7103 N   0  0  0  0  0  0  0  0  0  0  0  0
   11.3986   -4.2587   -7.7231 C   0  0  0  0  0  0  0  0  0  0  0  0
   12.4338   -3.7423   -6.9084 C   0  0  0  0  0  0  0  0  0  0  0  0
   13.7734   -3.7534   -7.3457 C   0  0  0  0  0  0  0  0  0  0  0  0
   14.7723   -3.2503   -6.5569 C   0  0  0  0  0  0  0  0  0  0  0  0
   14.4774   -2.7133   -5.2955 C   0  0  0  0  0  0  0  0  0  0  0  0
   13.1868   -2.6886   -4.8400 C   0  0  0  0  0  0  0  0  0  0  0  0
   12.1360   -3.1988   -5.6265 C   0  0  0  0  0  0  0  0  0  0  0  0
   10.7955   -3.1833   -5.1781 C   0  0  0  0  0  0  0  0  0  0  0  0
    6.1798   -5.0768   -8.0915 H   0  0  0  0  0  0  0  0  0  0  0  0
    3.8447   -5.1051   -7.7108 H   0  0  0  0  0  0  0  0  0  0  0  0
   -0.0151   -5.7968   -5.3647 H   0  0  0  0  0  0  0  0  0  0  0  0
    1.5328   -6.2916   -4.6785 H   0  0  0  0  0  0  0  0  0  0  0  0
    0.9206   -7.7302   -6.5701 H   0  0  0  0  0  0  0  0  0  0  0  0
    0.8357   -6.3479   -7.6552 H   0  0  0  0  0  0  0  0  0  0  0  0
    2.3843   -6.8306   -6.9521 H   0  0  0  0  0  0  0  0  0  0  0  0
   -0.1945   -3.7455   -6.7179 H   0  0  0  0  0  0  0  0  0  0  0  0
    1.1691   -4.1111   -7.7838 H   0  0  0  0  0  0  0  0  0  0  0  0
    0.9435   -1.6637   -5.9709 H   0  0  0  0  0  0  0  0  0  0  0  0
    2.3343   -2.0467   -6.9874 H   0  0  0  0  0  0  0  0  0  0  0  0
    0.7741   -1.6860   -7.7268 H   0  0  0  0  0  0  0  0  0  0  0  0
   -0.7216   -3.4754   -3.8334 H   0  0  0  0  0  0  0  0  0  0  0  0
   -3.4210   -1.6838   -4.1030 H   0  0  0  0  0  0  0  0  0  0  0  0
   -3.5803   -0.6636   -2.6624 H   0  0  0  0  0  0  0  0  0  0  0  0
   -5.3530   -2.4100   -2.7006 H   0  0  0  0  0  0  0  0  0  0  0  0
   -4.1300   -3.6799   -2.8345 H   0  0  0  0  0  0  0  0  0  0  0  0
   -4.2592   -2.7422   -1.3493 H   0  0  0  0  0  0  0  0  0  0  0  0
   -3.1536   -0.8589   -0.6171 H   0  0  0  0  0  0  0  0  0  0  0  0
    1.7647   -1.2673    3.5331 H   0  0  0  0  0  0  0  0  0  0  0  0
    2.0137   -2.2878    2.1006 H   0  0  0  0  0  0  0  0  0  0  0  0
    3.6079   -0.3656    2.1260 H   0  0  0  0  0  0  0  0  0  0  0  0
    2.5060   -0.1997    0.7540 H   0  0  0  0  0  0  0  0  0  0  0  0
    2.2537    0.7692    2.2082 H   0  0  0  0  0  0  0  0  0  0  0  0
    1.5085   -2.2147    0.0291 H   0  0  0  0  0  0  0  0  0  0  0  0
   -4.1763    0.1594    0.8701 H   0  0  0  0  0  0  0  0  0  0  0  0
   -7.1014    1.2714    4.1817 H   0  0  0  0  0  0  0  0  0  0  0  0
   -5.9885   -0.0946    4.2442 H   0  0  0  0  0  0  0  0  0  0  0  0
   -6.2453   -0.3942    1.7678 H   0  0  0  0  0  0  0  0  0  0  0  0
   -7.7648   -0.5459    2.6423 H   0  0  0  0  0  0  0  0  0  0  0  0
   -7.4228    0.9298    1.7493 H   0  0  0  0  0  0  0  0  0  0  0  0
   -6.5795    3.1708    2.7671 H   0  0  0  0  0  0  0  0  0  0  0  0
   -4.9393    3.7789    2.9417 H   0  0  0  0  0  0  0  0  0  0  0  0
   -4.2458    2.7267    0.8416 H   0  0  0  0  0  0  0  0  0  0  0  0
   -5.6443    3.7679    0.5927 H   0  0  0  0  0  0  0  0  0  0  0  0
   -5.8487    2.0197    0.6210 H   0  0  0  0  0  0  0  0  0  0  0  0
   -6.1503    3.2986    5.8379 H   0  0  0  0  0  0  0  0  0  0  0  0
   -3.4768    3.4287    8.7255 H   0  0  0  0  0  0  0  0  0  0  0  0
   -8.6594    6.8506    7.9035 H   0  0  0  0  0  0  0  0  0  0  0  0
   -7.2960    8.6969   12.9468 H   0  0  0  0  0  0  0  0  0  0  0  0
   -9.1798   10.2653   12.7083 H   0  0  0  0  0  0  0  0  0  0  0  0
  -10.5519   10.2568   10.6626 H   0  0  0  0  0  0  0  0  0  0  0  0
  -10.0504    8.6779    8.8391 H   0  0  0  0  0  0  0  0  0  0  0  0
   -5.9205    6.9143   12.0680 H   0  0  0  0  0  0  0  0  0  0  0  0
   11.6594   -4.6611   -8.6889 H   0  0  0  0  0  0  0  0  0  0  0  0
   13.9956   -4.1677   -8.3183 H   0  0  0  0  0  0  0  0  0  0  0  0
   15.7956   -3.2634   -6.9014 H   0  0  0  0  0  0  0  0  0  0  0  0
   15.2771   -2.3193   -4.6861 H   0  0  0  0  0  0  0  0  0  0  0  0
   12.9532   -2.2765   -3.8690 H   0  0  0  0  0  0  0  0  0  0  0  0
   10.5489   -2.7755   -4.2089 H   0  0  0  0  0  0  0  0  0  0  0  0
  1  2  2  0  0  0  0
  2  3  1  0  0  0  0
  3  4  2  0  0  0  0
  4  5  1  0  0  0  0
  5  6  1  0  0  0  0
  2  6  1  0  0  0  0
  6  7  2  0  0  0  0
  7  8  1  0  0  0  0
  8  9  2  0  0  0  0
  9 10  1  0  0  0  0
 10 11  1  0  0  0  0
 11 12  1  0  0  0  0
 12 13  1  0  0  0  0
 11 14  1  0  0  0  0
 14 15  1  0  0  0  0
 10 16  2  0  0  0  0
 16 17  1  0  0  0  0
  8 17  1  0  0  0  0
 16 18  1  0  0  0  0
 18 19  2  0  0  0  0
 11 19  1  0  0  0  0
 19 20  1  0  0  0  0
 20 21  2  0  0  0  0
 21 22  1  0  0  0  0
 18 22  1  0  0  0  0
 21 23  1  0  0  0  0
 23 24  2  0  0  0  0
 24 25  1  0  0  0  0
 25 26  1  0  0  0  0
 26 27  1  0  0  0  0
 24 28  1  0  0  0  0
 28 29  2  0  0  0  0
 29 30  1  0  0  0  0
 30 31  1  0  0  0  0
 31 32  1  0  0  0  0
 32 33  1  0  0  0  0
 30 34  2  0  0  0  0
 23 34  1  0  0  0  0
 29 35  1  0  0  0  0
 35 36  2  0  0  0  0
 36 37  1  0  0  0  0
 37 38  1  0  0  0  0
 38 39  1  0  0  0  0
 39 40  1  0  0  0  0
 38 41  1  0  0  0  0
 41 42  1  0  0  0  0
 37 43  2  0  0  0  0
 43 44  1  0  0  0  0
 35 44  1  0  0  0  0
 43 45  1  0  0  0  0
 45 46  2  0  0  0  0
 38 46  1  0  0  0  0
 46 47  1  0  0  0  0
 47 48  2  0  0  0  0
 48 49  1  0  0  0  0
 45 49  1  0  0  0  0
 48 50  1  0  0  0  0
 50 51  2  0  0  0  0
 51 52  1  0  0  0  0
 52 53  2  0  0  0  0
 53 54  1  0  0  0  0
 54 55  3  0  0  0  0
 53 56  1  0  0  0  0
 56 57  3  0  0  0  0
 52 58  1  0  0  0  0
 58 59  2  0  0  0  0
 59 60  1  0  0  0  0
 60 61  2  0  0  0  0
 61 62  1  0  0  0  0
 62 63  1  0  0  0  0
 63 64  2  0  0  0  0
 64 65  1  0  0  0  0
 65 66  2  0  0  0  0
 61 66  1  0  0  0  0
 62 67  2  0  0  0  0
 58 67  1  0  0  0  0
 59 68  1  0  0  0  0
 51 68  1  0  0  0  0
 68 69  2  0  0  0  0
  5 70  2  0  0  0  0
 70 71  1  0  0  0  0
 71 72  3  0  0  0  0
 70 73  1  0  0  0  0
 73 74  3  0  0  0  0
  4 75  1  0  0  0  0
 75 76  2  0  0  0  0
 76 77  1  0  0  0  0
 77 78  2  0  0  0  0
 78 79  1  0  0  0  0
 79 80  2  0  0  0  0
 76 81  1  0  0  0  0
 80 81  1  0  0  0  0
 81 82  2  0  0  0  0
  3 82  1  0  0  0  0
  7 83  1  0  0  0  0
  9 84  1  0  0  0  0
 12 85  1  0  0  0  0
 12 86  1  0  0  0  0
 13 87  1  0  0  0  0
 13 88  1  0  0  0  0
 13 89  1  0  0  0  0
 14 90  1  0  0  0  0
 14 91  1  0  0  0  0
 15 92  1  0  0  0  0
 15 93  1  0  0  0  0
 15 94  1  0  0  0  0
 20 95  1  0  0  0  0
 26 96  1  0  0  0  0
 26 97  1  0  0  0  0
 27 98  1  0  0  0  0
 27 99  1  0  0  0  0
 27100  1  0  0  0  0
 28101  1  0  0  0  0
 32102  1  0  0  0  0
 32103  1  0  0  0  0
 33104  1  0  0  0  0
 33105  1  0  0  0  0
 33106  1  0  0  0  0
 34107  1  0  0  0  0
 36108  1  0  0  0  0
 39109  1  0  0  0  0
 39110  1  0  0  0  0
 40111  1  0  0  0  0
 40112  1  0  0  0  0
 40113  1  0  0  0  0
 41114  1  0  0  0  0
 41115  1  0  0  0  0
 42116  1  0  0  0  0
 42117  1  0  0  0  0
 42118  1  0  0  0  0
 47119  1  0  0  0  0
 50120  1  0  0  0  0
 60121  1  0  0  0  0
 63122  1  0  0  0  0
 64123  1  0  0  0  0
 65124  1  0  0  0  0
 66125  1  0  0  0  0
 67126  1  0  0  0  0
 75127  1  0  0  0  0
 77128  1  0  0  0  0
 78129  1  0  0  0  0
 79130  1  0  0  0  0
 80131  1  0  0  0  0
 82132  1  0  0  0  0
M  END
