BN-4F.mol
  xtb     01102216253D
 energy: -233.120537862972 gnorm: 0.000338861110 xtb: 6.4.1 (unknown)
132144  0     0  0            999 V2000
   -3.9360   -7.4147    3.4868 O   0  0  0  0  0  0  0  0  0  0  0  0
   -4.1252   -8.6172    3.5683 C   0  0  0  0  0  0  0  0  0  0  0  0
   -5.4048   -9.2705    3.9032 C   0  0  0  0  0  0  0  0  0  0  0  0
   -6.6112   -8.6961    4.1762 C   0  0  0  0  0  0  0  0  0  0  0  0
   -7.7158   -9.5283    4.4668 C   0  0  0  0  0  0  0  0  0  0  0  0
   -8.9848   -8.9906    4.7543 C   0  0  0  0  0  0  0  0  0  0  0  0
  -10.0366   -9.8190    5.0295 C   0  0  0  0  0  0  0  0  0  0  0  0
  -11.2449   -9.3047    5.3029 F   0  0  0  0  0  0  0  0  0  0  0  0
   -9.8653  -11.2169    5.0289 C   0  0  0  0  0  0  0  0  0  0  0  0
  -10.9150  -12.0055    5.3014 F   0  0  0  0  0  0  0  0  0  0  0  0
   -8.6451  -11.7682    4.7542 C   0  0  0  0  0  0  0  0  0  0  0  0
   -7.5405  -10.9419    4.4669 C   0  0  0  0  0  0  0  0  0  0  0  0
   -6.2746  -11.5055    4.1814 C   0  0  0  0  0  0  0  0  0  0  0  0
   -5.2180  -10.6805    3.9028 C   0  0  0  0  0  0  0  0  0  0  0  0
   -3.8203  -10.9615    3.5723 C   0  0  0  0  0  0  0  0  0  0  0  0
   -3.1586   -9.6940    3.3601 C   0  0  0  0  0  0  0  0  0  0  0  0
   -1.8362   -9.5270    3.0055 C   0  0  0  0  0  0  0  0  0  0  0  0
   -1.1034   -8.3693    2.7497 C   0  0  0  0  0  0  0  0  0  0  0  0
   -1.6924   -6.7095    2.8233 S   0  0  0  0  0  0  0  0  0  0  0  0
    0.2507   -8.4182    2.3625 C   0  0  0  0  0  0  0  0  0  0  0  0
    0.7816   -7.1781    2.1207 C   0  0  0  0  0  0  0  0  0  0  0  0
   -0.1564   -6.1484    2.3327 C   0  0  0  0  0  0  0  0  0  0  0  0
    0.4568   -4.9178    2.0260 C   0  0  0  0  0  0  0  0  0  0  0  0
    0.0122   -3.2628    1.9466 S   0  0  0  0  0  0  0  0  0  0  0  0
    1.7742   -5.1430    1.6164 C   0  0  0  0  0  0  0  0  0  0  0  0
    2.1184   -6.6123    1.6927 C   0  0  0  0  0  0  0  0  0  0  0  0
    2.5746   -7.1724    0.3370 C   0  0  0  0  0  0  0  0  0  0  0  0
    1.5292   -6.9863   -0.7567 C   0  0  0  0  0  0  0  0  0  0  0  0
    3.1424   -6.9104    2.8102 C   0  0  0  0  0  0  0  0  0  0  0  0
    4.4947   -6.2309    2.6419 C   0  0  0  0  0  0  0  0  0  0  0  0
    2.4035   -3.9778    1.2054 C   0  0  0  0  0  0  0  0  0  0  0  0
    1.5871   -2.8573    1.3111 C   0  0  0  0  0  0  0  0  0  0  0  0
    1.8891   -1.5136    0.9048 C   0  0  0  0  0  0  0  0  0  0  0  0
    0.9475   -0.4724    1.0759 C   0  0  0  0  0  0  0  0  0  0  0  0
   -0.1862   -0.8026    1.7410 O   0  0  0  0  0  0  0  0  0  0  0  0
   -1.2789    0.0942    1.8164 C   0  0  0  0  0  0  0  0  0  0  0  0
   -2.0354    0.2073    0.4981 C   0  0  0  0  0  0  0  0  0  0  0  0
    1.2351    0.7842    0.5860 C   0  0  0  0  0  0  0  0  0  0  0  0
    3.1056   -1.1991    0.2895 C   0  0  0  0  0  0  0  0  0  0  0  0
    3.4018    0.0632   -0.1906 C   0  0  0  0  0  0  0  0  0  0  0  0
    4.5644    0.3807   -0.8218 O   0  0  0  0  0  0  0  0  0  0  0  0
    5.6014   -0.5738   -0.9494 C   0  0  0  0  0  0  0  0  0  0  0  0
    6.3893   -0.7659    0.3432 C   0  0  0  0  0  0  0  0  0  0  0  0
    2.4322    1.0890   -0.0695 C   0  0  0  0  0  0  0  0  0  0  0  0
    2.5994    2.4074   -0.6221 C   0  0  0  0  0  0  0  0  0  0  0  0
    3.7257    3.0146   -1.1496 C   0  0  0  0  0  0  0  0  0  0  0  0
    3.4783    4.3002   -1.6188 C   0  0  0  0  0  0  0  0  0  0  0  0
    4.2689    5.3882   -2.3127 C   0  0  0  0  0  0  0  0  0  0  0  0
    5.3475    6.0034   -1.4000 C   0  0  0  0  0  0  0  0  0  0  0  0
    6.4807    5.0600   -1.0195 C   0  0  0  0  0  0  0  0  0  0  0  0
    4.8165    4.8233   -3.6384 C   0  0  0  0  0  0  0  0  0  0  0  0
    5.5844    5.8203   -4.4955 C   0  0  0  0  0  0  0  0  0  0  0  0
    2.1432    4.6770   -1.4748 C   0  0  0  0  0  0  0  0  0  0  0  0
    1.1975    3.4621   -0.7229 S   0  0  0  0  0  0  0  0  0  0  0  0
    1.9448    5.9579   -2.0236 C   0  0  0  0  0  0  0  0  0  0  0  0
    3.1769    6.4144   -2.5338 C   0  0  0  0  0  0  0  0  0  0  0  0
    3.0709    7.6767   -3.0607 C   0  0  0  0  0  0  0  0  0  0  0  0
    1.7631    8.1954   -2.9939 C   0  0  0  0  0  0  0  0  0  0  0  0
    0.6578    7.0624   -2.2226 S   0  0  0  0  0  0  0  0  0  0  0  0
    1.4489    9.4562   -3.5000 C   0  0  0  0  0  0  0  0  0  0  0  0
    0.2482   10.1319   -3.5455 C   0  0  0  0  0  0  0  0  0  0  0  0
    0.0409   11.4461   -4.1118 C   0  0  0  0  0  0  0  0  0  0  0  0
    0.9761   12.2649   -4.6964 C   0  0  0  0  0  0  0  0  0  0  0  0
    2.3454   11.9733   -4.8580 C   0  0  0  0  0  0  0  0  0  0  0  0
    3.4713   11.8183   -5.0306 N   0  0  0  0  0  0  0  0  0  0  0  0
    0.6880   13.5386   -5.2278 C   0  0  0  0  0  0  0  0  0  0  0  0
    0.5244   14.5819   -5.6792 N   0  0  0  0  0  0  0  0  0  0  0  0
   -1.3768   11.7740   -3.9584 C   0  0  0  0  0  0  0  0  0  0  0  0
   -2.0228   10.6851   -3.3101 C   0  0  0  0  0  0  0  0  0  0  0  0
   -3.3571   10.6941   -3.0275 C   0  0  0  0  0  0  0  0  0  0  0  0
   -4.1264   11.8222   -3.3914 C   0  0  0  0  0  0  0  0  0  0  0  0
   -3.4898   12.9182   -4.0414 C   0  0  0  0  0  0  0  0  0  0  0  0
   -4.2609   14.0403   -4.4040 C   0  0  0  0  0  0  0  0  0  0  0  0
   -5.6006   14.0722   -4.1345 C   0  0  0  0  0  0  0  0  0  0  0  0
   -6.2285   12.9878   -3.4913 C   0  0  0  0  0  0  0  0  0  0  0  0
   -7.5444   13.0457   -3.2388 F   0  0  0  0  0  0  0  0  0  0  0  0
   -5.5078   11.8851   -3.1265 C   0  0  0  0  0  0  0  0  0  0  0  0
   -6.3324   15.1407   -4.4815 F   0  0  0  0  0  0  0  0  0  0  0  0
   -2.1031   12.8774   -4.3187 C   0  0  0  0  0  0  0  0  0  0  0  0
   -1.0272    9.6326   -3.0338 C   0  0  0  0  0  0  0  0  0  0  0  0
   -1.2466    8.5649   -2.4857 O   0  0  0  0  0  0  0  0  0  0  0  0
   -3.2738  -12.2192    3.4873 C   0  0  0  0  0  0  0  0  0  0  0  0
   -3.9951  -13.4097    3.7097 C   0  0  0  0  0  0  0  0  0  0  0  0
   -4.5195  -14.4179    3.8765 N   0  0  0  0  0  0  0  0  0  0  0  0
   -1.9337  -12.5198    3.1721 C   0  0  0  0  0  0  0  0  0  0  0  0
   -0.8628  -12.8556    2.9233 N   0  0  0  0  0  0  0  0  0  0  0  0
   -6.7223   -7.6224    4.1694 H   0  0  0  0  0  0  0  0  0  0  0  0
   -9.1320   -7.9219    4.7582 H   0  0  0  0  0  0  0  0  0  0  0  0
   -8.5312  -12.8410    4.7580 H   0  0  0  0  0  0  0  0  0  0  0  0
   -6.1778  -12.5788    4.1900 H   0  0  0  0  0  0  0  0  0  0  0  0
   -1.2523  -10.4320    2.8890 H   0  0  0  0  0  0  0  0  0  0  0  0
    0.7722   -9.3541    2.2644 H   0  0  0  0  0  0  0  0  0  0  0  0
    3.4945   -6.6684    0.0381 H   0  0  0  0  0  0  0  0  0  0  0  0
    2.7921   -8.2356    0.4558 H   0  0  0  0  0  0  0  0  0  0  0  0
    1.3040   -5.9314   -0.8981 H   0  0  0  0  0  0  0  0  0  0  0  0
    0.6067   -7.5022   -0.5015 H   0  0  0  0  0  0  0  0  0  0  0  0
    1.8980   -7.3885   -1.6972 H   0  0  0  0  0  0  0  0  0  0  0  0
    2.7049   -6.5932    3.7601 H   0  0  0  0  0  0  0  0  0  0  0  0
    3.2824   -7.9924    2.8544 H   0  0  0  0  0  0  0  0  0  0  0  0
    4.3855   -5.1498    2.6448 H   0  0  0  0  0  0  0  0  0  0  0  0
    4.9800   -6.5357    1.7187 H   0  0  0  0  0  0  0  0  0  0  0  0
    5.1432   -6.5078    3.4700 H   0  0  0  0  0  0  0  0  0  0  0  0
    3.4079   -3.9402    0.8262 H   0  0  0  0  0  0  0  0  0  0  0  0
   -1.9251   -0.3441    2.5813 H   0  0  0  0  0  0  0  0  0  0  0  0
   -0.9441    1.0776    2.1667 H   0  0  0  0  0  0  0  0  0  0  0  0
   -2.3765   -0.7763    0.1855 H   0  0  0  0  0  0  0  0  0  0  0  0
   -2.8975    0.8549    0.6284 H   0  0  0  0  0  0  0  0  0  0  0  0
   -1.4021    0.6193   -0.2837 H   0  0  0  0  0  0  0  0  0  0  0  0
    0.5180    1.5806    0.7026 H   0  0  0  0  0  0  0  0  0  0  0  0
    3.8231   -1.9917    0.1711 H   0  0  0  0  0  0  0  0  0  0  0  0
    5.2096   -1.5278   -1.3213 H   0  0  0  0  0  0  0  0  0  0  0  0
    6.2549   -0.1535   -1.7196 H   0  0  0  0  0  0  0  0  0  0  0  0
    5.7527   -1.1449    1.1388 H   0  0  0  0  0  0  0  0  0  0  0  0
    6.8070    0.1847    0.6650 H   0  0  0  0  0  0  0  0  0  0  0  0
    7.2013   -1.4676    0.1745 H   0  0  0  0  0  0  0  0  0  0  0  0
    4.6751    2.5188   -1.1853 H   0  0  0  0  0  0  0  0  0  0  0  0
    5.7559    6.8824   -1.9004 H   0  0  0  0  0  0  0  0  0  0  0  0
    4.8512    6.3480   -0.4890 H   0  0  0  0  0  0  0  0  0  0  0  0
    7.0212    4.7157   -1.8969 H   0  0  0  0  0  0  0  0  0  0  0  0
    6.1010    4.1976   -0.4790 H   0  0  0  0  0  0  0  0  0  0  0  0
    7.1833    5.5821   -0.3737 H   0  0  0  0  0  0  0  0  0  0  0  0
    3.9660    4.4441   -4.2109 H   0  0  0  0  0  0  0  0  0  0  0  0
    5.4571    3.9714   -3.4054 H   0  0  0  0  0  0  0  0  0  0  0  0
    6.4561    6.2053   -3.9737 H   0  0  0  0  0  0  0  0  0  0  0  0
    5.9251    5.3281   -5.4038 H   0  0  0  0  0  0  0  0  0  0  0  0
    4.9504    6.6540   -4.7825 H   0  0  0  0  0  0  0  0  0  0  0  0
    3.8734    8.2529   -3.4859 H   0  0  0  0  0  0  0  0  0  0  0  0
    2.3043    9.9667   -3.9255 H   0  0  0  0  0  0  0  0  0  0  0  0
   -3.8196    9.8526   -2.5343 H   0  0  0  0  0  0  0  0  0  0  0  0
   -3.7958   14.8796   -4.8972 H   0  0  0  0  0  0  0  0  0  0  0  0
   -6.0030   11.0625   -2.6347 H   0  0  0  0  0  0  0  0  0  0  0  0
   -1.6537   13.7242   -4.8113 H   0  0  0  0  0  0  0  0  0  0  0  0
  1  2  2  0  0  0  0
  2  3  1  0  0  0  0
  3  4  2  0  0  0  0
  4  5  1  0  0  0  0
  5  6  2  0  0  0  0
  6  7  1  0  0  0  0
  7  8  1  0  0  0  0
  7  9  2  0  0  0  0
  9 10  1  0  0  0  0
  9 11  1  0  0  0  0
 11 12  2  0  0  0  0
  5 12  1  0  0  0  0
 12 13  1  0  0  0  0
 13 14  2  0  0  0  0
  3 14  1  0  0  0  0
 14 15  1  0  0  0  0
 15 16  1  0  0  0  0
  2 16  1  0  0  0  0
 16 17  2  0  0  0  0
 17 18  1  0  0  0  0
 18 19  1  0  0  0  0
 18 20  2  0  0  0  0
 20 21  1  0  0  0  0
 21 22  2  0  0  0  0
 19 22  1  0  0  0  0
 22 23  1  0  0  0  0
 23 24  1  0  0  0  0
 23 25  2  0  0  0  0
 25 26  1  0  0  0  0
 21 26  1  0  0  0  0
 26 27  1  0  0  0  0
 27 28  1  0  0  0  0
 26 29  1  0  0  0  0
 29 30  1  0  0  0  0
 25 31  1  0  0  0  0
 31 32  2  0  0  0  0
 24 32  1  0  0  0  0
 32 33  1  0  0  0  0
 33 34  2  0  0  0  0
 34 35  1  0  0  0  0
 35 36  1  0  0  0  0
 36 37  1  0  0  0  0
 34 38  1  0  0  0  0
 33 39  1  0  0  0  0
 39 40  2  0  0  0  0
 40 41  1  0  0  0  0
 41 42  1  0  0  0  0
 42 43  1  0  0  0  0
 40 44  1  0  0  0  0
 38 44  2  0  0  0  0
 44 45  1  0  0  0  0
 45 46  2  0  0  0  0
 46 47  1  0  0  0  0
 47 48  1  0  0  0  0
 48 49  1  0  0  0  0
 49 50  1  0  0  0  0
 48 51  1  0  0  0  0
 51 52  1  0  0  0  0
 47 53  2  0  0  0  0
 53 54  1  0  0  0  0
 45 54  1  0  0  0  0
 53 55  1  0  0  0  0
 55 56  2  0  0  0  0
 48 56  1  0  0  0  0
 56 57  1  0  0  0  0
 57 58  2  0  0  0  0
 58 59  1  0  0  0  0
 55 59  1  0  0  0  0
 58 60  1  0  0  0  0
 60 61  2  0  0  0  0
 61 62  1  0  0  0  0
 62 63  2  0  0  0  0
 63 64  1  0  0  0  0
 64 65  3  0  0  0  0
 63 66  1  0  0  0  0
 66 67  3  0  0  0  0
 62 68  1  0  0  0  0
 68 69  2  0  0  0  0
 69 70  1  0  0  0  0
 70 71  2  0  0  0  0
 71 72  1  0  0  0  0
 72 73  1  0  0  0  0
 73 74  2  0  0  0  0
 74 75  1  0  0  0  0
 75 76  1  0  0  0  0
 75 77  2  0  0  0  0
 71 77  1  0  0  0  0
 74 78  1  0  0  0  0
 72 79  2  0  0  0  0
 68 79  1  0  0  0  0
 69 80  1  0  0  0  0
 61 80  1  0  0  0  0
 80 81  2  0  0  0  0
 15 82  2  0  0  0  0
 82 83  1  0  0  0  0
 83 84  3  0  0  0  0
 82 85  1  0  0  0  0
 85 86  3  0  0  0  0
  4 87  1  0  0  0  0
  6 88  1  0  0  0  0
 11 89  1  0  0  0  0
 13 90  1  0  0  0  0
 17 91  1  0  0  0  0
 20 92  1  0  0  0  0
 27 93  1  0  0  0  0
 27 94  1  0  0  0  0
 28 95  1  0  0  0  0
 28 96  1  0  0  0  0
 28 97  1  0  0  0  0
 29 98  1  0  0  0  0
 29 99  1  0  0  0  0
 30100  1  0  0  0  0
 30101  1  0  0  0  0
 30102  1  0  0  0  0
 31103  1  0  0  0  0
 36104  1  0  0  0  0
 36105  1  0  0  0  0
 37106  1  0  0  0  0
 37107  1  0  0  0  0
 37108  1  0  0  0  0
 38109  1  0  0  0  0
 39110  1  0  0  0  0
 42111  1  0  0  0  0
 42112  1  0  0  0  0
 43113  1  0  0  0  0
 43114  1  0  0  0  0
 43115  1  0  0  0  0
 46116  1  0  0  0  0
 49117  1  0  0  0  0
 49118  1  0  0  0  0
 50119  1  0  0  0  0
 50120  1  0  0  0  0
 50121  1  0  0  0  0
 51122  1  0  0  0  0
 51123  1  0  0  0  0
 52124  1  0  0  0  0
 52125  1  0  0  0  0
 52126  1  0  0  0  0
 57127  1  0  0  0  0
 60128  1  0  0  0  0
 70129  1  0  0  0  0
 73130  1  0  0  0  0
 77131  1  0  0  0  0
 79132  1  0  0  0  0
M  END
