BPT-4F.sdf
  xtb     12202113393D
 energy: -178.549843399714 gnorm: 0.000877698592 xtb: 6.4.1 (unknown)
 85 96  0     0  0            999 V2000
   -7.5515   -0.7797   -0.8658 C   0  0  0  0  0  0  0  0  0  0  0  0
   -6.4083   -0.7094   -0.4498 O   0  0  0  0  0  0  0  0  0  0  0  0
   -8.7182   -1.2836   -0.1137 C   0  0  0  0  0  0  0  0  0  0  0  0
   -8.7592   -1.7789    1.1744 C   0  0  0  0  0  0  0  0  0  0  0  0
   -9.9866   -2.1977    1.6622 C   0  0  0  0  0  0  0  0  0  0  0  0
  -10.0740   -2.6860    2.9051 F   0  0  0  0  0  0  0  0  0  0  0  0
  -11.1313   -2.1152    0.8691 C   0  0  0  0  0  0  0  0  0  0  0  0
  -12.3029   -2.5268    1.3647 F   0  0  0  0  0  0  0  0  0  0  0  0
  -11.0885   -1.6167   -0.4251 C   0  0  0  0  0  0  0  0  0  0  0  0
   -9.8646   -1.1960   -0.9211 C   0  0  0  0  0  0  0  0  0  0  0  0
   -9.4851   -0.6338   -2.2192 C   0  0  0  0  0  0  0  0  0  0  0  0
  -10.3516   -0.3881   -3.2519 C   0  0  0  0  0  0  0  0  0  0  0  0
  -11.7377   -0.6510   -3.1996 C   0  0  0  0  0  0  0  0  0  0  0  0
  -12.8686   -0.8441   -3.2240 N   0  0  0  0  0  0  0  0  0  0  0  0
  -10.0095    0.1620   -4.5056 C   0  0  0  0  0  0  0  0  0  0  0  0
   -9.8156    0.6049   -5.5474 N   0  0  0  0  0  0  0  0  0  0  0  0
   -8.0561   -0.3914   -2.1837 C   0  0  0  0  0  0  0  0  0  0  0  0
   -7.2986    0.1047   -3.2185 C   0  0  0  0  0  0  0  0  0  0  0  0
   -5.9263    0.3645   -3.2966 C   0  0  0  0  0  0  0  0  0  0  0  0
   -4.7440    0.1262   -2.0138 S   0  0  0  0  0  0  0  0  0  0  0  0
   -3.4863    0.6779   -3.0537 C   0  0  0  0  0  0  0  0  0  0  0  0
   -3.9667    1.0313   -4.3331 C   0  0  0  0  0  0  0  0  0  0  0  0
   -5.3292    0.8559   -4.4626 C   0  0  0  0  0  0  0  0  0  0  0  0
   -2.7131    1.5917   -5.4223 S   0  0  0  0  0  0  0  0  0  0  0  0
   -1.5520    1.3436   -4.1632 C   0  0  0  0  0  0  0  0  0  0  0  0
   -2.1045    0.8538   -2.9717 C   0  0  0  0  0  0  0  0  0  0  0  0
   -1.1223    0.6730   -2.0317 N   0  0  0  0  0  0  0  0  0  0  0  0
   -1.5087    0.6911   -0.6350 C   0  0  0  0  0  0  0  0  0  0  0  0
    0.0787    1.0486   -2.6115 C   0  0  0  0  0  0  0  0  0  0  0  0
   -0.1780    1.5003   -3.9402 C   0  0  0  0  0  0  0  0  0  0  0  0
    0.8390    2.0630   -4.7450 C   0  0  0  0  0  0  0  0  0  0  0  0
    0.7431    2.5559   -5.9694 N   0  0  0  0  0  0  0  0  0  0  0  0
    2.1863    3.1466   -6.4006 S   0  0  0  0  0  0  0  0  0  0  0  0
    2.9916    2.7930   -5.0425 N   0  0  0  0  0  0  0  0  0  0  0  0
    2.1593    2.1988   -4.2025 C   0  0  0  0  0  0  0  0  0  0  0  0
    2.4346    1.6489   -2.9297 C   0  0  0  0  0  0  0  0  0  0  0  0
    1.4208    1.0052   -2.1562 C   0  0  0  0  0  0  0  0  0  0  0  0
    2.0164    0.4233   -1.0571 N   0  0  0  0  0  0  0  0  0  0  0  0
    1.5344   -0.6015   -0.1586 C   0  0  0  0  0  0  0  0  0  0  0  0
    1.3356   -0.0761    1.2622 C   0  0  0  0  0  0  0  0  0  0  0  0
    3.3533    0.7115   -1.1001 C   0  0  0  0  0  0  0  0  0  0  0  0
    3.6397    1.4807   -2.2379 C   0  0  0  0  0  0  0  0  0  0  0  0
    5.3183    1.8654   -2.4158 S   0  0  0  0  0  0  0  0  0  0  0  0
    5.6495    0.9562   -0.9545 C   0  0  0  0  0  0  0  0  0  0  0  0
    4.4958    0.3959   -0.3641 C   0  0  0  0  0  0  0  0  0  0  0  0
    4.8629   -0.5015    1.0598 S   0  0  0  0  0  0  0  0  0  0  0  0
    6.5739   -0.1371    0.8647 C   0  0  0  0  0  0  0  0  0  0  0  0
    6.8059    0.6566   -0.2643 C   0  0  0  0  0  0  0  0  0  0  0  0
    7.6138   -0.5754    1.6912 C   0  0  0  0  0  0  0  0  0  0  0  0
    7.5855   -1.3532    2.8251 C   0  0  0  0  0  0  0  0  0  0  0  0
    8.7397   -1.7696    3.5972 C   0  0  0  0  0  0  0  0  0  0  0  0
   10.0597   -1.5064    3.3398 C   0  0  0  0  0  0  0  0  0  0  0  0
   11.1272   -1.9616    4.1436 C   0  0  0  0  0  0  0  0  0  0  0  0
   12.0376   -2.2978    4.7557 N   0  0  0  0  0  0  0  0  0  0  0  0
   10.5568   -0.7611    2.2494 C   0  0  0  0  0  0  0  0  0  0  0  0
   11.0431   -0.1687    1.3939 N   0  0  0  0  0  0  0  0  0  0  0  0
    8.2464   -2.5576    4.7290 C   0  0  0  0  0  0  0  0  0  0  0  0
    8.9113   -3.1846    5.7710 C   0  0  0  0  0  0  0  0  0  0  0  0
    8.1534   -3.8696    6.7100 C   0  0  0  0  0  0  0  0  0  0  0  0
    8.7772   -4.4804    7.7227 F   0  0  0  0  0  0  0  0  0  0  0  0
    6.7626   -3.9359    6.6240 C   0  0  0  0  0  0  0  0  0  0  0  0
    6.0714   -4.6077    7.5523 F   0  0  0  0  0  0  0  0  0  0  0  0
    6.0900   -3.3122    5.5856 C   0  0  0  0  0  0  0  0  0  0  0  0
    6.8455   -2.6311    4.6521 C   0  0  0  0  0  0  0  0  0  0  0  0
    6.3823   -1.8899    3.4620 C   0  0  0  0  0  0  0  0  0  0  0  0
    5.2240   -1.7619    3.1053 O   0  0  0  0  0  0  0  0  0  0  0  0
   -1.4807    2.1150   -0.0840 C   0  0  0  0  0  0  0  0  0  0  0  0
   -7.8714   -1.8409    1.7831 H   0  0  0  0  0  0  0  0  0  0  0  0
  -12.0025   -1.5757   -0.9942 H   0  0  0  0  0  0  0  0  0  0  0  0
   -7.8224    0.3328   -4.1386 H   0  0  0  0  0  0  0  0  0  0  0  0
   -5.8925    1.0643   -5.3541 H   0  0  0  0  0  0  0  0  0  0  0  0
   -0.8726    0.0454   -0.0386 H   0  0  0  0  0  0  0  0  0  0  0  0
   -2.5265    0.2966   -0.5868 H   0  0  0  0  0  0  0  0  0  0  0  0
    2.2901   -1.3941   -0.1305 H   0  0  0  0  0  0  0  0  0  0  0  0
    0.6238   -1.0333   -0.5757 H   0  0  0  0  0  0  0  0  0  0  0  0
    2.2975    0.1681    1.7044 H   0  0  0  0  0  0  0  0  0  0  0  0
    0.7174    0.8174    1.2759 H   0  0  0  0  0  0  0  0  0  0  0  0
    0.8673   -0.8416    1.8743 H   0  0  0  0  0  0  0  0  0  0  0  0
    7.7910    0.9806   -0.5473 H   0  0  0  0  0  0  0  0  0  0  0  0
    8.5867   -0.2351    1.3590 H   0  0  0  0  0  0  0  0  0  0  0  0
    9.9824   -3.1647    5.8855 H   0  0  0  0  0  0  0  0  0  0  0  0
    5.0152   -3.3606    5.5144 H   0  0  0  0  0  0  0  0  0  0  0  0
   -1.7941    2.1145    0.9562 H   0  0  0  0  0  0  0  0  0  0  0  0
   -2.1574    2.7521   -0.6486 H   0  0  0  0  0  0  0  0  0  0  0  0
   -0.4785    2.5340   -0.1518 H   0  0  0  0  0  0  0  0  0  0  0  0
  1  2  2  0  0  0  0
  1  3  1  0  0  0  0
  3  4  2  0  0  0  0
  4  5  1  0  0  0  0
  5  6  1  0  0  0  0
  5  7  2  0  0  0  0
  7  8  1  0  0  0  0
  7  9  1  0  0  0  0
  9 10  2  0  0  0  0
  3 10  1  0  0  0  0
 10 11  1  0  0  0  0
 11 12  2  0  0  0  0
 12 13  1  0  0  0  0
 13 14  3  0  0  0  0
 12 15  1  0  0  0  0
 15 16  3  0  0  0  0
 11 17  1  0  0  0  0
  1 17  1  0  0  0  0
 17 18  2  0  0  0  0
 18 19  1  0  0  0  0
 19 20  1  0  0  0  0
 20 21  1  0  0  0  0
 21 22  2  0  0  0  0
 22 23  1  0  0  0  0
 19 23  2  0  0  0  0
 22 24  1  0  0  0  0
 24 25  1  0  0  0  0
 25 26  2  0  0  0  0
 21 26  1  0  0  0  0
 26 27  1  0  0  0  0
 27 28  1  0  0  0  0
 27 29  1  0  0  0  0
 29 30  2  0  0  0  0
 25 30  1  0  0  0  0
 30 31  1  0  0  0  0
 31 32  2  0  0  0  0
 32 33  1  0  0  0  0
 33 34  1  0  0  0  0
 34 35  2  0  0  0  0
 31 35  1  0  0  0  0
 35 36  1  0  0  0  0
 36 37  2  0  0  0  0
 29 37  1  0  0  0  0
 37 38  1  0  0  0  0
 38 39  1  0  0  0  0
 39 40  1  0  0  0  0
 38 41  1  0  0  0  0
 41 42  2  0  0  0  0
 36 42  1  0  0  0  0
 42 43  1  0  0  0  0
 43 44  1  0  0  0  0
 44 45  2  0  0  0  0
 41 45  1  0  0  0  0
 45 46  1  0  0  0  0
 46 47  1  0  0  0  0
 47 48  2  0  0  0  0
 44 48  1  0  0  0  0
 47 49  1  0  0  0  0
 49 50  2  0  0  0  0
 50 51  1  0  0  0  0
 51 52  2  0  0  0  0
 52 53  1  0  0  0  0
 53 54  3  0  0  0  0
 52 55  1  0  0  0  0
 55 56  3  0  0  0  0
 51 57  1  0  0  0  0
 57 58  2  0  0  0  0
 58 59  1  0  0  0  0
 59 60  1  0  0  0  0
 59 61  2  0  0  0  0
 61 62  1  0  0  0  0
 61 63  1  0  0  0  0
 63 64  2  0  0  0  0
 57 64  1  0  0  0  0
 64 65  1  0  0  0  0
 65 66  2  0  0  0  0
 50 65  1  0  0  0  0
 28 67  1  0  0  0  0
  4 68  1  0  0  0  0
  9 69  1  0  0  0  0
 18 70  1  0  0  0  0
 23 71  1  0  0  0  0
 28 72  1  0  0  0  0
 28 73  1  0  0  0  0
 39 74  1  0  0  0  0
 39 75  1  0  0  0  0
 40 76  1  0  0  0  0
 40 77  1  0  0  0  0
 40 78  1  0  0  0  0
 48 79  1  0  0  0  0
 49 80  1  0  0  0  0
 58 81  1  0  0  0  0
 63 82  1  0  0  0  0
 67 83  1  0  0  0  0
 67 84  1  0  0  0  0
 67 85  1  0  0  0  0
M  END
