111
BPTCN.sdf
C          1.77140        0.39120        1.43260
C          1.23370       -0.87560        1.57420
C         -0.13390       -1.12970        1.46410
C         -1.04920       -0.12790        1.17420
C         -0.53050        1.18150        1.00870
C          0.87460        1.44340        1.13370
N         -1.21550        2.28050        0.70010
S         -0.18520        3.51290        0.57410
N          1.16810        2.71780        0.88110
C          3.17980        0.66180        1.55990
S          4.37270       -0.42220        0.89420
C          5.71510        0.60440        1.38080
C          5.22470        1.69900        2.05420
C          3.80590        1.73070        2.13930
C          5.73800        2.83600        2.83440
N          4.61060        3.49140        3.30860
C          3.40810        2.88260        2.96300
C          4.68230        4.68750        4.11950
C          4.66290        5.94050        3.25120
O          2.32330        3.24880        3.33890
O          6.87170        3.16800        3.09010
C          7.02430        0.16000        1.02530
C          8.15550        0.87740        0.64700
C          9.20610        0.02000        0.32780
C          8.91330       -1.33490        0.42620
S          7.27080       -1.55950        0.94290
C          8.24660        2.35880        0.48150
C          7.30890        2.86670       -0.61530
C          9.84200       -2.34780        0.11080
C          9.67950       -3.69880        0.07860
S         10.98690       -4.76880       -0.40100
C          9.95420       -6.17230       -0.23890
N          8.70480       -5.82110        0.16820
C          8.48680       -4.46890        0.37490
C          7.62660       -6.75400        0.44540
C          7.75180       -7.35540        1.83980
O          7.41350       -4.03230        0.74580
C         10.43900       -7.42210       -0.52790
C         11.77670       -7.56040       -0.95630
C          9.73570       -8.63670       -0.45040
N         12.86230       -7.68090       -1.30570
N          9.22470       -9.66410       -0.40180
C         -2.44870       -0.36900        0.97760
S         -3.45260        0.91640        0.35120
C         -4.88120       -0.10170        0.25970
C         -4.55970       -1.35300        0.74780
C         -3.20680       -1.50720        1.13700
C         -5.25420       -2.61980        0.98350
N         -4.28820       -3.46920        1.50670
C         -3.03320       -2.89000        1.61460
C         -4.55730       -4.84700        1.85890
C         -4.37190       -5.77040        0.66010
O         -2.05390       -3.46610        2.02700
O         -6.40970       -2.92800        0.80260
C         -6.11530        0.33130       -0.29400
C         -6.44860        1.55910       -0.87430
C         -7.73510        1.56470       -1.40740
C         -8.41570        0.36960       -1.25360
S         -7.43810       -0.79270       -0.39630
C         -5.58140        2.77610       -0.92030
C         -5.60620        3.52200        0.41550
C         -9.69300       -0.06750       -1.67020
C        -10.63310        0.51690       -2.46340
S        -12.11040       -0.37360       -2.81800
C        -12.68120        0.88970       -3.88060
N        -11.80140        1.92340       -3.92760
C        -10.64610        1.79650       -3.16370
C        -11.96000        3.10420       -4.75720
C        -11.50740        2.84500       -6.18930
O         -9.80830        2.67230       -3.12970
C        -13.88420        0.75830       -4.52760
C        -14.47160        1.67940       -5.41130
C        -14.65160       -0.40880       -4.32580
N        -15.00590        2.38230       -6.14620
N        -15.28300       -1.35350       -4.17050
H          1.89770       -1.69820        1.79500
H         -0.48620       -2.13860        1.60910
H          5.60850        4.63770        4.69730
H          3.82180        4.67690        4.79260
H          4.70750        6.82490        3.88020
H          3.74910        5.97360        2.66230
H          5.51800        5.94520        2.57920
H         10.17220        0.37110        0.00840
H          8.00450        2.84900        1.42520
H          9.27460        2.61560        0.22100
H          7.53810        2.38750       -1.56520
H          6.27070        2.66030       -0.36810
H          7.42600        3.94080       -0.73340
H         10.82390       -1.97900       -0.16450
H          7.62090       -7.53350       -0.31770
H          6.70410       -6.17100        0.37590
H          7.73990       -6.56850        2.59060
H          8.66990       -7.92960        1.93900
H          6.91310       -8.02140        2.01840
H         -3.86680       -5.11870        2.66070
H         -5.58710       -4.89600        2.22050
H         -3.34950       -5.71080        0.29390
H         -4.58020       -6.79600        0.95080
H         -5.05280       -5.48770       -0.13950
H         -8.16390        2.41480       -1.90410
H         -5.95990        3.43530       -1.70300
H         -4.55370        2.50750       -1.17010
H         -5.23800        2.89020        1.21940
H         -4.97810        4.40670        0.35940
H         -6.62180        3.82900        0.65380
H         -9.94790       -1.06040       -1.31460
H        -11.32920        3.87400       -4.30420
H        -13.00150        3.42720       -4.72870
H        -10.46280        2.54220       -6.20360
H        -11.61580        3.75600       -6.77000
H        -12.10940        2.06940       -6.65670
