BT-BO-L4F.mol
  xtb     01102216503D
 energy: -210.428798962693 gnorm: 0.000749119867 xtb: 6.4.1 (unknown)
109122  0     0  0            999 V2000
    2.3571    4.9932   -3.0793 O   0  0  0  0  0  0  0  0  0  0  0  0
    2.6986    6.0732   -3.5342 C   0  0  0  0  0  0  0  0  0  0  0  0
    3.5750    6.2815   -4.7007 C   0  0  0  0  0  0  0  0  0  0  0  0
    4.1797    5.3487   -5.4915 C   0  0  0  0  0  0  0  0  0  0  0  0
    4.9910    5.7824   -6.5637 C   0  0  0  0  0  0  0  0  0  0  0  0
    5.1547    7.1790   -6.7917 C   0  0  0  0  0  0  0  0  0  0  0  0
    4.5134    8.1204   -5.9530 C   0  0  0  0  0  0  0  0  0  0  0  0
    3.7327    7.6783   -4.9184 C   0  0  0  0  0  0  0  0  0  0  0  0
    2.9647    8.3948   -3.9003 C   0  0  0  0  0  0  0  0  0  0  0  0
    2.3393    7.4045   -3.0488 C   0  0  0  0  0  0  0  0  0  0  0  0
    1.5473    7.6826   -1.9571 C   0  0  0  0  0  0  0  0  0  0  0  0
    0.8893    6.8371   -1.0633 C   0  0  0  0  0  0  0  0  0  0  0  0
    0.1110    7.3146    0.0096 C   0  0  0  0  0  0  0  0  0  0  0  0
   -0.1664    8.7493    0.3169 C   0  0  0  0  0  0  0  0  0  0  0  0
   -1.3339    9.2685   -0.5273 C   0  0  0  0  0  0  0  0  0  0  0  0
   -0.4348    6.2711    0.7411 C   0  0  0  0  0  0  0  0  0  0  0  0
   -1.4574    6.2394    2.1668 S   0  0  0  0  0  0  0  0  0  0  0  0
   -1.4172    4.5117    2.1144 C   0  0  0  0  0  0  0  0  0  0  0  0
   -0.6725    3.9929    1.0479 C   0  0  0  0  0  0  0  0  0  0  0  0
   -0.6775    2.6259    1.0995 N   0  0  0  0  0  0  0  0  0  0  0  0
   -1.4317    2.2364    2.1894 C   0  0  0  0  0  0  0  0  0  0  0  0
   -1.8820    3.4201    2.8543 C   0  0  0  0  0  0  0  0  0  0  0  0
   -2.5843    3.3832    4.0791 C   0  0  0  0  0  0  0  0  0  0  0  0
   -3.0311    4.3941    4.8074 N   0  0  0  0  0  0  0  0  0  0  0  0
   -3.7070    3.7963    6.1518 S   0  0  0  0  0  0  0  0  0  0  0  0
   -3.4560    2.2250    5.8537 N   0  0  0  0  0  0  0  0  0  0  0  0
   -2.8346    2.1143    4.6903 C   0  0  0  0  0  0  0  0  0  0  0  0
   -2.4545    0.9414    4.0013 C   0  0  0  0  0  0  0  0  0  0  0  0
   -1.8055    0.9725    2.7273 C   0  0  0  0  0  0  0  0  0  0  0  0
   -1.6896   -0.3300    2.2814 N   0  0  0  0  0  0  0  0  0  0  0  0
   -2.2067   -1.1590    3.2390 C   0  0  0  0  0  0  0  0  0  0  0  0
   -2.6777   -0.4018    4.3188 C   0  0  0  0  0  0  0  0  0  0  0  0
   -3.3804   -1.3454    5.5851 S   0  0  0  0  0  0  0  0  0  0  0  0
   -3.0523   -2.7881    4.6424 C   0  0  0  0  0  0  0  0  0  0  0  0
   -2.4274   -2.5281    3.4081 C   0  0  0  0  0  0  0  0  0  0  0  0
   -2.1499   -3.9718    2.5094 S   0  0  0  0  0  0  0  0  0  0  0  0
   -2.8665   -4.9318    3.8068 C   0  0  0  0  0  0  0  0  0  0  0  0
   -3.0106   -6.3194    3.7931 C   0  0  0  0  0  0  0  0  0  0  0  0
   -2.6918   -7.2528    2.8324 C   0  0  0  0  0  0  0  0  0  0  0  0
   -2.9182   -8.6783    2.9473 C   0  0  0  0  0  0  0  0  0  0  0  0
   -2.4768   -9.2959    1.6973 C   0  0  0  0  0  0  0  0  0  0  0  0
   -2.4791  -10.5976    1.2720 C   0  0  0  0  0  0  0  0  0  0  0  0
   -1.9824  -10.9094   -0.0152 C   0  0  0  0  0  0  0  0  0  0  0  0
   -1.9772  -12.2402   -0.4784 C   0  0  0  0  0  0  0  0  0  0  0  0
   -1.4965  -12.5344   -1.7237 C   0  0  0  0  0  0  0  0  0  0  0  0
   -1.4935  -13.8002   -2.1631 F   0  0  0  0  0  0  0  0  0  0  0  0
   -0.9997  -11.5149   -2.5596 C   0  0  0  0  0  0  0  0  0  0  0  0
   -0.5335  -11.8316   -3.7760 F   0  0  0  0  0  0  0  0  0  0  0  0
   -0.9913  -10.2144   -2.1391 C   0  0  0  0  0  0  0  0  0  0  0  0
   -1.4808   -9.8796   -0.8621 C   0  0  0  0  0  0  0  0  0  0  0  0
   -1.4869   -8.5436   -0.4023 C   0  0  0  0  0  0  0  0  0  0  0  0
   -1.9755   -8.2749    0.8428 C   0  0  0  0  0  0  0  0  0  0  0  0
   -3.4429   -9.3599    4.0175 C   0  0  0  0  0  0  0  0  0  0  0  0
   -3.8645   -8.7896    5.2357 C   0  0  0  0  0  0  0  0  0  0  0  0
   -4.2260   -8.4044    6.2566 N   0  0  0  0  0  0  0  0  0  0  0  0
   -3.6341  -10.7569    4.0455 C   0  0  0  0  0  0  0  0  0  0  0  0
   -3.8144  -11.8874    4.1355 N   0  0  0  0  0  0  0  0  0  0  0  0
   -2.0898   -6.9754    1.5294 C   0  0  0  0  0  0  0  0  0  0  0  0
   -1.7404   -5.8948    1.0822 O   0  0  0  0  0  0  0  0  0  0  0  0
   -3.2943   -4.1314    4.8842 C   0  0  0  0  0  0  0  0  0  0  0  0
   -3.9809   -4.6213    6.1165 C   0  0  0  0  0  0  0  0  0  0  0  0
   -5.4804   -4.8085    5.8685 C   0  0  0  0  0  0  0  0  0  0  0  0
   -1.2954   -0.8993    1.0131 C   0  0  0  0  0  0  0  0  0  0  0  0
    0.0760   -1.5703    1.0893 C   0  0  0  0  0  0  0  0  0  0  0  0
    0.1782    1.8946    0.1933 C   0  0  0  0  0  0  0  0  0  0  0  0
   -0.4319    1.7795   -1.2035 C   0  0  0  0  0  0  0  0  0  0  0  0
   -0.0957    4.9923    0.2608 C   0  0  0  0  0  0  0  0  0  0  0  0
    0.9236    5.0726   -1.1252 S   0  0  0  0  0  0  0  0  0  0  0  0
    2.8733    9.7612   -3.8037 C   0  0  0  0  0  0  0  0  0  0  0  0
    3.5113   10.6585   -4.6851 C   0  0  0  0  0  0  0  0  0  0  0  0
    4.0015   11.4416   -5.3667 N   0  0  0  0  0  0  0  0  0  0  0  0
    2.1411   10.4750   -2.8333 C   0  0  0  0  0  0  0  0  0  0  0  0
    1.5705   11.1292   -2.0800 N   0  0  0  0  0  0  0  0  0  0  0  0
    5.9650    7.6073   -7.8620 C   0  0  0  0  0  0  0  0  0  0  0  0
    6.5845    6.6923   -8.6666 C   0  0  0  0  0  0  0  0  0  0  0  0
    7.3550    7.1017   -9.6835 F   0  0  0  0  0  0  0  0  0  0  0  0
    6.4224    5.3115   -8.4389 C   0  0  0  0  0  0  0  0  0  0  0  0
    7.0421    4.4357   -9.2427 F   0  0  0  0  0  0  0  0  0  0  0  0
    5.6419    4.8643   -7.4098 C   0  0  0  0  0  0  0  0  0  0  0  0
    4.0422    4.2951   -5.3012 H   0  0  0  0  0  0  0  0  0  0  0  0
    4.6600    9.1690   -6.1536 H   0  0  0  0  0  0  0  0  0  0  0  0
    1.3990    8.7314   -1.7399 H   0  0  0  0  0  0  0  0  0  0  0  0
    0.7131    9.3690    0.1371 H   0  0  0  0  0  0  0  0  0  0  0  0
   -0.4296    8.8267    1.3737 H   0  0  0  0  0  0  0  0  0  0  0  0
   -1.1040    9.1975   -1.5878 H   0  0  0  0  0  0  0  0  0  0  0  0
   -2.2328    8.6905   -0.3259 H   0  0  0  0  0  0  0  0  0  0  0  0
   -1.5258   10.3099   -0.2868 H   0  0  0  0  0  0  0  0  0  0  0  0
   -3.4611   -6.7098    4.6951 H   0  0  0  0  0  0  0  0  0  0  0  0
   -2.8500  -11.4012    1.8868 H   0  0  0  0  0  0  0  0  0  0  0  0
   -2.3538  -13.0327    0.1492 H   0  0  0  0  0  0  0  0  0  0  0  0
   -0.6077   -9.4454   -2.7912 H   0  0  0  0  0  0  0  0  0  0  0  0
   -1.1124   -7.7485   -1.0288 H   0  0  0  0  0  0  0  0  0  0  0  0
   -3.5501   -5.5635    6.4583 H   0  0  0  0  0  0  0  0  0  0  0  0
   -3.8413   -3.8762    6.9022 H   0  0  0  0  0  0  0  0  0  0  0  0
   -5.9348   -3.8669    5.5690 H   0  0  0  0  0  0  0  0  0  0  0  0
   -5.6536   -5.5431    5.0856 H   0  0  0  0  0  0  0  0  0  0  0  0
   -5.9618   -5.1557    6.7780 H   0  0  0  0  0  0  0  0  0  0  0  0
   -1.3307   -0.1328    0.2445 H   0  0  0  0  0  0  0  0  0  0  0  0
   -2.0371   -1.6632    0.7565 H   0  0  0  0  0  0  0  0  0  0  0  0
    0.3913   -1.8729    0.0950 H   0  0  0  0  0  0  0  0  0  0  0  0
    0.8263   -0.9049    1.5119 H   0  0  0  0  0  0  0  0  0  0  0  0
    0.0231   -2.4577    1.7137 H   0  0  0  0  0  0  0  0  0  0  0  0
    0.4068    0.9216    0.6179 H   0  0  0  0  0  0  0  0  0  0  0  0
    1.1173    2.4524    0.1125 H   0  0  0  0  0  0  0  0  0  0  0  0
    0.1783    1.1221   -1.8158 H   0  0  0  0  0  0  0  0  0  0  0  0
   -1.4473    1.3895   -1.1678 H   0  0  0  0  0  0  0  0  0  0  0  0
   -0.4623    2.7556   -1.6794 H   0  0  0  0  0  0  0  0  0  0  0  0
    6.0997    8.6611   -8.0501 H   0  0  0  0  0  0  0  0  0  0  0  0
    5.5278    3.8038   -7.2488 H   0  0  0  0  0  0  0  0  0  0  0  0
  1  2  2  0  0  0  0
  2  3  1  0  0  0  0
  3  4  2  0  0  0  0
  4  5  1  0  0  0  0
  5  6  2  0  0  0  0
  6  7  1  0  0  0  0
  7  8  2  0  0  0  0
  3  8  1  0  0  0  0
  8  9  1  0  0  0  0
  9 10  1  0  0  0  0
  2 10  1  0  0  0  0
 10 11  2  0  0  0  0
 11 12  1  0  0  0  0
 12 13  2  0  0  0  0
 13 14  1  0  0  0  0
 14 15  1  0  0  0  0
 13 16  1  0  0  0  0
 16 17  1  0  0  0  0
 17 18  1  0  0  0  0
 18 19  2  0  0  0  0
 19 20  1  0  0  0  0
 20 21  1  0  0  0  0
 21 22  2  0  0  0  0
 18 22  1  0  0  0  0
 22 23  1  0  0  0  0
 23 24  2  0  0  0  0
 24 25  1  0  0  0  0
 25 26  1  0  0  0  0
 26 27  2  0  0  0  0
 23 27  1  0  0  0  0
 27 28  1  0  0  0  0
 28 29  2  0  0  0  0
 21 29  1  0  0  0  0
 29 30  1  0  0  0  0
 30 31  1  0  0  0  0
 31 32  2  0  0  0  0
 28 32  1  0  0  0  0
 32 33  1  0  0  0  0
 33 34  1  0  0  0  0
 34 35  2  0  0  0  0
 31 35  1  0  0  0  0
 35 36  1  0  0  0  0
 36 37  1  0  0  0  0
 37 38  1  0  0  0  0
 38 39  2  0  0  0  0
 39 40  1  0  0  0  0
 40 41  1  0  0  0  0
 41 42  2  0  0  0  0
 42 43  1  0  0  0  0
 43 44  2  0  0  0  0
 44 45  1  0  0  0  0
 45 46  1  0  0  0  0
 45 47  2  0  0  0  0
 47 48  1  0  0  0  0
 47 49  1  0  0  0  0
 49 50  2  0  0  0  0
 43 50  1  0  0  0  0
 50 51  1  0  0  0  0
 51 52  2  0  0  0  0
 41 52  1  0  0  0  0
 40 53  2  0  0  0  0
 53 54  1  0  0  0  0
 54 55  3  0  0  0  0
 53 56  1  0  0  0  0
 56 57  3  0  0  0  0
 39 58  1  0  0  0  0
 52 58  1  0  0  0  0
 58 59  2  0  0  0  0
 37 60  2  0  0  0  0
 34 60  1  0  0  0  0
 60 61  1  0  0  0  0
 61 62  1  0  0  0  0
 30 63  1  0  0  0  0
 63 64  1  0  0  0  0
 20 65  1  0  0  0  0
 65 66  1  0  0  0  0
 16 67  2  0  0  0  0
 19 67  1  0  0  0  0
 67 68  1  0  0  0  0
 12 68  1  0  0  0  0
  9 69  2  0  0  0  0
 69 70  1  0  0  0  0
 70 71  3  0  0  0  0
 69 72  1  0  0  0  0
 72 73  3  0  0  0  0
  6 74  1  0  0  0  0
 74 75  2  0  0  0  0
 75 76  1  0  0  0  0
 75 77  1  0  0  0  0
 77 78  1  0  0  0  0
  5 79  1  0  0  0  0
 77 79  2  0  0  0  0
  4 80  1  0  0  0  0
  7 81  1  0  0  0  0
 11 82  1  0  0  0  0
 14 83  1  0  0  0  0
 14 84  1  0  0  0  0
 15 85  1  0  0  0  0
 15 86  1  0  0  0  0
 15 87  1  0  0  0  0
 38 88  1  0  0  0  0
 42 89  1  0  0  0  0
 44 90  1  0  0  0  0
 49 91  1  0  0  0  0
 51 92  1  0  0  0  0
 61 93  1  0  0  0  0
 61 94  1  0  0  0  0
 62 95  1  0  0  0  0
 62 96  1  0  0  0  0
 62 97  1  0  0  0  0
 63 98  1  0  0  0  0
 63 99  1  0  0  0  0
 64100  1  0  0  0  0
 64101  1  0  0  0  0
 64102  1  0  0  0  0
 65103  1  0  0  0  0
 65104  1  0  0  0  0
 66105  1  0  0  0  0
 66106  1  0  0  0  0
 66107  1  0  0  0  0
 74108  1  0  0  0  0
 79109  1  0  0  0  0
M  END
