233
BT-dIDT.mol
O         -3.64040       -4.04720        9.44930
C         -4.17270       -3.30370       10.25340
C         -3.93940       -3.29580       11.71430
C         -4.72750       -2.29440       12.30490
C         -4.68140       -2.10190       13.67640
C         -3.84370       -2.91940       14.42150
F         -3.78720       -2.75010       15.74810
C         -3.06370       -3.90900       13.82480
F         -2.26830       -4.67500       14.58310
C         -3.10450       -4.10840       12.45400
C         -5.15830       -2.25310        9.99860
C         -5.49080       -1.61610       11.25430
C         -6.33930       -0.55800       11.46150
C         -6.59560        0.01370       12.72550
N         -6.84810        0.52570       13.72140
C         -7.06870        0.12580       10.46680
N         -7.69460        0.74040        9.72460
C         -5.69220       -1.92950        8.77070
C         -5.43840       -2.44560        7.49920
C         -6.09210       -1.95050        6.35670
C         -5.67210       -2.56320        5.20110
C         -4.70290       -3.54600        5.43480
S         -4.29400       -3.71870        7.08330
C         -4.29150       -4.13340        4.20210
C         -3.31420       -5.09310        3.93300
C         -3.07820       -5.39940        2.61510
C         -3.83800       -4.79140        1.58580
C         -3.28370       -5.22230        0.34620
S         -3.48230       -4.78910       -1.29950
C         -1.99910       -5.63440       -1.70360
C         -1.37560       -5.28210       -2.94290
C         -0.00240       -5.34880       -3.15980
C          0.64630       -4.49820       -4.05000
C         -0.02700       -3.52110       -4.77720
C          0.57810       -2.27460       -5.13770
S          2.31040       -2.00520       -5.06250
C         -0.12210       -1.08250       -5.16950
C          0.70890        0.02170       -5.02780
C          2.05380       -0.30340       -4.96230
C          2.83540        0.85150       -4.65410
C          1.92420        1.91640       -4.42510
C          2.37060        3.16600       -4.07630
C          3.74790        3.33400       -3.93290
C          4.65790        2.27020       -4.14610
C          6.08900        2.72190       -3.91160
C          6.78120        2.04230       -2.74220
C          8.13370        2.28930       -2.54580
C          8.81240        1.75600       -1.46100
C         10.25850        2.09020       -1.23850
C         10.38750        3.41110       -0.47610
C          8.11450        0.95720       -0.56350
C          6.76850        0.70540       -0.75180
C          6.09630        1.25170       -1.83230
C          6.86440        2.53920       -5.20340
C          6.91350        3.54530       -6.15770
C          7.59230        3.35080       -7.34640
C          8.23100        2.14800       -7.61580
C          8.93150        1.92680       -8.92520
C          7.95410        1.38190       -9.96860
C          8.16490        1.13890       -6.66370
C          7.49040        1.32900       -5.47270
C          4.21120        1.02470       -4.52290
C          4.51400        4.47020       -3.54420
C          5.87690        4.16350       -3.52580
C          6.67140        5.20750       -3.09960
C          5.92740        6.34480       -2.78360
C          6.28180        7.60790       -2.29700
C          7.48030        8.11010       -1.84200
C          8.75360        7.39970       -1.63110
C          9.62690        8.35230       -0.90880
C         10.90580        8.13930       -0.43470
C         11.52780        9.18650        0.22510
F         12.76810        9.02560        0.70500
C         10.87350       10.40620        0.39590
F         11.49620       11.39970        1.04160
C          9.58950       10.61950       -0.08380
C          8.96060        9.57580       -0.74460
O          9.07530        6.27250       -1.95180
C          7.63760        9.47020       -1.36080
C          6.75400       10.51110       -1.48880
C          6.98640       11.80910       -0.98620
N          7.10540       12.88340       -0.59960
C          5.51040       10.47520       -2.15530
N          4.49650       10.55120       -2.69030
S          4.19750        6.07370       -3.05930
C          0.48930        1.44550       -4.58310
C         -0.22290        1.23280       -3.24980
C         -1.59250        0.99210       -3.24220
C         -2.22680        0.56700       -2.09050
C         -1.51640        0.36900       -0.91280
C         -2.17960       -0.20860        0.30510
C         -2.07440       -1.73490        0.29830
C         -0.15810        0.65580       -0.91450
C          0.48390        1.07590       -2.06570
C         -0.26660        2.34130       -5.53070
C         -0.88320        3.49490       -5.06300
C         -1.53640        4.34210       -5.93780
C         -1.58610        4.06300       -7.29760
C         -2.33660        4.96010       -8.23910
C         -3.79220        4.50520       -8.36400
C         -0.96670        2.90900       -7.75890
C         -0.31020        2.05880       -6.88860
C         -1.44240       -3.65500       -4.82090
N         -2.30680       -2.99690       -5.58730
S         -3.80330       -3.44930       -5.20330
N         -3.42950       -4.48150       -4.02680
C         -2.10800       -4.53480       -3.90290
C         -1.46360       -6.29150       -0.60870
C         -2.19720       -6.05830        0.55170
C         -2.01550       -6.31890        2.02730
C         -0.59650       -5.92780        2.39140
C          0.43010       -6.85400        2.25230
C          1.73810       -6.49830        2.51960
C          2.05880       -5.20720        2.91940
C          3.47330       -4.83820        3.26160
C          3.75360       -5.11920        4.73940
C          1.03180       -4.28080        3.03800
C         -0.27920       -4.63160        2.77190
C         -2.34770       -7.73930        2.44480
C         -3.07910       -8.58150        1.61990
C         -3.40730       -9.85910        2.03580
C         -3.01960      -10.32590        3.28400
C         -3.41360      -11.69760        3.75040
C         -4.75500      -11.64740        4.48470
C         -2.29690       -9.47460        4.11060
C         -1.96530       -8.19830        3.69950
C         -4.82880       -3.84960        1.85290
C         -5.03930       -3.51640        3.16940
C         -5.99320       -2.47600        3.72990
C         -5.68530       -1.11800        3.12200
C         -6.28480       -0.73360        1.92850
C         -6.06300        0.52570        1.40310
C         -5.23580        1.43640        2.04950
C         -5.06380        2.83470        1.52530
C         -3.92300        2.94310        0.51260
C         -4.58580        1.02200        3.20440
C         -4.80250       -0.23790        3.73280
C         -7.45880       -2.83850        3.55930
C         -8.42950       -1.88170        3.83270
C         -9.77080       -2.19370        3.73090
C        -10.18010       -3.46980        3.36400
C        -11.63740       -3.79260        3.20340
C        -12.08940       -3.51390        1.76830
C         -9.20670       -4.42440        3.10490
C         -7.86140       -4.11790        3.20630
H         -5.26310       -1.35300       14.18770
H         -2.50390       -4.87270       11.98730
H         -6.43400       -1.14010        8.76290
H         -6.82670       -1.16760        6.41840
H         -2.74880       -5.53630        4.73770
H          0.60080       -5.97100       -2.51720
H          1.72670       -4.49230       -4.05970
H         -1.19360       -1.04520       -5.21440
H          1.69290        3.98770       -3.90330
H          8.66970        2.90400       -3.25430
H         10.76900        2.18000       -2.19940
H         10.73980        1.29380       -0.66690
H          9.88340        3.34240        0.48580
H          9.93770        4.22360       -1.04160
H         11.43560        3.64420       -0.30220
H          8.62900        0.53190        0.28620
H          6.23240        0.08270       -0.05040
H          5.04190        1.05730       -1.96250
H          6.42400        4.49040       -5.97230
H          7.62850        4.14860       -8.07450
H          9.35160        2.86870       -9.28370
H          9.74950        1.21600       -8.79260
H          7.13620        2.08220      -10.12290
H          8.46020        1.22350      -10.91800
H          7.53440        0.43510       -9.63580
H          8.65200        0.19320       -6.85460
H          7.46240        0.53580       -4.73960
H          4.89040        0.20450       -4.69710
H          7.73980        5.18020       -3.00280
H          5.44080        8.28900       -2.23930
H         11.40530        7.19310       -0.56890
H          9.12900       11.57990        0.07770
H         -2.16110        1.12290       -4.15170
H         -3.28820        0.36320       -2.11200
H         -3.23430        0.06850        0.33190
H         -1.70340        0.17790        1.20850
H         -1.03340       -2.05210        0.30060
H         -2.56860       -2.14950        1.17450
H         -2.55170       -2.14110       -0.59070
H          0.41400        0.52720       -0.00650
H          1.54760        1.26350       -2.04230
H         -0.86130        3.72270       -4.00660
H         -2.01250        5.23560       -5.55940
H         -2.31110        5.98760       -7.87120
H         -1.86730        4.93790       -9.22460
H         -4.33650        5.15390       -9.04620
H         -4.28170        4.53280       -7.39300
H         -3.83900        3.48610       -8.74160
H         -0.99460        2.67430       -8.81340
H          0.17030        1.16710       -7.26510
H         -0.56370       -6.87750       -0.65380
H          0.20120       -7.86290        1.94000
H          2.52300       -7.23360        2.41270
H          3.63960       -3.77830        3.05880
H          4.16670       -5.41690        2.64790
H          3.07830       -4.54320        5.36820
H          4.77700       -4.85100        4.99090
H          3.60700       -6.17450        4.95790
H          1.25980       -3.26810        3.33920
H         -1.05900       -3.88950        2.86230
H         -3.39150       -8.24180        0.64320
H         -3.97140      -10.50400        1.37690
H         -2.65030      -12.09310        4.42360
H         -3.49680      -12.37050        2.89470
H         -5.53300      -11.26840        3.82560
H         -5.04020      -12.64020        4.82450
H         -4.68920      -10.98960        5.34840
H         -1.98660       -9.81710        5.08750
H         -1.39030       -7.55780        4.35230
H         -5.37920       -3.38720        1.04840
H         -6.96000       -1.41060        1.42550
H         -6.56240        0.81560        0.48930
H         -4.86060        3.50800        2.36070
H         -5.99240        3.15740        1.04920
H         -2.98250        2.62870        0.95790
H         -4.11640        2.31750       -0.35530
H         -3.81820        3.97190        0.17600
H         -3.91920        1.70330        3.71380
H         -4.29840       -0.52510        4.64420
H         -8.13070       -0.88320        4.11710
H        -10.51170       -1.43640        3.94380
H        -11.81230       -4.84450        3.43790
H        -12.22910       -3.18560        3.89130
H        -11.93090       -2.46710        1.51880
H        -13.14590       -3.74310        1.65050
H        -11.52130       -4.12220        1.06800
H         -9.50270       -5.42520        2.82410
H         -7.12450       -4.88230        3.00740
