152
BT-IC.mol
O          6.52480       -5.28810       -1.91170
C          6.50050       -6.31190       -2.57360
C          7.51520       -7.38180       -2.56470
C          8.66970       -7.47480       -1.81400
C          9.46800       -8.59880       -1.97690
C          9.10520       -9.59390       -2.87210
C          7.94440       -9.50190       -3.63050
C          7.14020       -8.38420       -3.47640
C          5.87740       -7.99750       -4.10870
C          5.23050       -8.71690       -5.08160
C          4.02640       -8.35060       -5.71700
N          3.05300       -8.12910       -6.28660
C          5.69400       -9.94350       -5.60130
N          6.00690      -10.94410       -6.07010
C          5.47160       -6.73530       -3.52760
C          4.29740       -6.06980       -3.78760
C          3.79160       -4.87670       -3.26290
C          2.51650       -4.40100       -3.61390
C          2.18190       -3.23920       -2.96230
C          3.20500       -2.80490       -2.10380
S          4.58040       -3.81930       -2.09880
C          2.73600       -1.67440       -1.39950
C          1.43550       -1.38550       -1.77020
C          0.98290       -2.30860       -2.88370
C         -0.25870       -3.08560       -2.48020
C         -0.22230       -3.80080       -1.28880
C         -1.31800       -4.52850       -0.86760
C         -2.48330       -4.56070       -1.62240
C         -3.66110       -5.38670       -1.19270
C         -3.58720       -6.78390       -1.81200
C         -2.51460       -3.84530       -2.81100
C         -1.41940       -3.11630       -3.23740
C          0.86190       -1.58290       -4.21260
C          0.64410       -2.31510       -5.37550
C          0.55400       -1.68680       -6.60230
C          0.68410       -0.30800       -6.70970
C          0.63520        0.37010       -8.04810
C          2.03750        0.45190       -8.65490
C          0.91550        0.41830       -5.55080
C          1.00670       -0.20760       -4.31960
C          0.86570       -0.34050       -1.00980
C          1.79780        0.19070       -0.06960
S          3.35450       -0.63750       -0.17130
C          1.45580        1.22650        0.78730
O          2.23330        1.89510        1.66930
C          3.43910        1.34900        2.16710
C          3.20950        0.14110        3.06610
C          0.12090        1.69040        0.72020
C         -0.82280        1.12470       -0.18790
S         -2.43410        1.80360        0.04590
C         -1.83020        2.82510        1.29360
C         -0.47340        2.68770        1.52640
C         -0.01970        3.66940        2.58930
C          0.65000        2.99410        3.77250
C         -0.01530        1.94050        4.38920
C          0.50440        1.34210        5.52130
C          1.70020        1.78340        6.07450
C          2.27710        1.13460        7.30000
C          3.31350        0.07420        6.92250
C          2.37150        2.82120        5.44160
C          1.85740        3.41980        4.30540
C          0.79290        4.80620        1.98670
C          1.30000        4.75490        0.69670
C          2.01480        5.81930        0.17590
C          2.24150        6.96640        0.92170
C          2.96980        8.13980        0.33340
C          1.98520        9.08460       -0.35890
C          1.72930        7.01830        2.21160
C          1.01640        5.95760        2.73550
C         -1.36560        4.22370        3.03110
C         -2.39550        3.73680        2.21080
S         -3.95350        4.27570        2.65990
C         -3.24590        5.16580        4.00220
C         -3.93170        5.90740        4.96890
C         -5.27890        6.10980        5.15200
C         -5.88430        6.86930        6.22550
C         -5.24670        7.59620        7.19890
C         -3.85180        7.75100        7.33420
N         -2.73170        7.93250        7.51680
C         -5.91040        8.31400        8.21550
N         -6.38030        8.91740        9.07210
C         -7.33630        6.73880        6.08880
C         -8.38250        7.22890        6.85360
C         -9.68350        6.92710        6.46970
C         -9.94880        6.15510        5.34860
C         -8.90860        5.65860        4.57490
C         -7.61530        5.95570        4.95510
C         -6.34780        5.54840        4.32120
O         -6.22950        4.87670        3.31050
C         -1.84790        5.02430        4.03800
C         -0.46200        0.13820       -1.09260
O         -1.22020       -0.47990       -2.02550
C         -2.42130        0.08510       -2.51290
C         -2.18080        1.33610       -3.34880
H          8.93060       -6.68840       -1.12250
H         10.37660       -8.70100       -1.40290
H          9.73590      -10.46290       -2.98540
H          7.68880      -10.29280       -4.31620
H          3.62340       -6.53700       -4.49550
H          1.89190       -4.94090       -4.30270
H          0.67400       -3.78700       -0.68400
H         -1.26890       -5.07670        0.06260
H         -4.58760       -4.90250       -1.50830
H         -3.67510       -5.47520       -0.10460
H         -2.67530       -7.28810       -1.50000
H         -3.58560       -6.71700       -2.89760
H         -4.43980       -7.38370       -1.50210
H         -3.41260       -3.85470       -3.41320
H         -1.47920       -2.56250       -4.16140
H          0.53750       -3.38750       -5.32210
H          0.38070       -2.27720       -7.49070
H          0.23140        1.37890       -7.93850
H         -0.01650       -0.18810       -8.72310
H          2.45240       -0.54520       -8.78380
H          2.00470        0.94300       -9.62460
H          2.70010        1.01550       -8.00170
H          1.02830        1.49220       -5.60890
H          1.19230        0.39180       -3.44200
H          4.12940        1.10770        1.35170
H          3.86670        2.16910        2.74940
H          4.15900       -0.18960        3.47630
H          2.76630       -0.68140        2.51090
H          2.54240        0.41250        3.87950
H         -0.95450        1.59090        3.98320
H         -0.03200        0.52830        5.98860
H          1.47940        0.66780        7.88080
H          2.75410        1.89320        7.92420
H          4.12200        0.52140        6.34860
H          2.85630       -0.70710        6.31940
H          3.73310       -0.38000        7.81700
H          3.30850        3.17390        5.84920
H          2.40410        4.22270        3.83560
H          1.14610        3.88250        0.08270
H          2.40220        5.75340       -0.83100
H          3.70680        7.79240       -0.39360
H          3.49550        8.68310        1.12120
H          1.45860        8.56430       -1.15590
H          2.51020        9.93560       -0.78640
H          1.24940        9.45180        0.35310
H          1.88980        7.90020        2.81530
H          0.63590        6.02690        3.74230
H         -3.27070        6.36740        5.69360
H         -8.20920        7.82990        7.73100
H        -10.50390        7.30390        7.06190
H        -10.97130        5.93860        5.07790
H         -9.09010        5.05460        3.69910
H         -1.26380        5.48450        4.81480
H         -2.83940       -0.70920       -3.13640
H         -3.12590        0.28600       -1.69940
H         -1.50080        1.10700       -4.16630
H         -3.12420        1.68700       -3.75630
H         -1.74730        2.12910       -2.74410
