BT-IC4F.mol
  xtb     01102216543D
 energy: -201.201920928359 gnorm: 0.000252273708 xtb: 6.4.1 (unknown)
107118  0     0  0            999 V2000
    3.3679   -3.3262  -10.4277 O   0  0  0  0  0  0  0  0  0  0  0  0
    2.4720   -3.4309  -11.2414 C   0  0  0  0  0  0  0  0  0  0  0  0
    2.6368   -3.2878  -12.7056 C   0  0  0  0  0  0  0  0  0  0  0  0
    1.4102   -3.5188  -13.3462 C   0  0  0  0  0  0  0  0  0  0  0  0
    1.3247   -3.4214  -14.7264 C   0  0  0  0  0  0  0  0  0  0  0  0
    2.4755   -3.0950  -15.4286 C   0  0  0  0  0  0  0  0  0  0  0  0
    2.4123   -2.9894  -16.7610 F   0  0  0  0  0  0  0  0  0  0  0  0
    3.6914   -2.8723  -14.7823 C   0  0  0  0  0  0  0  0  0  0  0  0
    4.7775   -2.5601  -15.5008 F   0  0  0  0  0  0  0  0  0  0  0  0
    3.7844   -2.9680  -13.4036 C   0  0  0  0  0  0  0  0  0  0  0  0
    0.4068   -3.8364  -12.3297 C   0  0  0  0  0  0  0  0  0  0  0  0
   -0.8787   -4.2273  -12.6021 C   0  0  0  0  0  0  0  0  0  0  0  0
   -1.8535   -4.6196  -11.6594 C   0  0  0  0  0  0  0  0  0  0  0  0
   -2.7059   -4.9708  -10.9741 N   0  0  0  0  0  0  0  0  0  0  0  0
   -1.4135   -4.3262  -13.9047 C   0  0  0  0  0  0  0  0  0  0  0  0
   -1.9141   -4.4239  -14.9330 N   0  0  0  0  0  0  0  0  0  0  0  0
    1.0398   -3.7100  -11.0288 C   0  0  0  0  0  0  0  0  0  0  0  0
    0.3393   -3.7549   -9.8452 C   0  0  0  0  0  0  0  0  0  0  0  0
    0.7463   -3.6283   -8.5119 C   0  0  0  0  0  0  0  0  0  0  0  0
    2.0001   -3.5162   -7.9061 C   0  0  0  0  0  0  0  0  0  0  0  0
    1.9191   -3.3814   -6.5370 C   0  0  0  0  0  0  0  0  0  0  0  0
    2.8906   -3.1665   -5.3969 C   0  0  0  0  0  0  0  0  0  0  0  0
    3.7144   -1.8955   -5.6831 C   0  0  0  0  0  0  0  0  0  0  0  0
    4.7114   -1.5143   -4.5971 C   0  0  0  0  0  0  0  0  0  0  0  0
    3.7480   -4.4202   -5.1280 C   0  0  0  0  0  0  0  0  0  0  0  0
    4.7296   -4.7705   -6.2380 C   0  0  0  0  0  0  0  0  0  0  0  0
    0.5925   -3.3670   -6.0683 C   0  0  0  0  0  0  0  0  0  0  0  0
    0.6037   -3.1264   -4.6821 C   0  0  0  0  0  0  0  0  0  0  0  0
    1.9251   -2.9848   -4.2470 C   0  0  0  0  0  0  0  0  0  0  0  0
    2.0086   -2.7232   -2.8866 C   0  0  0  0  0  0  0  0  0  0  0  0
    0.7638   -2.6339   -2.2831 C   0  0  0  0  0  0  0  0  0  0  0  0
    0.4670   -2.2763   -0.9314 C   0  0  0  0  0  0  0  0  0  0  0  0
   -0.8349   -2.2542   -0.4437 C   0  0  0  0  0  0  0  0  0  0  0  0
   -1.1598   -1.8037    0.8274 C   0  0  0  0  0  0  0  0  0  0  0  0
   -0.2143   -1.3234    1.7269 C   0  0  0  0  0  0  0  0  0  0  0  0
   -0.5864   -0.7549    2.9844 C   0  0  0  0  0  0  0  0  0  0  0  0
   -2.2727   -0.7188    3.4682 S   0  0  0  0  0  0  0  0  0  0  0  0
    0.2313   -0.1228    3.9087 C   0  0  0  0  0  0  0  0  0  0  0  0
   -0.4829    0.4062    4.9733 C   0  0  0  0  0  0  0  0  0  0  0  0
   -1.8555    0.1624    4.8789 C   0  0  0  0  0  0  0  0  0  0  0  0
   -2.5104    0.7827    5.9600 C   0  0  0  0  0  0  0  0  0  0  0  0
   -4.1054    1.0173    6.5119 S   0  0  0  0  0  0  0  0  0  0  0  0
   -1.5532    1.4407    6.7554 C   0  0  0  0  0  0  0  0  0  0  0  0
   -2.1178    2.1678    7.7808 C   0  0  0  0  0  0  0  0  0  0  0  0
   -3.5109    2.0667    7.8083 C   0  0  0  0  0  0  0  0  0  0  0  0
   -4.4876    2.6216    8.6436 C   0  0  0  0  0  0  0  0  0  0  0  0
   -4.4124    3.5867    9.6212 C   0  0  0  0  0  0  0  0  0  0  0  0
   -3.2675    4.4452    9.9778 C   0  0  0  0  0  0  0  0  0  0  0  0
   -2.1063    4.3665    9.6310 O   0  0  0  0  0  0  0  0  0  0  0  0
   -5.5620    4.0263   10.3905 C   0  0  0  0  0  0  0  0  0  0  0  0
   -5.1808    5.2442   11.1050 C   0  0  0  0  0  0  0  0  0  0  0  0
   -3.8188    5.4889   10.8724 C   0  0  0  0  0  0  0  0  0  0  0  0
   -3.1615    6.5719   11.4213 C   0  0  0  0  0  0  0  0  0  0  0  0
   -5.9114    6.1097   11.9039 C   0  0  0  0  0  0  0  0  0  0  0  0
   -5.2536    7.2015   12.4509 C   0  0  0  0  0  0  0  0  0  0  0  0
   -5.9422    8.0543   13.2183 F   0  0  0  0  0  0  0  0  0  0  0  0
   -3.8978    7.4331   12.2185 C   0  0  0  0  0  0  0  0  0  0  0  0
   -3.3033    8.4998   12.7680 F   0  0  0  0  0  0  0  0  0  0  0  0
   -6.7742    3.3973   10.5076 C   0  0  0  0  0  0  0  0  0  0  0  0
   -7.1275    2.1639    9.9187 C   0  0  0  0  0  0  0  0  0  0  0  0
   -7.4927    1.1585    9.5005 N   0  0  0  0  0  0  0  0  0  0  0  0
   -7.8431    3.8859   11.2890 C   0  0  0  0  0  0  0  0  0  0  0  0
   -8.7518    4.2312   11.8991 N   0  0  0  0  0  0  0  0  0  0  0  0
   -0.1627    1.2025    6.2164 C   0  0  0  0  0  0  0  0  0  0  0  0
    0.6728    0.3076    7.1594 C   0  0  0  0  0  0  0  0  0  0  0  0
    0.9646    0.9149    8.5247 C   0  0  0  0  0  0  0  0  0  0  0  0
    0.5601    2.5186    5.8897 C   0  0  0  0  0  0  0  0  0  0  0  0
   -0.1777    3.3523    4.8485 C   0  0  0  0  0  0  0  0  0  0  0  0
    1.1394   -1.3809    1.2946 C   0  0  0  0  0  0  0  0  0  0  0  0
    2.2221   -1.0233    1.9821 N   0  0  0  0  0  0  0  0  0  0  0  0
    3.5281   -1.2638    1.0778 S   0  0  0  0  0  0  0  0  0  0  0  0
    2.7922   -1.8277   -0.2348 N   0  0  0  0  0  0  0  0  0  0  0  0
    1.4781   -1.8598   -0.0221 C   0  0  0  0  0  0  0  0  0  0  0  0
   -0.5389   -2.9236   -3.4204 S   0  0  0  0  0  0  0  0  0  0  0  0
   -0.5546   -3.5694   -7.3118 S   0  0  0  0  0  0  0  0  0  0  0  0
    0.4113   -3.5810  -15.2750 H   0  0  0  0  0  0  0  0  0  0  0  0
    4.7210   -2.7956  -12.8979 H   0  0  0  0  0  0  0  0  0  0  0  0
   -0.7332   -3.8728   -9.9460 H   0  0  0  0  0  0  0  0  0  0  0  0
    2.9036   -3.5184   -8.4868 H   0  0  0  0  0  0  0  0  0  0  0  0
    3.0110   -1.0708   -5.8252 H   0  0  0  0  0  0  0  0  0  0  0  0
    4.2398   -2.0414   -6.6275 H   0  0  0  0  0  0  0  0  0  0  0  0
    4.2061   -1.3084   -3.6579 H   0  0  0  0  0  0  0  0  0  0  0  0
    5.2431   -0.6146   -4.8988 H   0  0  0  0  0  0  0  0  0  0  0  0
    5.4439   -2.3004   -4.4370 H   0  0  0  0  0  0  0  0  0  0  0  0
    3.0656   -5.2610   -4.9776 H   0  0  0  0  0  0  0  0  0  0  0  0
    4.2887   -4.2682   -4.1927 H   0  0  0  0  0  0  0  0  0  0  0  0
    5.2688   -5.6761   -5.9690 H   0  0  0  0  0  0  0  0  0  0  0  0
    5.4566   -3.9780   -6.3902 H   0  0  0  0  0  0  0  0  0  0  0  0
    4.2102   -4.9515   -7.1746 H   0  0  0  0  0  0  0  0  0  0  0  0
    2.9109   -2.5921   -2.3197 H   0  0  0  0  0  0  0  0  0  0  0  0
   -1.6331   -2.5819   -1.0936 H   0  0  0  0  0  0  0  0  0  0  0  0
   -2.1991   -1.7984    1.1216 H   0  0  0  0  0  0  0  0  0  0  0  0
    1.2936   -0.0530    3.7677 H   0  0  0  0  0  0  0  0  0  0  0  0
   -1.5843    2.7792    8.4845 H   0  0  0  0  0  0  0  0  0  0  0  0
   -5.4817    2.2387    8.4432 H   0  0  0  0  0  0  0  0  0  0  0  0
   -2.1137    6.7474   11.2370 H   0  0  0  0  0  0  0  0  0  0  0  0
   -6.9603    5.9779   12.1121 H   0  0  0  0  0  0  0  0  0  0  0  0
    1.6131    0.0784    6.6536 H   0  0  0  0  0  0  0  0  0  0  0  0
    0.1327   -0.6327    7.2971 H   0  0  0  0  0  0  0  0  0  0  0  0
    1.5365    0.2054    9.1185 H   0  0  0  0  0  0  0  0  0  0  0  0
    0.0438    1.1373    9.0563 H   0  0  0  0  0  0  0  0  0  0  0  0
    1.5475    1.8271    8.4368 H   0  0  0  0  0  0  0  0  0  0  0  0
    0.6536    3.1011    6.8061 H   0  0  0  0  0  0  0  0  0  0  0  0
    1.5620    2.2830    5.5256 H   0  0  0  0  0  0  0  0  0  0  0  0
   -0.2659    2.8132    3.9078 H   0  0  0  0  0  0  0  0  0  0  0  0
   -1.1767    3.6052    5.1966 H   0  0  0  0  0  0  0  0  0  0  0  0
    0.3628    4.2772    4.6635 H   0  0  0  0  0  0  0  0  0  0  0  0
  1  2  2  0  0  0  0
  2  3  1  0  0  0  0
  3  4  2  0  0  0  0
  4  5  1  0  0  0  0
  5  6  2  0  0  0  0
  6  7  1  0  0  0  0
  6  8  1  0  0  0  0
  8  9  1  0  0  0  0
  8 10  2  0  0  0  0
  3 10  1  0  0  0  0
  4 11  1  0  0  0  0
 11 12  2  0  0  0  0
 12 13  1  0  0  0  0
 13 14  3  0  0  0  0
 12 15  1  0  0  0  0
 15 16  3  0  0  0  0
 11 17  1  0  0  0  0
  2 17  1  0  0  0  0
 17 18  2  0  0  0  0
 18 19  1  0  0  0  0
 19 20  2  0  0  0  0
 20 21  1  0  0  0  0
 21 22  1  0  0  0  0
 22 23  1  0  0  0  0
 23 24  1  0  0  0  0
 22 25  1  0  0  0  0
 25 26  1  0  0  0  0
 21 27  2  0  0  0  0
 27 28  1  0  0  0  0
 28 29  2  0  0  0  0
 22 29  1  0  0  0  0
 29 30  1  0  0  0  0
 30 31  2  0  0  0  0
 31 32  1  0  0  0  0
 32 33  2  0  0  0  0
 33 34  1  0  0  0  0
 34 35  2  0  0  0  0
 35 36  1  0  0  0  0
 36 37  1  0  0  0  0
 36 38  2  0  0  0  0
 38 39  1  0  0  0  0
 39 40  2  0  0  0  0
 37 40  1  0  0  0  0
 40 41  1  0  0  0  0
 41 42  1  0  0  0  0
 41 43  2  0  0  0  0
 43 44  1  0  0  0  0
 44 45  2  0  0  0  0
 42 45  1  0  0  0  0
 45 46  1  0  0  0  0
 46 47  2  0  0  0  0
 47 48  1  0  0  0  0
 48 49  2  0  0  0  0
 47 50  1  0  0  0  0
 50 51  1  0  0  0  0
 51 52  2  0  0  0  0
 48 52  1  0  0  0  0
 52 53  1  0  0  0  0
 51 54  1  0  0  0  0
 54 55  2  0  0  0  0
 55 56  1  0  0  0  0
 55 57  1  0  0  0  0
 53 57  2  0  0  0  0
 57 58  1  0  0  0  0
 50 59  2  0  0  0  0
 59 60  1  0  0  0  0
 60 61  3  0  0  0  0
 59 62  1  0  0  0  0
 62 63  3  0  0  0  0
 43 64  1  0  0  0  0
 39 64  1  0  0  0  0
 64 65  1  0  0  0  0
 65 66  1  0  0  0  0
 64 67  1  0  0  0  0
 67 68  1  0  0  0  0
 35 69  1  0  0  0  0
 69 70  2  0  0  0  0
 70 71  1  0  0  0  0
 71 72  1  0  0  0  0
 72 73  2  0  0  0  0
 69 73  1  0  0  0  0
 32 73  1  0  0  0  0
 31 74  1  0  0  0  0
 28 74  1  0  0  0  0
 27 75  1  0  0  0  0
 19 75  1  0  0  0  0
  5 76  1  0  0  0  0
 10 77  1  0  0  0  0
 18 78  1  0  0  0  0
 20 79  1  0  0  0  0
 23 80  1  0  0  0  0
 23 81  1  0  0  0  0
 24 82  1  0  0  0  0
 24 83  1  0  0  0  0
 24 84  1  0  0  0  0
 25 85  1  0  0  0  0
 25 86  1  0  0  0  0
 26 87  1  0  0  0  0
 26 88  1  0  0  0  0
 26 89  1  0  0  0  0
 30 90  1  0  0  0  0
 33 91  1  0  0  0  0
 34 92  1  0  0  0  0
 38 93  1  0  0  0  0
 44 94  1  0  0  0  0
 46 95  1  0  0  0  0
 53 96  1  0  0  0  0
 54 97  1  0  0  0  0
 65 98  1  0  0  0  0
 65 99  1  0  0  0  0
 66100  1  0  0  0  0
 66101  1  0  0  0  0
 66102  1  0  0  0  0
 67103  1  0  0  0  0
 67104  1  0  0  0  0
 68105  1  0  0  0  0
 68106  1  0  0  0  0
 68107  1  0  0  0  0
M  END
