233
BT2FIDT-4Cl.mol
O        -13.73660       -1.85340        0.92960
C        -14.63250       -2.64680        0.70440
C        -15.93350       -2.71120        1.40280
C        -16.70490       -3.74950        0.85370
C        -17.97050       -4.00040        1.35640
C        -16.39660       -1.92450        2.43630
C        -17.66670       -2.18010        2.93880
Cl       -18.28100       -1.22530        4.22790
C        -18.44270       -3.21040        2.39960
Cl       -20.01110       -3.51740        3.03010
C        -14.65790       -3.71990       -0.29160
C        -15.93720       -4.39330       -0.21330
C        -16.38340       -5.44100       -0.97860
C        -17.65190       -6.04140       -0.83490
N        -18.66520       -6.57770       -0.77450
C        -15.66670       -6.07600       -2.01400
N        -15.15970       -6.65040       -2.87040
C        -13.62900       -4.05370       -1.14250
C        -12.35190       -3.50830       -1.29150
C        -11.42170       -4.04350       -2.19950
C        -10.21620       -3.38440       -2.16930
C        -10.20050       -2.33250       -1.24630
S        -11.67490       -2.14440       -0.40630
C         -8.90950       -1.72480       -1.21630
C         -8.42780       -0.64270       -0.47970
C         -7.09950       -0.32320       -0.62580
C         -6.25580       -1.09450       -1.46200
C         -4.93050       -0.58770       -1.29960
S         -3.35920       -1.02790       -1.82750
C         -2.67540        0.27270       -0.88010
C         -1.25070        0.42480       -0.81160
C         -0.60050        1.59260       -0.43980
F         -1.30970        2.71080       -0.20090
C          0.79030        1.68650       -0.28660
F          1.27850        2.88570        0.08060
C          1.65620        0.61330       -0.44030
C          3.06300        0.66330       -0.16190
C          3.84470       -0.41110        0.22190
C          5.15420       -0.03110        0.49030
C          5.38940        1.31710        0.26670
S          3.97560        2.15520       -0.22260
C          6.75040        1.64790        0.55280
C          7.37490        0.46000        1.00730
C          8.67690        0.46920        1.44490
C          9.36900        1.67610        1.35940
C         10.69830        2.01680        1.74850
S         12.00210        1.21950        2.50760
C         12.94580        2.70450        2.44040
C         14.24350        2.89240        2.92220
C         15.09490        2.03040        3.57530
C         14.79710        0.64410        3.94140
C         15.98190        0.15530        4.67720
C         16.19010       -1.08200        5.24930
C         17.39530       -1.30950        5.90250
Cl        17.69470       -2.83600        6.63090
C         18.36110       -0.30080        5.96880
Cl        19.84620       -0.59330        6.78150
C         18.14570        0.94520        5.38840
C         16.94580        1.17570        4.73680
C         16.42560        2.35590        4.04460
C         17.10900        3.53420        3.88130
C         16.63600        4.68060        3.20940
N         16.33490        5.65610        2.68210
C         18.41290        3.76570        4.36760
N         19.46980        4.02360        4.73430
O         13.78900        0.00420        3.70230
C         12.22340        3.74490        1.83040
C         10.95770        3.36020        1.45580
C          9.77700        3.97970        0.75020
C         10.24130        4.26020       -0.67280
C          9.98740        3.37520       -1.70830
C         10.47330        3.60910       -2.98850
C         10.21860        2.60800       -4.07910
C         11.23220        1.46460       -4.00130
C         11.23240        4.74660       -3.22120
C         11.49590        5.63360       -2.19160
C         11.00850        5.39230       -0.92130
C          9.20790        5.21510        1.41260
C          9.41190        5.46530        2.76190
C          8.85720        6.58270        3.35880
C          8.08080        7.47170        2.62820
C          7.44700        8.66350        3.28540
C          6.04760        8.31130        3.79420
C          7.86470        7.20670        1.28190
C          8.41900        6.09370        0.68000
C          8.77300        2.84080        0.81820
C          7.45060        2.84660        0.43890
C          6.41010       -0.71300        0.96690
C          6.78200       -1.77330       -0.05380
C          6.08090       -2.97360       -0.06160
C          6.36120       -3.94450       -1.00230
C          7.34320       -3.74270       -1.96440
C          7.68360       -4.82220       -2.95090
C          8.74270       -5.76060       -2.36870
C          8.03300       -2.53880       -1.95860
C          7.75370       -1.56110       -1.02020
C          6.29330       -1.29180        2.36450
C          5.35780       -0.80240        3.26540
C          5.29260       -1.30500        4.55150
C          6.16460       -2.29880        4.97540
C          6.05790       -2.87380        6.35830
C          5.04250       -4.01820        6.38440
C          7.10620       -2.77720        4.07380
C          7.17450       -2.27920        2.78640
C          1.03340       -0.59310       -0.86160
N          1.63610       -1.74790       -1.13480
S          0.53550       -2.81850       -1.60870
N         -0.76190       -1.87860       -1.48550
C         -0.38660       -0.67190       -1.07300
C         -3.64190        0.99420       -0.20110
C         -4.91740        0.48330       -0.41890
C         -6.31320        0.77670        0.07050
C         -6.48250        0.60510        1.56840
C         -7.55240        1.20500        2.22110
C         -7.74720        1.00960        3.57500
C         -6.88370        0.21010        4.31270
C         -7.12480       -0.03650        5.77400
C         -8.04600       -1.24320        5.96560
C         -5.82270       -0.39560        3.65390
C         -5.62490       -0.20550        2.29850
C         -6.68420        2.17640       -0.38450
C         -7.45490        2.40340       -1.51480
C         -7.73300        3.69610       -1.92270
C         -7.24050        4.78910       -1.22400
C         -7.58120        6.19020       -1.64260
C         -8.84160        6.67180       -0.92090
C         -6.45970        4.55520       -0.09860
C         -6.18140        3.26750        0.31480
C         -6.74510       -2.14520       -2.23310
C         -8.08050       -2.44870       -2.10710
C         -8.87350       -3.51770       -2.84070
C         -8.36870       -4.93350       -2.65130
C         -7.50250       -5.27080       -1.62210
C         -7.08930       -6.58100       -1.45720
C         -7.53530       -7.58420       -2.30590
C         -7.11720       -9.01190       -2.10240
C         -8.13370       -9.74660       -1.22630
C         -8.42020       -7.24400       -3.32180
C         -8.83420       -5.93780       -3.49230
C         -8.89710       -3.11630       -4.30730
C         -7.85280       -3.48860       -5.14430
C         -7.83770       -3.09050       -6.46750
C         -8.86060       -2.31000       -6.99030
C         -8.82430       -1.84280       -8.41670
C         -8.15010       -0.47260       -8.51280
C         -9.89570       -1.93100       -6.14650
C         -9.91390       -2.32370       -4.82100
H        -18.59880       -4.78520        0.96890
H        -15.78630       -1.13340        2.84240
H        -13.80820       -4.88890       -1.80890
H        -11.65850       -4.88420       -2.82680
H         -9.08050       -0.09200        0.17970
H          3.45050       -1.40470        0.31520
H          9.15630       -0.41480        1.83560
H         14.61310        3.89650        2.75220
H         15.43520       -1.85000        5.19050
H         18.91460        1.69630        5.46240
H         12.64330        4.72640        1.70010
H          9.39910        2.48700       -1.52690
H         10.29600        3.09300       -5.05390
H          9.20990        2.20090       -3.97850
H         12.24400        1.84860       -4.11100
H         11.04870        0.73880       -4.79030
H         11.16160        0.95980       -3.04020
H         11.61880        4.93950       -4.21160
H         12.08850        6.51680       -2.37910
H         11.21410        6.08710       -0.12060
H         10.01160        4.78640        3.35090
H          9.03420        6.76780        4.40880
H          8.06230        8.99550        4.12390
H          7.37290        9.48460        2.56950
H          5.41510        7.98920        2.97000
H          5.58720        9.17430        4.26930
H          6.10160        7.50220        4.51920
H          7.25930        7.88340        0.69590
H          8.25100        5.91320       -0.37220
H          6.96840        3.73590        0.06340
H          5.31830       -3.14990        0.68280
H          5.80810       -4.87300       -0.99210
H          6.78790       -5.39750       -3.19400
H          8.06460       -4.37670       -3.87190
H          9.64840       -5.20720       -2.13100
H          8.37630       -6.22440       -1.45550
H          8.99090       -6.54400       -3.08100
H          8.79860       -2.35920       -2.70020
H          8.30140       -0.63040       -1.04230
H          4.67330       -0.02340        2.96260
H          4.55520       -0.91430        5.23840
H          5.74200       -2.09750        7.05830
H          7.03130       -3.24870        6.67990
H          4.96360       -4.43480        7.38580
H          5.34650       -4.80880        5.70180
H          4.06170       -3.66080        6.07840
H          7.79830       -3.54710        4.38390
H          7.91220       -2.66910        2.10000
H         -3.41500        1.82120        0.44500
H         -8.23050        1.83880        1.66810
H         -8.58220        1.48750        4.06710
H         -7.58610        0.84330        6.22720
H         -6.17570       -0.22410        6.28020
H         -7.59750       -2.13400        5.53110
H         -8.22270       -1.42330        7.02340
H         -9.00230       -1.07030        5.47730
H         -5.14020       -1.02460        4.20780
H         -4.79380       -0.69130        1.80810
H         -7.84310        1.57000       -2.08220
H         -8.33950        3.85510       -2.80310
H         -7.74850        6.22450       -2.72100
H         -6.75230        6.85930       -1.40350
H         -9.68280        6.02330       -1.15580
H         -8.68950        6.65770        0.15610
H         -9.08970        7.68640       -1.22350
H         -6.06100        5.39170        0.45710
H         -5.57560        3.10460        1.19430
H         -6.08980       -2.70130       -2.88520
H         -7.14400       -4.50860       -0.94560
H         -6.40680       -6.82510       -0.65540
H         -7.04440       -9.51680       -3.06790
H         -6.13660       -9.04660       -1.62340
H         -7.83300      -10.78140       -1.08010
H         -8.21160       -9.26590       -0.25350
H         -9.11590       -9.73270       -1.69330
H         -8.78640       -8.01110       -3.98890
H         -9.51590       -5.68990       -4.29310
H         -7.05310       -4.10620       -4.76210
H         -7.01980       -3.39430       -7.10520
H         -8.27240       -2.55950       -9.02790
H         -9.84110       -1.77090       -8.80830
H         -8.69470        0.25950       -7.92080
H         -8.12270       -0.13350       -9.54570
H         -7.13080       -0.52530       -8.13660
H        -10.70140       -1.32200       -6.53120
H        -10.73070       -2.01260       -4.18630
