67
BT_TPI-n12_2.sdf
C          0.38040        0.43030        0.09480
C         -0.57190       -0.30710        0.78400
C         -0.36400       -1.62930        1.16590
C          0.80410       -2.32880        0.89730
C          1.80870       -1.61440        0.19100
C          1.58970       -0.24830       -0.20280
N          3.00930       -2.04690       -0.19280
S          3.77750       -0.86400       -0.96390
N          2.63350        0.25860       -0.85390
C          0.98670       -3.69100        1.30730
C          0.18810        1.79420       -0.30380
C          0.94100        5.30140       -1.84840
C          0.14300        6.45950       -1.89380
C          0.65180        7.57920       -2.50420
C          1.92990        7.59390       -3.07300
C          2.72650        6.46600       -3.03470
C          2.21940        5.33190       -2.42170
C          0.04810        8.92190       -2.69880
N          1.00680        9.66030       -3.37200
C          2.16620        8.93920       -3.63920
O          3.13290        9.37870       -4.20950
O         -1.03170        9.33320       -2.35600
C          0.80970       11.03220       -3.78800
C          0.17070       11.10440       -5.17030
C          0.17560       -7.18030        2.87690
C          0.97130       -8.32620        3.01400
C          0.49390       -9.48220        3.61020
C         -0.80620       -9.48720        4.07570
C         -1.61170       -8.35030        3.94860
C         -1.14500       -7.20100        3.36090
C         -1.59870      -10.54140        4.74430
N         -2.84350       -9.97030        4.98350
C         -2.93950       -8.66230        4.53690
C         -3.93970      -10.68670        5.59950
C         -4.83010      -11.34180        4.54940
O         -3.91660       -7.96470        4.63720
O         -1.28610      -11.66460        5.05020
C         -0.91860        2.59450       -0.10910
C         -0.76980        3.88220       -0.62190
C          0.45270        4.09760       -1.22050
S          1.43270        2.66060       -1.14180
S         -0.27690       -4.55120        2.13570
C          0.69390       -5.99020        2.24630
C          1.92470       -5.78060        1.66470
C          2.08940       -4.49790        1.13890
H         -1.51220        0.15380        1.04030
H         -1.15260       -2.13780        1.70170
H         -0.84480        6.48180       -1.46400
H          3.71330        6.47230       -3.47050
H          2.82310        4.43710       -2.38010
H          0.16530       11.51000       -3.04590
H          1.79030       11.51420       -3.79590
H          0.02870       12.14270       -5.45630
H         -0.79680       10.60760       -5.16250
H          0.81090       10.62250       -5.90560
H          1.98540       -8.31060        2.64800
H          1.11750      -10.35690        3.70950
H         -1.77960       -6.33230        3.27040
H         -4.51400       -9.96800        6.18950
H         -3.50320      -11.44340        6.25580
H         -5.25170      -10.58560        3.89130
H         -5.64200      -11.87490        5.03580
H         -4.25370      -12.04750        3.95540
H         -1.81140        2.26170        0.38820
H         -1.54190        4.62640       -0.55110
H          2.69250       -6.53090        1.61110
H          2.98000       -4.15370        0.64660
