61
BT_TTI-n12_2.sdf
C         -0.19210       -0.14880       -0.98250
C         -0.06390        0.65380        0.14380
C          0.41060        0.19120        1.36700
C          0.79670       -1.12750        1.56640
C          0.68770       -1.97990        0.43830
C          0.20220       -1.50510       -0.82880
N          1.00250       -3.27170        0.40190
S          0.71980       -3.83880       -1.07440
N          0.18440       -2.47750       -1.74020
C          1.27040       -1.63920        2.81760
C         -0.70410        0.35720       -2.22130
C         -3.17630        4.98400       -5.53030
C         -3.19130        4.01470       -6.51470
C         -3.74150        6.23150       -6.04870
N         -4.07430        5.92680       -7.37020
C         -3.78350        4.61690       -7.73030
O         -3.98540        4.13550       -8.81490
O         -3.90450        7.30340       -5.52480
C         -4.70980        6.87740       -8.25870
C         -6.21880        6.91300       -8.04480
C          3.27880       -5.39020        7.26800
C          3.73870       -6.01690        8.52720
N          3.94670       -7.35160        8.20230
C          3.66120       -7.65440        6.86910
C          4.36950       -8.34930        9.16260
C          3.17950       -8.93610        9.91330
O          3.77110       -8.74530        6.37100
O          3.91900       -5.53260        9.61450
C         -0.86260       -0.30580       -3.41970
C         -1.40880        0.48720       -4.42770
C         -1.68250        1.77810       -4.02200
S         -1.24440        2.00630       -2.35730
S          1.68950       -3.31420        2.98590
C          2.09850       -3.08710        4.65980
C          1.91580       -1.77240        5.04230
C          1.45170       -0.96350        4.00880
C         -2.66870        2.78900       -6.10520
C         -2.25320        2.83670       -4.78440
S         -2.51480        4.41000       -4.06540
C          3.23800       -6.37390        6.29830
S          2.71660       -5.77380        4.78720
C          2.54890       -4.17060        5.46650
C          2.89000       -4.13300        6.80890
H         -0.35170        1.69250        0.06510
H          0.47220        0.88900        2.18670
H         -4.27590        7.86000       -8.05740
H         -4.47360        6.56910       -9.27970
H         -6.44450        7.20880       -7.02300
H         -6.66970        7.63060       -8.72430
H         -6.64960        5.93230       -8.23390
H          5.05690       -7.86420        9.85990
H          4.89350       -9.13030        8.60680
H          3.52390       -9.68310       10.62270
H          2.49000       -9.40650        9.21600
H          2.65560       -8.15260       10.45590
H         -0.58630       -1.33690       -3.54050
H         -1.60130        0.13310       -5.42380
H          2.11110       -1.41230        6.03570
H          1.25420        0.08610        4.12910
H         -2.59640        1.91700       -6.72680
H          2.85600       -3.24630        7.41270
