114
BTC6-4F.mol
O         -3.47570       -9.36160        1.07160
C         -4.39100      -10.07250        0.69820
C         -4.62850      -11.47310        1.10820
C         -5.77880      -11.95640        0.46270
C         -6.32430      -10.89410       -0.38600
C         -7.43980      -11.01510       -1.17510
C         -7.97840      -10.00900       -2.00400
N         -8.48160       -9.24920       -2.70380
C         -8.21810      -12.18800       -1.27220
N         -8.89300      -13.10810       -1.39700
C         -6.20460      -13.25440        0.69570
C         -5.46450      -14.03570        1.57150
F         -5.86060      -15.29130        1.81020
C         -4.32350      -13.54610        2.20650
F         -3.64010      -14.33590        3.04410
C         -3.89080      -12.24930        1.97900
C         -5.47080       -9.73610       -0.23000
C         -5.64950       -8.51630       -0.84370
C         -4.90240       -7.33970       -0.76750
C         -5.27520       -6.18410       -1.48040
C         -4.41550       -5.13250       -1.28610
C         -4.30890       -3.69050       -1.73360
C         -5.57400       -2.93500       -1.28200
C         -5.57560       -1.44380       -1.59050
C         -4.01070       -3.56860       -3.24150
C         -5.13490       -4.02900       -4.15940
C         -3.37510       -5.46490       -0.39490
S         -3.44180       -7.07290        0.17710
C         -2.56710       -4.32520       -0.21000
C         -3.07790       -3.26340       -0.96570
C         -2.30920       -2.11690       -0.85420
C         -1.22520       -2.28820       -0.00140
S         -1.15070       -3.90680        0.65690
C         -0.26280       -1.28650        0.32860
C         -0.35790        0.04420       -0.15570
N         -1.26510        0.63290       -0.94890
N         -0.85420        1.86520       -1.06190
C         -1.59100        2.84660       -1.80520
C         -2.48700        3.65480       -0.87150
N          0.23820        2.17280       -0.42390
C          0.60520        1.03770        0.18010
C          0.84470       -1.49980        1.14520
C          1.79110       -0.51990        1.46810
F          2.79690       -0.90890        2.27380
C          1.72780        0.79160        1.00770
C          2.66200        1.83090        1.30550
C          3.83810        1.76100        2.04180
C          4.48180        2.98630        2.12190
C          5.75100        3.52000        2.74130
C          5.67750        3.54800        4.28460
C          5.50250        2.18830        4.94710
C          6.99630        2.76960        2.24390
C          7.14860        2.82280        0.72820
C          3.80320        3.99480        1.42810
S          2.35690        3.44030        0.69090
C          4.54160        5.19310        1.50000
C          5.71140        4.94840        2.24590
C          6.49840        6.06610        2.35390
C          5.95550        7.18480        1.69250
S          4.41450        6.79850        0.93130
C          6.61070        8.41640        1.67600
C          6.25790        9.61540        1.09610
C          5.03790        9.86660        0.32990
C          5.10380       11.28350       -0.08780
C          6.29160       11.85530        0.39720
C          6.57590       13.18420        0.12660
C          5.65960       13.90710       -0.62410
F          5.91700       15.19170       -0.89620
C          4.48290       13.32980       -1.09980
F          3.62650       14.06500       -1.82060
C          4.19130       12.00130       -0.83410
O          4.13710        9.08710        0.07510
C          7.03340       10.83620        1.14410
C          8.24050       11.04140        1.76240
C          8.97480       10.07780        2.48470
N          9.63970        9.36030        3.08740
C          8.92980       12.27270        1.76260
N          9.54430       13.24130        1.80500
F          1.04720       -2.72150        1.67340
H         -7.07830      -13.68170        0.23190
H         -3.00960      -11.86560        2.46770
H         -6.50930       -8.42870       -1.49670
H         -6.15830       -6.17150       -2.09420
H         -5.67370       -3.07440       -0.20240
H         -6.43790       -3.40660       -1.75220
H         -4.75090       -0.94410       -1.09050
H         -6.50480       -1.00380       -1.23530
H         -5.50260       -1.26040       -2.65890
H         -3.76620       -2.52710       -3.45550
H         -3.11700       -4.16260       -3.44940
H         -5.36030       -5.07940       -4.00010
H         -6.03930       -3.44780       -4.00330
H         -4.82830       -3.90390       -5.19540
H         -2.48100       -1.18210       -1.35320
H         -0.86860        3.50170       -2.29590
H         -2.18560        2.31410       -2.54930
H         -1.88310        4.16220       -0.12350
H         -3.19760        3.00250       -0.36960
H         -3.03640        4.39790       -1.44160
H          4.20250        0.84950        2.47580
H          6.59360        4.01520        4.65150
H          4.84040        4.19030        4.56990
H          4.56920        1.72420        4.64150
H          5.47900        2.31540        6.02690
H          6.32390        1.51960        4.70570
H          7.87720        3.21050        2.71440
H          6.92730        1.72770        2.55710
H          7.24130        3.84980        0.38280
H          8.03910        2.27780        0.42520
H          6.28810        2.37220        0.23880
H          7.43920        6.12190        2.87260
H          7.55120        8.40150        2.21350
H          7.46950       13.67910        0.46920
H          3.28310       11.54980       -1.20000
