BTIC-CF3-y.mol
  xtb     01102217443D
 energy: -206.030178315956 gnorm: 0.000777459925 xtb: 6.4.1 (unknown)
103114  0     0  0            999 V2000
    4.6553   -3.9013    1.6659 O   0  0  0  0  0  0  0  0  0  0  0  0
    5.3465   -4.8730    1.9172 C   0  0  0  0  0  0  0  0  0  0  0  0
    6.6991   -4.8450    2.5145 C   0  0  0  0  0  0  0  0  0  0  0  0
    7.4418   -3.7527    2.9106 C   0  0  0  0  0  0  0  0  0  0  0  0
    8.6996   -3.9939    3.4541 C   0  0  0  0  0  0  0  0  0  0  0  0
    9.5396   -2.8434    3.9366 C   0  0  0  0  0  0  0  0  0  0  0  0
    9.2257   -1.6841    3.3436 F   0  0  0  0  0  0  0  0  0  0  0  0
    9.3951   -2.6418    5.2611 F   0  0  0  0  0  0  0  0  0  0  0  0
   10.8506   -3.0390    3.7297 F   0  0  0  0  0  0  0  0  0  0  0  0
    9.1843   -5.2896    3.5969 C   0  0  0  0  0  0  0  0  0  0  0  0
    8.4296   -6.3827    3.1946 C   0  0  0  0  0  0  0  0  0  0  0  0
    7.1749   -6.1600    2.6490 C   0  0  0  0  0  0  0  0  0  0  0  0
    6.1528   -7.0821    2.1440 C   0  0  0  0  0  0  0  0  0  0  0  0
    5.0288   -6.2836    1.7046 C   0  0  0  0  0  0  0  0  0  0  0  0
    3.8536   -6.7829    1.1872 C   0  0  0  0  0  0  0  0  0  0  0  0
    2.7009   -6.1381    0.7406 C   0  0  0  0  0  0  0  0  0  0  0  0
    2.4533   -4.3894    0.7328 S   0  0  0  0  0  0  0  0  0  0  0  0
    1.5803   -6.8340    0.2440 C   0  0  0  0  0  0  0  0  0  0  0  0
    1.4789   -8.3132    0.0677 C   0  0  0  0  0  0  0  0  0  0  0  0
    2.1287   -8.7487   -1.2490 C   0  0  0  0  0  0  0  0  0  0  0  0
    0.5684   -5.9624   -0.1255 C   0  0  0  0  0  0  0  0  0  0  0  0
    0.8769   -4.6024    0.0723 C   0  0  0  0  0  0  0  0  0  0  0  0
   -0.1903   -3.7870   -0.3114 C   0  0  0  0  0  0  0  0  0  0  0  0
   -0.4908   -2.4522   -0.3200 N   0  0  0  0  0  0  0  0  0  0  0  0
   -1.7811   -2.3023   -0.7896 C   0  0  0  0  0  0  0  0  0  0  0  0
   -2.3068   -3.6063   -1.0502 C   0  0  0  0  0  0  0  0  0  0  0  0
   -3.6520   -3.8224   -1.4235 C   0  0  0  0  0  0  0  0  0  0  0  0
   -4.2687   -4.9677   -1.6678 N   0  0  0  0  0  0  0  0  0  0  0  0
   -5.8254   -4.6537   -1.9823 S   0  0  0  0  0  0  0  0  0  0  0  0
   -5.7702   -3.0439   -1.8195 N   0  0  0  0  0  0  0  0  0  0  0  0
   -4.5300   -2.6966   -1.5144 C   0  0  0  0  0  0  0  0  0  0  0  0
   -3.9957   -1.4019   -1.3304 C   0  0  0  0  0  0  0  0  0  0  0  0
   -4.5963   -0.1484   -1.4804 C   0  0  0  0  0  0  0  0  0  0  0  0
   -6.1481    0.5201   -1.8436 S   0  0  0  0  0  0  0  0  0  0  0  0
   -2.6158   -1.1750   -1.0315 C   0  0  0  0  0  0  0  0  0  0  0  0
   -2.3970    0.1886   -1.0516 N   0  0  0  0  0  0  0  0  0  0  0  0
   -3.5873    0.8096   -1.3152 C   0  0  0  0  0  0  0  0  0  0  0  0
   -4.0510    2.1129   -1.5086 C   0  0  0  0  0  0  0  0  0  0  0  0
   -5.4292    2.1198   -1.7989 C   0  0  0  0  0  0  0  0  0  0  0  0
   -5.9588    3.3829   -2.0093 C   0  0  0  0  0  0  0  0  0  0  0  0
   -7.4091    3.6188   -2.2749 C   0  0  0  0  0  0  0  0  0  0  0  0
   -8.1484    3.9663   -0.9795 C   0  0  0  0  0  0  0  0  0  0  0  0
   -4.9717    4.3809   -1.8819 C   0  0  0  0  0  0  0  0  0  0  0  0
   -5.2416    5.7379   -2.0551 C   0  0  0  0  0  0  0  0  0  0  0  0
   -4.4210    6.8419   -1.9776 C   0  0  0  0  0  0  0  0  0  0  0  0
   -4.8387    8.2098   -2.1974 C   0  0  0  0  0  0  0  0  0  0  0  0
   -3.6551    9.0607   -2.0385 C   0  0  0  0  0  0  0  0  0  0  0  0
   -2.5545    8.2451   -1.7275 C   0  0  0  0  0  0  0  0  0  0  0  0
   -2.9913    6.8334   -1.6747 C   0  0  0  0  0  0  0  0  0  0  0  0
   -2.2811    5.8742   -1.4284 O   0  0  0  0  0  0  0  0  0  0  0  0
   -1.2922    8.7621   -1.5239 C   0  0  0  0  0  0  0  0  0  0  0  0
   -1.1378   10.1400   -1.6338 C   0  0  0  0  0  0  0  0  0  0  0  0
    0.2184   10.7652   -1.4551 C   0  0  0  0  0  0  0  0  0  0  0  0
    0.7879   11.0685   -2.6377 F   0  0  0  0  0  0  0  0  0  0  0  0
    0.1661   11.9135   -0.7616 F   0  0  0  0  0  0  0  0  0  0  0  0
    1.0824    9.9685   -0.8137 F   0  0  0  0  0  0  0  0  0  0  0  0
   -2.2168   10.9619   -1.9420 C   0  0  0  0  0  0  0  0  0  0  0  0
   -3.4834   10.4322   -2.1449 C   0  0  0  0  0  0  0  0  0  0  0  0
   -6.0959    8.6663   -2.5021 C   0  0  0  0  0  0  0  0  0  0  0  0
   -7.2483    7.8682   -2.6588 C   0  0  0  0  0  0  0  0  0  0  0  0
   -8.2318    7.2909   -2.7994 N   0  0  0  0  0  0  0  0  0  0  0  0
   -6.4187   10.0247   -2.7061 C   0  0  0  0  0  0  0  0  0  0  0  0
   -6.7520   11.1082   -2.8869 N   0  0  0  0  0  0  0  0  0  0  0  0
   -3.3874    3.7020   -1.4971 S   0  0  0  0  0  0  0  0  0  0  0  0
   -1.1859    0.9778   -1.0383 C   0  0  0  0  0  0  0  0  0  0  0  0
   -1.0126    1.7442    0.2728 C   0  0  0  0  0  0  0  0  0  0  0  0
    0.4354   -1.5250    0.2897 C   0  0  0  0  0  0  0  0  0  0  0  0
    1.6182   -1.2087   -0.6252 C   0  0  0  0  0  0  0  0  0  0  0  0
   -1.2904   -4.5241   -0.7694 C   0  0  0  0  0  0  0  0  0  0  0  0
   -1.0381   -6.2337   -0.7758 S   0  0  0  0  0  0  0  0  0  0  0  0
    6.2782   -8.4478    2.1098 C   0  0  0  0  0  0  0  0  0  0  0  0
    7.4145   -9.1517    2.5621 C   0  0  0  0  0  0  0  0  0  0  0  0
    8.3035   -9.7884    2.9112 N   0  0  0  0  0  0  0  0  0  0  0  0
    5.3128   -9.3540    1.6233 C   0  0  0  0  0  0  0  0  0  0  0  0
    4.5806  -10.1566    1.2483 N   0  0  0  0  0  0  0  0  0  0  0  0
    7.0556   -2.7517    2.7960 H   0  0  0  0  0  0  0  0  0  0  0  0
   10.1637   -5.4451    4.0228 H   0  0  0  0  0  0  0  0  0  0  0  0
    8.8295   -7.3756    3.3149 H   0  0  0  0  0  0  0  0  0  0  0  0
    3.7963   -7.8599    1.1104 H   0  0  0  0  0  0  0  0  0  0  0  0
    0.4209   -8.5820    0.0482 H   0  0  0  0  0  0  0  0  0  0  0  0
    1.9510   -8.8425    0.8964 H   0  0  0  0  0  0  0  0  0  0  0  0
    3.1855   -8.4930   -1.2611 H   0  0  0  0  0  0  0  0  0  0  0  0
    2.0344   -9.8242   -1.3659 H   0  0  0  0  0  0  0  0  0  0  0  0
    1.6424   -8.2607   -2.0904 H   0  0  0  0  0  0  0  0  0  0  0  0
   -7.5520    4.4215   -2.9995 H   0  0  0  0  0  0  0  0  0  0  0  0
   -7.8325    2.7027   -2.6911 H   0  0  0  0  0  0  0  0  0  0  0  0
   -9.2029    4.1191   -1.1890 H   0  0  0  0  0  0  0  0  0  0  0  0
   -7.7498    4.8773   -0.5398 H   0  0  0  0  0  0  0  0  0  0  0  0
   -8.0480    3.1588   -0.2583 H   0  0  0  0  0  0  0  0  0  0  0  0
   -6.2767    5.9394   -2.2940 H   0  0  0  0  0  0  0  0  0  0  0  0
   -0.4628    8.1145   -1.2855 H   0  0  0  0  0  0  0  0  0  0  0  0
   -2.0648   12.0277   -2.0202 H   0  0  0  0  0  0  0  0  0  0  0  0
   -4.3018   11.0915   -2.3808 H   0  0  0  0  0  0  0  0  0  0  0  0
   -0.3358    0.3350   -1.2474 H   0  0  0  0  0  0  0  0  0  0  0  0
   -1.2628    1.7052   -1.8537 H   0  0  0  0  0  0  0  0  0  0  0  0
   -0.0329    2.2123    0.2948 H   0  0  0  0  0  0  0  0  0  0  0  0
   -1.7635    2.5250    0.3530 H   0  0  0  0  0  0  0  0  0  0  0  0
   -1.1121    1.0908    1.1372 H   0  0  0  0  0  0  0  0  0  0  0  0
   -0.0980   -0.6270    0.5873 H   0  0  0  0  0  0  0  0  0  0  0  0
    0.8212   -2.0006    1.1978 H   0  0  0  0  0  0  0  0  0  0  0  0
    1.2898   -0.8948   -1.6140 H   0  0  0  0  0  0  0  0  0  0  0  0
    2.2469   -2.0868   -0.7422 H   0  0  0  0  0  0  0  0  0  0  0  0
    2.2184   -0.4179   -0.1850 H   0  0  0  0  0  0  0  0  0  0  0  0
  1  2  2  0  0  0  0
  2  3  1  0  0  0  0
  3  4  2  0  0  0  0
  4  5  1  0  0  0  0
  5  6  1  0  0  0  0
  6  7  1  0  0  0  0
  6  8  1  0  0  0  0
  6  9  1  0  0  0  0
  5 10  2  0  0  0  0
 10 11  1  0  0  0  0
 11 12  2  0  0  0  0
  3 12  1  0  0  0  0
 12 13  1  0  0  0  0
 13 14  1  0  0  0  0
  2 14  1  0  0  0  0
 14 15  2  0  0  0  0
 15 16  1  0  0  0  0
 16 17  1  0  0  0  0
 16 18  2  0  0  0  0
 18 19  1  0  0  0  0
 19 20  1  0  0  0  0
 18 21  1  0  0  0  0
 21 22  2  0  0  0  0
 17 22  1  0  0  0  0
 22 23  1  0  0  0  0
 23 24  1  0  0  0  0
 24 25  1  0  0  0  0
 25 26  2  0  0  0  0
 26 27  1  0  0  0  0
 27 28  2  0  0  0  0
 28 29  1  0  0  0  0
 29 30  1  0  0  0  0
 30 31  2  0  0  0  0
 27 31  1  0  0  0  0
 31 32  1  0  0  0  0
 32 33  1  0  0  0  0
 33 34  1  0  0  0  0
 32 35  2  0  0  0  0
 25 35  1  0  0  0  0
 35 36  1  0  0  0  0
 36 37  1  0  0  0  0
 33 37  2  0  0  0  0
 37 38  1  0  0  0  0
 38 39  2  0  0  0  0
 34 39  1  0  0  0  0
 39 40  1  0  0  0  0
 40 41  1  0  0  0  0
 41 42  1  0  0  0  0
 40 43  2  0  0  0  0
 43 44  1  0  0  0  0
 44 45  2  0  0  0  0
 45 46  1  0  0  0  0
 46 47  1  0  0  0  0
 47 48  2  0  0  0  0
 48 49  1  0  0  0  0
 45 49  1  0  0  0  0
 49 50  2  0  0  0  0
 48 51  1  0  0  0  0
 51 52  2  0  0  0  0
 52 53  1  0  0  0  0
 53 54  1  0  0  0  0
 53 55  1  0  0  0  0
 53 56  1  0  0  0  0
 52 57  1  0  0  0  0
 57 58  2  0  0  0  0
 47 58  1  0  0  0  0
 46 59  2  0  0  0  0
 59 60  1  0  0  0  0
 60 61  3  0  0  0  0
 59 62  1  0  0  0  0
 62 63  3  0  0  0  0
 43 64  1  0  0  0  0
 38 64  1  0  0  0  0
 36 65  1  0  0  0  0
 65 66  1  0  0  0  0
 24 67  1  0  0  0  0
 67 68  1  0  0  0  0
 23 69  2  0  0  0  0
 26 69  1  0  0  0  0
 69 70  1  0  0  0  0
 21 70  1  0  0  0  0
 13 71  2  0  0  0  0
 71 72  1  0  0  0  0
 72 73  3  0  0  0  0
 71 74  1  0  0  0  0
 74 75  3  0  0  0  0
  4 76  1  0  0  0  0
 10 77  1  0  0  0  0
 11 78  1  0  0  0  0
 15 79  1  0  0  0  0
 19 80  1  0  0  0  0
 19 81  1  0  0  0  0
 20 82  1  0  0  0  0
 20 83  1  0  0  0  0
 20 84  1  0  0  0  0
 41 85  1  0  0  0  0
 41 86  1  0  0  0  0
 42 87  1  0  0  0  0
 42 88  1  0  0  0  0
 42 89  1  0  0  0  0
 44 90  1  0  0  0  0
 51 91  1  0  0  0  0
 57 92  1  0  0  0  0
 58 93  1  0  0  0  0
 65 94  1  0  0  0  0
 65 95  1  0  0  0  0
 66 96  1  0  0  0  0
 66 97  1  0  0  0  0
 66 98  1  0  0  0  0
 67 99  1  0  0  0  0
 67100  1  0  0  0  0
 68101  1  0  0  0  0
 68102  1  0  0  0  0
 68103  1  0  0  0  0
M  END
