109
BTIC-OCOMe.sdf
C         -0.23620       -6.15730       -2.63330
O         -0.15580       -4.98430       -2.31050
C         -0.28150       -6.67800       -4.01400
C         -0.22730       -5.97760       -5.19810
C         -0.26690       -6.70330       -6.38830
C         -0.37070       -8.09050       -6.37130
C         -0.42330       -8.78580       -5.17110
C         -0.37650       -8.08040       -3.97940
C         -0.40150       -8.51540       -2.58340
C         -0.50870       -9.81780       -2.16620
C         -0.61640      -10.92180       -3.03820
N         -0.71260      -11.86630       -3.68380
C         -0.53690      -10.25880       -0.82720
N         -0.56800      -10.70100        0.23340
C         -0.29830       -7.32810       -1.75770
C         -0.24720       -7.31970       -0.38370
C         -0.13100       -6.26480        0.52490
S         -0.02360       -4.55730        0.08610
C          0.10150       -4.12980        1.74940
C          0.05820       -5.25520        2.59160
C         -0.07300       -6.46080        1.91760
C         -0.19290       -7.77260        2.62160
C         -1.66310       -8.16870        2.78500
S          0.20140       -4.86090        4.29510
C          0.32210       -3.18910        3.86880
C          0.24310       -2.95350        2.48750
N          0.33800       -1.60780        2.23380
C          0.83310       -1.13840        0.95470
C          2.23420       -1.68020        0.67440
C          0.46660       -0.97510        3.45290
C          0.50480       -1.94470        4.49190
C          0.81400       -1.56280        5.81890
N          0.93370       -2.33220        6.88820
S          1.41280       -1.41680        8.13410
N          1.48430        0.00200        7.35880
C          1.13280       -0.18640        6.09760
C          0.97150        0.78030        5.07690
C          0.52380        0.39520        3.78390
N          0.26570        1.52050        3.02840
C         -0.72140        1.64530        1.97320
C         -2.03820        2.20200        2.51290
C          0.60100        2.60640        3.79870
C          1.05430        2.18140        5.05720
S          1.52450        3.47860        6.09970
C          1.10060        4.61330        4.83080
C          0.61700        3.99570        3.66360
S          0.19700        5.14140        2.44870
C          0.68660        6.46260        3.51380
C          1.14670        5.99800        4.76030
C          1.68050        6.84480        5.86890
C          3.16010        7.16750        5.64280
C          0.64040        7.81880        3.18010
C          0.19800        8.45380        2.04370
C          0.20620        9.88670        1.82860
C          0.75490       10.85050        2.63640
C          1.43490       10.62130        3.85020
N          2.00810       10.51860        4.84120
C          0.73000       12.23100        2.34790
N          0.74570       13.36630        2.17610
C         -0.46160       10.14070        0.55280
C         -0.75620       11.31730       -0.12040
C         -1.42120       11.23950       -1.33250
C         -1.79310       10.01270       -1.88030
C         -1.49380        8.82160       -1.22520
C         -0.83420        8.91200       -0.01660
C         -0.41140        7.81380        0.87600
O         -0.55170        6.62190        0.66610
O         -0.25190       -5.96060       -7.55230
C          0.37800       -6.38400       -8.67150
C          0.16830       -5.38730       -9.77670
O          1.01300       -7.39630       -8.75220
O         -2.41130       10.06850       -3.11340
C         -3.36620        9.18560       -3.48460
C         -3.79110        9.46830       -4.89830
O         -3.80530        8.32240       -2.78010
H         -0.15490       -4.90170       -5.20980
H         -0.40330       -8.63710       -7.29970
H         -0.49970       -9.86030       -5.19070
H         -0.29550       -8.28870        0.09360
H          0.26070       -7.67160        3.60960
H          0.33530       -8.55970        2.08180
H         -1.73170       -9.11490        3.31370
H         -2.19850       -7.41050        3.35180
H         -2.14190       -8.28160        1.81530
H          0.88120       -0.05150        0.96400
H          0.14460       -1.47200        0.17260
H          2.91720       -1.38830        1.46970
H          2.59660       -1.27330       -0.26520
H          2.22550       -2.76360        0.59830
H         -0.32740        2.31390        1.20190
H         -0.91430        0.66230        1.54730
H         -2.41560        1.56880        3.31330
H         -2.77200        2.22980        1.71270
H         -1.90910        3.21090        2.89330
H          1.57620        6.28770        6.80220
H          1.11720        7.77430        5.96080
H          3.74110        6.25070        5.57520
H          3.53690        7.76100        6.47060
H          3.29510        7.73540        4.72560
H          1.00850        8.46400        3.96610
H         -0.48800       12.28200        0.27730
H         -1.66500       12.13830       -1.87700
H         -1.76650        7.85940       -1.62720
H          0.31360       -4.37800       -9.40200
H          0.85580       -5.59650      -10.59020
H         -0.85490       -5.47260      -10.13760
H         -2.99740        9.15560       -5.57410
H         -3.95100       10.53440       -5.03320
H         -4.69700        8.91450       -5.12380
