BTIC-F-m.mol
  xtb     01102217453D
 energy: -182.789315528736 gnorm: 0.000821157936 xtb: 6.4.1 (unknown)
 97108  0     0  0            999 V2000
    3.7690   -3.3593    5.0915 O   0  0  0  0  0  0  0  0  0  0  0  0
    4.5469   -3.5546    6.0101 C   0  0  0  0  0  0  0  0  0  0  0  0
    4.6920   -4.8083    6.7728 C   0  0  0  0  0  0  0  0  0  0  0  0
    5.6956   -4.6467    7.7439 C   0  0  0  0  0  0  0  0  0  0  0  0
    6.2349   -3.2883    7.6427 C   0  0  0  0  0  0  0  0  0  0  0  0
    5.5185   -2.6177    6.5780 C   0  0  0  0  0  0  0  0  0  0  0  0
    5.7257   -1.3180    6.1779 C   0  0  0  0  0  0  0  0  0  0  0  0
    5.1243   -0.5604    5.1706 C   0  0  0  0  0  0  0  0  0  0  0  0
    5.4775    0.7774    4.9081 C   0  0  0  0  0  0  0  0  0  0  0  0
    6.4608    1.5891    5.6857 C   0  0  0  0  0  0  0  0  0  0  0  0
    5.8113    2.1627    6.9485 C   0  0  0  0  0  0  0  0  0  0  0  0
    4.7442    1.2943    3.8502 C   0  0  0  0  0  0  0  0  0  0  0  0
    4.7413    2.8636    3.0652 S   0  0  0  0  0  0  0  0  0  0  0  0
    3.5155    2.2912    1.9876 C   0  0  0  0  0  0  0  0  0  0  0  0
    3.1285    0.9638    2.2307 C   0  0  0  0  0  0  0  0  0  0  0  0
    2.1481    0.5896    1.3459 N   0  0  0  0  0  0  0  0  0  0  0  0
    1.8912    1.6819    0.5435 C   0  0  0  0  0  0  0  0  0  0  0  0
    2.7658    2.7473    0.8920 C   0  0  0  0  0  0  0  0  0  0  0  0
    2.8217    3.9169    0.0971 C   0  0  0  0  0  0  0  0  0  0  0  0
    3.6038    4.9734    0.2454 N   0  0  0  0  0  0  0  0  0  0  0  0
    3.3522    5.9827   -0.9942 S   0  0  0  0  0  0  0  0  0  0  0  0
    2.2300    5.1129   -1.7706 N   0  0  0  0  0  0  0  0  0  0  0  0
    2.0078    4.0018   -1.0879 C   0  0  0  0  0  0  0  0  0  0  0  0
    1.0537    2.9888   -1.3454 C   0  0  0  0  0  0  0  0  0  0  0  0
    0.0308    2.8485   -2.2967 C   0  0  0  0  0  0  0  0  0  0  0  0
   -0.5569    3.6448   -3.7151 S   0  0  0  0  0  0  0  0  0  0  0  0
    0.9225    1.8831   -0.4617 C   0  0  0  0  0  0  0  0  0  0  0  0
   -0.1835    1.1368   -0.8129 N   0  0  0  0  0  0  0  0  0  0  0  0
   -0.7185    1.7176   -1.9358 C   0  0  0  0  0  0  0  0  0  0  0  0
   -1.7898    1.4847   -2.7992 C   0  0  0  0  0  0  0  0  0  0  0  0
   -1.8338    2.4464   -3.8246 C   0  0  0  0  0  0  0  0  0  0  0  0
   -2.8772    2.2686   -4.7212 C   0  0  0  0  0  0  0  0  0  0  0  0
   -3.0763    3.1444   -5.9144 C   0  0  0  0  0  0  0  0  0  0  0  0
   -2.4161    2.5320   -7.1530 C   0  0  0  0  0  0  0  0  0  0  0  0
   -3.6548    1.1435   -4.3853 C   0  0  0  0  0  0  0  0  0  0  0  0
   -4.7632    0.7387   -5.1325 C   0  0  0  0  0  0  0  0  0  0  0  0
   -5.6321   -0.3143   -4.9638 C   0  0  0  0  0  0  0  0  0  0  0  0
   -6.7533   -0.6188   -5.8282 C   0  0  0  0  0  0  0  0  0  0  0  0
   -7.4326   -1.7891   -5.2666 C   0  0  0  0  0  0  0  0  0  0  0  0
   -8.5559   -2.4838   -5.6817 C   0  0  0  0  0  0  0  0  0  0  0  0
   -8.9492   -3.5719   -4.9132 C   0  0  0  0  0  0  0  0  0  0  0  0
  -10.0367   -4.2592   -5.2969 F   0  0  0  0  0  0  0  0  0  0  0  0
   -8.2787   -3.9849   -3.7719 C   0  0  0  0  0  0  0  0  0  0  0  0
   -7.1553   -3.2850   -3.3609 C   0  0  0  0  0  0  0  0  0  0  0  0
   -6.7463   -2.1983   -4.1097 C   0  0  0  0  0  0  0  0  0  0  0  0
   -5.6005   -1.2989   -3.8803 C   0  0  0  0  0  0  0  0  0  0  0  0
   -4.8021   -1.3739   -2.9615 O   0  0  0  0  0  0  0  0  0  0  0  0
   -7.1338    0.0357   -6.9718 C   0  0  0  0  0  0  0  0  0  0  0  0
   -6.4854    1.1518   -7.5401 C   0  0  0  0  0  0  0  0  0  0  0  0
   -6.0136    2.0563   -8.0695 N   0  0  0  0  0  0  0  0  0  0  0  0
   -8.2494   -0.3251   -7.7572 C   0  0  0  0  0  0  0  0  0  0  0  0
   -9.1371   -0.5630   -8.4448 N   0  0  0  0  0  0  0  0  0  0  0  0
   -3.0591    0.3293   -2.9355 S   0  0  0  0  0  0  0  0  0  0  0  0
   -1.0222    0.3618    0.0808 C   0  0  0  0  0  0  0  0  0  0  0  0
   -2.2122    1.1858    0.5710 C   0  0  0  0  0  0  0  0  0  0  0  0
    1.9754   -0.8060    0.9928 C   0  0  0  0  0  0  0  0  0  0  0  0
    3.2679   -1.3950    0.4290 C   0  0  0  0  0  0  0  0  0  0  0  0
    3.8317    0.3839    3.2872 C   0  0  0  0  0  0  0  0  0  0  0  0
    3.8662   -1.1455    4.0776 S   0  0  0  0  0  0  0  0  0  0  0  0
    7.2429   -2.7836    8.4240 C   0  0  0  0  0  0  0  0  0  0  0  0
    7.7827   -1.4834    8.3385 C   0  0  0  0  0  0  0  0  0  0  0  0
    8.2750   -0.4448    8.3350 N   0  0  0  0  0  0  0  0  0  0  0  0
    7.8972   -3.5115    9.4407 C   0  0  0  0  0  0  0  0  0  0  0  0
    8.4758   -4.0414   10.2785 N   0  0  0  0  0  0  0  0  0  0  0  0
    6.0115   -5.6979    8.5878 C   0  0  0  0  0  0  0  0  0  0  0  0
    5.3023   -6.8804    8.4214 C   0  0  0  0  0  0  0  0  0  0  0  0
    5.5925   -7.9127    9.2293 F   0  0  0  0  0  0  0  0  0  0  0  0
    4.3119   -7.0508    7.4659 C   0  0  0  0  0  0  0  0  0  0  0  0
    3.9996   -5.9947    6.6246 C   0  0  0  0  0  0  0  0  0  0  0  0
    6.4829   -0.7738    6.7252 H   0  0  0  0  0  0  0  0  0  0  0  0
    7.3310    0.9935    5.9651 H   0  0  0  0  0  0  0  0  0  0  0  0
    6.7987    2.4128    5.0537 H   0  0  0  0  0  0  0  0  0  0  0  0
    5.4617    1.3645    7.5990 H   0  0  0  0  0  0  0  0  0  0  0  0
    4.9648    2.7928    6.6856 H   0  0  0  0  0  0  0  0  0  0  0  0
    6.5353    2.7596    7.4953 H   0  0  0  0  0  0  0  0  0  0  0  0
   -4.1367    3.3062   -6.1125 H   0  0  0  0  0  0  0  0  0  0  0  0
   -2.6153    4.1122   -5.7073 H   0  0  0  0  0  0  0  0  0  0  0  0
   -1.3500    2.3975   -6.9859 H   0  0  0  0  0  0  0  0  0  0  0  0
   -2.5568    3.1888   -8.0064 H   0  0  0  0  0  0  0  0  0  0  0  0
   -2.8569    1.5660   -7.3869 H   0  0  0  0  0  0  0  0  0  0  0  0
   -4.9579    1.3754   -5.9845 H   0  0  0  0  0  0  0  0  0  0  0  0
   -9.1259   -2.2199   -6.5567 H   0  0  0  0  0  0  0  0  0  0  0  0
   -8.6423   -4.8405   -3.2253 H   0  0  0  0  0  0  0  0  0  0  0  0
   -6.6057   -3.5726   -2.4783 H   0  0  0  0  0  0  0  0  0  0  0  0
   -1.3808   -0.5220   -0.4554 H   0  0  0  0  0  0  0  0  0  0  0  0
   -0.4371    0.0567    0.9462 H   0  0  0  0  0  0  0  0  0  0  0  0
   -1.8656    2.0919    1.0638 H   0  0  0  0  0  0  0  0  0  0  0  0
   -2.7884    0.5998    1.2811 H   0  0  0  0  0  0  0  0  0  0  0  0
   -2.8628    1.4611   -0.2540 H   0  0  0  0  0  0  0  0  0  0  0  0
    1.2003   -0.8911    0.2339 H   0  0  0  0  0  0  0  0  0  0  0  0
    1.6786   -1.3579    1.8898 H   0  0  0  0  0  0  0  0  0  0  0  0
    4.0576   -1.3885    1.1745 H   0  0  0  0  0  0  0  0  0  0  0  0
    3.0926   -2.4227    0.1241 H   0  0  0  0  0  0  0  0  0  0  0  0
    3.5962   -0.8237   -0.4369 H   0  0  0  0  0  0  0  0  0  0  0  0
    6.7684   -5.6375    9.3519 H   0  0  0  0  0  0  0  0  0  0  0  0
    3.8036   -7.9992    7.3945 H   0  0  0  0  0  0  0  0  0  0  0  0
    3.2357   -6.0855    5.8684 H   0  0  0  0  0  0  0  0  0  0  0  0
  1  2  2  0  0  0  0
  2  3  1  0  0  0  0
  3  4  2  0  0  0  0
  4  5  1  0  0  0  0
  5  6  1  0  0  0  0
  2  6  1  0  0  0  0
  6  7  2  0  0  0  0
  7  8  1  0  0  0  0
  8  9  2  0  0  0  0
  9 10  1  0  0  0  0
 10 11  1  0  0  0  0
  9 12  1  0  0  0  0
 12 13  1  0  0  0  0
 13 14  1  0  0  0  0
 14 15  2  0  0  0  0
 15 16  1  0  0  0  0
 16 17  1  0  0  0  0
 17 18  2  0  0  0  0
 14 18  1  0  0  0  0
 18 19  1  0  0  0  0
 19 20  2  0  0  0  0
 20 21  1  0  0  0  0
 21 22  1  0  0  0  0
 22 23  2  0  0  0  0
 19 23  1  0  0  0  0
 23 24  1  0  0  0  0
 24 25  1  0  0  0  0
 25 26  1  0  0  0  0
 24 27  2  0  0  0  0
 17 27  1  0  0  0  0
 27 28  1  0  0  0  0
 28 29  1  0  0  0  0
 25 29  2  0  0  0  0
 29 30  1  0  0  0  0
 30 31  2  0  0  0  0
 26 31  1  0  0  0  0
 31 32  1  0  0  0  0
 32 33  1  0  0  0  0
 33 34  1  0  0  0  0
 32 35  2  0  0  0  0
 35 36  1  0  0  0  0
 36 37  2  0  0  0  0
 37 38  1  0  0  0  0
 38 39  1  0  0  0  0
 39 40  2  0  0  0  0
 40 41  1  0  0  0  0
 41 42  1  0  0  0  0
 41 43  2  0  0  0  0
 43 44  1  0  0  0  0
 44 45  2  0  0  0  0
 39 45  1  0  0  0  0
 45 46  1  0  0  0  0
 37 46  1  0  0  0  0
 46 47  2  0  0  0  0
 38 48  2  0  0  0  0
 48 49  1  0  0  0  0
 49 50  3  0  0  0  0
 48 51  1  0  0  0  0
 51 52  3  0  0  0  0
 35 53  1  0  0  0  0
 30 53  1  0  0  0  0
 28 54  1  0  0  0  0
 54 55  1  0  0  0  0
 16 56  1  0  0  0  0
 56 57  1  0  0  0  0
 12 58  2  0  0  0  0
 15 58  1  0  0  0  0
 58 59  1  0  0  0  0
  8 59  1  0  0  0  0
  5 60  2  0  0  0  0
 60 61  1  0  0  0  0
 61 62  3  0  0  0  0
 60 63  1  0  0  0  0
 63 64  3  0  0  0  0
  4 65  1  0  0  0  0
 65 66  2  0  0  0  0
 66 67  1  0  0  0  0
 66 68  1  0  0  0  0
 68 69  2  0  0  0  0
  3 69  1  0  0  0  0
  7 70  1  0  0  0  0
 10 71  1  0  0  0  0
 10 72  1  0  0  0  0
 11 73  1  0  0  0  0
 11 74  1  0  0  0  0
 11 75  1  0  0  0  0
 33 76  1  0  0  0  0
 33 77  1  0  0  0  0
 34 78  1  0  0  0  0
 34 79  1  0  0  0  0
 34 80  1  0  0  0  0
 36 81  1  0  0  0  0
 40 82  1  0  0  0  0
 43 83  1  0  0  0  0
 44 84  1  0  0  0  0
 54 85  1  0  0  0  0
 54 86  1  0  0  0  0
 55 87  1  0  0  0  0
 55 88  1  0  0  0  0
 55 89  1  0  0  0  0
 56 90  1  0  0  0  0
 56 91  1  0  0  0  0
 57 92  1  0  0  0  0
 57 93  1  0  0  0  0
 57 94  1  0  0  0  0
 65 95  1  0  0  0  0
 68 96  1  0  0  0  0
 69 97  1  0  0  0  0
M  END
