109
BTIC-COOMe.sdf
C          1.36050        2.63660        6.29880
O          1.79050        2.01160        5.34530
C          1.81520        3.96880        6.74490
C          2.72910        4.81290        6.15470
C          2.96380        6.05300        6.75190
C          2.29400        6.40600        7.92200
C          1.37980        5.54890        8.51770
C          1.13150        4.32090        7.92310
C          0.21550        3.23460        8.27660
C         -0.56020        3.19340        9.40760
C         -1.42970        2.14310        9.76790
N         -2.15660        1.33010       10.13020
C         -0.58130        4.20450       10.39090
N         -0.64950        4.98740       11.22790
C          0.30590        2.23560        7.23250
C         -0.53270        1.15370        7.09440
C         -0.61630        0.18780        6.08900
S          0.51680        0.03060        4.74350
C         -0.44190       -1.23240        4.07600
C         -1.58090       -1.50690        4.85450
C         -1.67440       -0.73800        6.00510
C         -2.81820       -0.84290        6.96010
C         -3.91770        0.16250        6.60580
S         -2.64570       -2.70310        4.13480
C         -1.57770       -2.79480        2.77630
C         -0.44380       -1.98180        2.89920
N          0.33810       -2.08790        1.77630
C          1.76230       -1.84320        1.88350
C          2.38900       -2.69170        2.98980
C         -0.32600       -2.91550        0.89010
C         -1.50810       -3.40800        1.51630
C         -2.35350       -4.33450        0.86560
N         -3.43690       -4.93330        1.33380
S         -4.01320       -5.92260        0.18980
N         -2.90800       -5.61830       -0.95250
C         -2.04520       -4.73390       -0.47860
C         -0.96560       -4.11310       -1.14740
C         -0.11530       -3.18180       -0.48500
N          0.73620       -2.62320       -1.41840
C          1.55420       -1.43200       -1.35380
C          3.04410       -1.75520       -1.46180
C          0.44420       -3.17870       -2.63460
C         -0.59630       -4.10630       -2.50030
S         -1.13240       -4.76720       -4.00480
C          0.02230       -3.75350       -4.84210
C          0.81030       -2.98980       -3.97020
S          1.94590       -2.02400       -4.83340
C          1.25220       -2.55100       -6.36620
C          0.25330       -3.49890       -6.20210
C         -0.41260       -4.23580       -7.31480
C         -0.21000       -5.74580       -7.19420
C          1.76240       -1.94930       -7.54130
C          0.99660       -1.48460       -8.57230
C          1.48220       -0.90480       -9.80610
C          2.68740       -1.17990      -10.39440
C          3.61910       -2.09450       -9.85770
N          4.39690       -2.84630       -9.47410
C          3.11670       -0.62630      -11.61790
N          3.51490       -0.20000      -12.60620
C          0.42430       -0.05110      -10.33720
C          0.40260        0.82010      -11.41610
C         -0.74920        1.55680      -11.64330
C         -1.86810        1.43700      -10.81870
C         -1.85960        0.54860       -9.74290
C         -0.71370       -0.18440       -9.51930
C         -0.44040       -1.14640       -8.42800
O         -1.20700       -1.49600       -7.55800
C          3.92720        6.97250        6.09140
C         -3.04460        2.29970      -11.10870
O         -4.01630        2.15700      -10.19990
O         -3.11450        3.05530      -12.04560
C         -5.16660        2.96770      -10.38940
O          4.03210        8.14860        6.72320
O          4.54270        6.69940        5.09110
C          4.92510        9.08590        6.13940
H          3.24820        4.53830        5.24920
H          2.49050        7.36870        8.36700
H          0.87380        5.85240        9.41940
H         -1.29940        1.05270        7.85050
H         -2.48800       -0.67640        7.98650
H         -3.22710       -1.85290        6.89180
H         -3.54040        1.18130        6.65760
H         -4.74490        0.06460        7.30290
H         -4.28590       -0.02010        5.59890
H          1.92270       -0.78210        2.09910
H          2.23790       -2.10630        0.94510
H          3.46420       -2.53610        2.99590
H          1.99830       -2.41670        3.96490
H          2.18870       -3.74720        2.81620
H          1.32020       -0.88460       -0.44140
H          1.27600       -0.79560       -2.20140
H          3.62720       -0.85140       -1.31180
H          3.26990       -2.15020       -2.44880
H          3.35060       -2.49680       -0.72730
H         -1.47980       -4.00240       -7.29020
H         -0.01430       -3.89070       -8.26960
H          0.85090       -5.98700       -7.19800
H         -0.65160       -6.12740       -6.27770
H         -0.68030       -6.24640       -8.03650
H          2.82890       -1.75290       -7.55340
H          1.25970        0.94330      -12.05830
H         -0.79810        2.25480      -12.46570
H         -2.71730        0.44190       -9.09820
H         -5.84790        2.72230       -9.57890
H         -4.89420        4.02470      -10.35580
H         -5.62590        2.75540      -11.35680
H          5.93920        8.68180        6.11920
H          4.87960        9.97660        6.76040
H          4.61890        9.31390        5.11630
