BTIC-2Cl-yCF3.sdf
  xtb     12202114123D
 energy: -198.268865035168 gnorm: 0.000435156041 xtb: 6.4.1 (unknown)
100111  0     0  0            999 V2000
    2.4036    8.8737    1.3411 C   0  0  0  0  0  0  0  0  0  0  0  0
    2.8606    7.9147    1.9255 O   0  0  0  0  0  0  0  0  0  0  0  0
    3.0712   10.1781    1.1332 C   0  0  0  0  0  0  0  0  0  0  0  0
    4.2965   10.5979    1.6074 C   0  0  0  0  0  0  0  0  0  0  0  0
    4.7317   11.8737    1.2696 C   0  0  0  0  0  0  0  0  0  0  0  0
    3.9411   12.6979    0.4613 C   0  0  0  0  0  0  0  0  0  0  0  0
    2.7076   12.2692   -0.0174 C   0  0  0  0  0  0  0  0  0  0  0  0
    2.2692   11.0003    0.3230 C   0  0  0  0  0  0  0  0  0  0  0  0
    1.0451   10.2786   -0.0119 C   0  0  0  0  0  0  0  0  0  0  0  0
   -0.0317   10.7886   -0.6890 C   0  0  0  0  0  0  0  0  0  0  0  0
   -0.0805   12.0898   -1.2310 C   0  0  0  0  0  0  0  0  0  0  0  0
   -0.1731   13.1331   -1.7001 N   0  0  0  0  0  0  0  0  0  0  0  0
   -1.2416   10.0941   -0.9011 C   0  0  0  0  0  0  0  0  0  0  0  0
   -2.2584    9.5944   -1.0877 N   0  0  0  0  0  0  0  0  0  0  0  0
    1.1362    8.9621    0.5832 C   0  0  0  0  0  0  0  0  0  0  0  0
    0.3331    7.8908    0.2911 C   0  0  0  0  0  0  0  0  0  0  0  0
    0.3064    6.6539    0.9648 C   0  0  0  0  0  0  0  0  0  0  0  0
   -0.0403    5.2320   -0.0214 S   0  0  0  0  0  0  0  0  0  0  0  0
    0.1426    4.2100    1.3513 C   0  0  0  0  0  0  0  0  0  0  0  0
    0.3842    4.9560    2.5157 C   0  0  0  0  0  0  0  0  0  0  0  0
    0.4654    6.3402    2.3122 C   0  0  0  0  0  0  0  0  0  0  0  0
    0.5708    7.3455    3.4080 C   0  0  0  0  0  0  0  0  0  0  0  0
   -0.4356    7.0945    4.5295 C   0  0  0  0  0  0  0  0  0  0  0  0
    0.5946    3.9509    3.9336 S   0  0  0  0  0  0  0  0  0  0  0  0
    0.3797    2.5474    2.9510 C   0  0  0  0  0  0  0  0  0  0  0  0
    0.1295    2.8358    1.6039 C   0  0  0  0  0  0  0  0  0  0  0  0
    0.0037    1.6726    0.8937 N   0  0  0  0  0  0  0  0  0  0  0  0
    0.0460    1.7077   -0.5505 C   0  0  0  0  0  0  0  0  0  0  0  0
    0.1652    0.6187    1.7721 C   0  0  0  0  0  0  0  0  0  0  0  0
    0.4353    1.1521    3.0668 C   0  0  0  0  0  0  0  0  0  0  0  0
    0.8060    0.3264    4.1515 C   0  0  0  0  0  0  0  0  0  0  0  0
    1.1128    0.6774    5.3904 N   0  0  0  0  0  0  0  0  0  0  0  0
    1.5607   -0.6483    6.2033 S   0  0  0  0  0  0  0  0  0  0  0  0
    1.3787   -1.7221    5.0065 N   0  0  0  0  0  0  0  0  0  0  0  0
    0.9584   -1.0811    3.9274 C   0  0  0  0  0  0  0  0  0  0  0  0
    0.6058   -1.6140    2.6671 C   0  0  0  0  0  0  0  0  0  0  0  0
    0.1227   -0.7901    1.6072 C   0  0  0  0  0  0  0  0  0  0  0  0
   -0.2661   -1.6056    0.5572 N   0  0  0  0  0  0  0  0  0  0  0  0
   -1.2653   -1.3738   -0.4659 C   0  0  0  0  0  0  0  0  0  0  0  0
   -2.6559   -1.2492    0.1525 C   0  0  0  0  0  0  0  0  0  0  0  0
   -0.0157   -2.9022    0.9289 C   0  0  0  0  0  0  0  0  0  0  0  0
    0.5430   -2.9375    2.2131 C   0  0  0  0  0  0  0  0  0  0  0  0
    0.9158   -4.5303    2.7713 S   0  0  0  0  0  0  0  0  0  0  0  0
    0.3052   -5.1682    1.2550 C   0  0  0  0  0  0  0  0  0  0  0  0
   -0.1666   -4.1747    0.3753 C   0  0  0  0  0  0  0  0  0  0  0  0
   -0.7766   -4.8439   -1.0888 S   0  0  0  0  0  0  0  0  0  0  0  0
   -0.3655   -6.4686   -0.5305 C   0  0  0  0  0  0  0  0  0  0  0  0
    0.2088   -6.4577    0.7568 C   0  0  0  0  0  0  0  0  0  0  0  0
    0.6207   -7.6627    1.5365 C   0  0  0  0  0  0  0  0  0  0  0  0
   -0.5844   -8.2963    2.2379 C   0  0  0  0  0  0  0  0  0  0  0  0
   -0.5486   -7.6373   -1.2679 C   0  0  0  0  0  0  0  0  0  0  0  0
   -1.1004   -7.8449   -2.5134 C   0  0  0  0  0  0  0  0  0  0  0  0
   -1.1949   -9.1251   -3.1805 C   0  0  0  0  0  0  0  0  0  0  0  0
   -0.6937  -10.3306   -2.7585 C   0  0  0  0  0  0  0  0  0  0  0  0
    0.0118  -10.5548   -1.5578 C   0  0  0  0  0  0  0  0  0  0  0  0
    0.5948  -10.8185   -0.6033 N   0  0  0  0  0  0  0  0  0  0  0  0
   -0.8050  -11.5339   -3.4868 C   0  0  0  0  0  0  0  0  0  0  0  0
   -0.8574  -12.5459   -4.0262 N   0  0  0  0  0  0  0  0  0  0  0  0
   -1.9139   -8.9114   -4.4405 C   0  0  0  0  0  0  0  0  0  0  0  0
   -2.3020   -9.7882   -5.4417 C   0  0  0  0  0  0  0  0  0  0  0  0
   -2.9945   -9.2856   -6.5342 C   0  0  0  0  0  0  0  0  0  0  0  0
   -3.2927   -7.9304   -6.6315 C   0  0  0  0  0  0  0  0  0  0  0  0
   -4.0745   -7.4495   -7.8228 C   0  0  0  0  0  0  0  0  0  0  0  0
   -2.9108   -7.0371   -5.6362 C   0  0  0  0  0  0  0  0  0  0  0  0
   -2.2242   -7.5461   -4.5537 C   0  0  0  0  0  0  0  0  0  0  0  0
   -1.7129   -6.8280   -3.3661 C   0  0  0  0  0  0  0  0  0  0  0  0
   -1.8001   -5.6296   -3.1634 O   0  0  0  0  0  0  0  0  0  0  0  0
   -1.3083    2.0737   -1.1557 C   0  0  0  0  0  0  0  0  0  0  0  0
   -5.3813   -7.7617   -7.7203 F   0  0  0  0  0  0  0  0  0  0  0  0
   -3.6494   -8.0005   -8.9710 F   0  0  0  0  0  0  0  0  0  0  0  0
   -4.0160   -6.1224   -7.9892 F   0  0  0  0  0  0  0  0  0  0  0  0
    6.2476   12.4367    1.8470 Cl  0  0  0  0  0  0  0  0  0  0  0  0
    4.4961   14.2684    0.0434 Cl  0  0  0  0  0  0  0  0  0  0  0  0
    4.8982    9.9512    2.2262 H   0  0  0  0  0  0  0  0  0  0  0  0
    2.1278   12.9278   -0.6431 H   0  0  0  0  0  0  0  0  0  0  0  0
   -0.3021    7.9534   -0.5853 H   0  0  0  0  0  0  0  0  0  0  0  0
    0.4089    8.3426    2.9951 H   0  0  0  0  0  0  0  0  0  0  0  0
    1.5880    7.3152    3.8085 H   0  0  0  0  0  0  0  0  0  0  0  0
   -0.2333    6.1581    5.0410 H   0  0  0  0  0  0  0  0  0  0  0  0
   -1.4477    7.0638    4.1315 H   0  0  0  0  0  0  0  0  0  0  0  0
   -0.3760    7.9003    5.2565 H   0  0  0  0  0  0  0  0  0  0  0  0
    0.7743    2.4740   -0.8387 H   0  0  0  0  0  0  0  0  0  0  0  0
    0.4204    0.7507   -0.9156 H   0  0  0  0  0  0  0  0  0  0  0  0
   -1.2359   -2.2377   -1.1343 H   0  0  0  0  0  0  0  0  0  0  0  0
   -1.0344   -0.4906   -1.0525 H   0  0  0  0  0  0  0  0  0  0  0  0
   -3.3955   -1.1014   -0.6293 H   0  0  0  0  0  0  0  0  0  0  0  0
   -2.6962   -0.4087    0.8429 H   0  0  0  0  0  0  0  0  0  0  0  0
   -2.9078   -2.1548    0.6994 H   0  0  0  0  0  0  0  0  0  0  0  0
    1.0958   -8.4040    0.8922 H   0  0  0  0  0  0  0  0  0  0  0  0
    1.3461   -7.3496    2.2898 H   0  0  0  0  0  0  0  0  0  0  0  0
   -0.2635   -9.1650    2.8054 H   0  0  0  0  0  0  0  0  0  0  0  0
   -1.0433   -7.5837    2.9192 H   0  0  0  0  0  0  0  0  0  0  0  0
   -1.3304   -8.6138    1.5130 H   0  0  0  0  0  0  0  0  0  0  0  0
   -0.1933   -8.5230   -0.7596 H   0  0  0  0  0  0  0  0  0  0  0  0
   -2.0841  -10.8418   -5.3909 H   0  0  0  0  0  0  0  0  0  0  0  0
   -3.3052   -9.9536   -7.3231 H   0  0  0  0  0  0  0  0  0  0  0  0
   -3.1370   -5.9840   -5.7005 H   0  0  0  0  0  0  0  0  0  0  0  0
   -1.2586    2.0042   -2.2387 H   0  0  0  0  0  0  0  0  0  0  0  0
   -1.5679    3.0954   -0.8915 H   0  0  0  0  0  0  0  0  0  0  0  0
   -2.0973    1.4199   -0.7948 H   0  0  0  0  0  0  0  0  0  0  0  0
  1  2  2  0  0  0  0
  1  3  1  0  0  0  0
  3  4  2  0  0  0  0
  4  5  1  0  0  0  0
  5  6  2  0  0  0  0
  6  7  1  0  0  0  0
  7  8  2  0  0  0  0
  3  8  1  0  0  0  0
  8  9  1  0  0  0  0
  9 10  2  0  0  0  0
 10 11  1  0  0  0  0
 11 12  3  0  0  0  0
 10 13  1  0  0  0  0
 13 14  3  0  0  0  0
  9 15  1  0  0  0  0
  1 15  1  0  0  0  0
 15 16  2  0  0  0  0
 16 17  1  0  0  0  0
 17 18  1  0  0  0  0
 18 19  1  0  0  0  0
 19 20  2  0  0  0  0
 20 21  1  0  0  0  0
 21 22  1  0  0  0  0
 22 23  1  0  0  0  0
 17 21  2  0  0  0  0
 20 24  1  0  0  0  0
 24 25  1  0  0  0  0
 25 26  2  0  0  0  0
 19 26  1  0  0  0  0
 26 27  1  0  0  0  0
 27 28  1  0  0  0  0
 27 29  1  0  0  0  0
 29 30  2  0  0  0  0
 25 30  1  0  0  0  0
 30 31  1  0  0  0  0
 31 32  2  0  0  0  0
 32 33  1  0  0  0  0
 33 34  1  0  0  0  0
 34 35  2  0  0  0  0
 31 35  1  0  0  0  0
 35 36  1  0  0  0  0
 36 37  2  0  0  0  0
 29 37  1  0  0  0  0
 37 38  1  0  0  0  0
 38 39  1  0  0  0  0
 39 40  1  0  0  0  0
 38 41  1  0  0  0  0
 41 42  2  0  0  0  0
 36 42  1  0  0  0  0
 42 43  1  0  0  0  0
 43 44  1  0  0  0  0
 44 45  2  0  0  0  0
 41 45  1  0  0  0  0
 45 46  1  0  0  0  0
 46 47  1  0  0  0  0
 47 48  2  0  0  0  0
 44 48  1  0  0  0  0
 48 49  1  0  0  0  0
 49 50  1  0  0  0  0
 47 51  1  0  0  0  0
 51 52  2  0  0  0  0
 52 53  1  0  0  0  0
 53 54  2  0  0  0  0
 54 55  1  0  0  0  0
 55 56  3  0  0  0  0
 54 57  1  0  0  0  0
 57 58  3  0  0  0  0
 53 59  1  0  0  0  0
 59 60  2  0  0  0  0
 60 61  1  0  0  0  0
 61 62  2  0  0  0  0
 62 63  1  0  0  0  0
 62 64  1  0  0  0  0
 64 65  2  0  0  0  0
 59 65  1  0  0  0  0
 65 66  1  0  0  0  0
 66 67  2  0  0  0  0
 52 66  1  0  0  0  0
 28 68  1  0  0  0  0
 63 69  1  0  0  0  0
 63 70  1  0  0  0  0
 63 71  1  0  0  0  0
  5 72  1  0  0  0  0
  6 73  1  0  0  0  0
  4 74  1  0  0  0  0
  7 75  1  0  0  0  0
 16 76  1  0  0  0  0
 22 77  1  0  0  0  0
 22 78  1  0  0  0  0
 23 79  1  0  0  0  0
 23 80  1  0  0  0  0
 23 81  1  0  0  0  0
 28 82  1  0  0  0  0
 28 83  1  0  0  0  0
 39 84  1  0  0  0  0
 39 85  1  0  0  0  0
 40 86  1  0  0  0  0
 40 87  1  0  0  0  0
 40 88  1  0  0  0  0
 49 89  1  0  0  0  0
 49 90  1  0  0  0  0
 50 91  1  0  0  0  0
 50 92  1  0  0  0  0
 50 93  1  0  0  0  0
 51 94  1  0  0  0  0
 60 95  1  0  0  0  0
 61 96  1  0  0  0  0
 64 97  1  0  0  0  0
 68 98  1  0  0  0  0
 68 99  1  0  0  0  0
 68100  1  0  0  0  0
M  END
