97
BTIC-F-m.mol
O          3.76900       -3.35930        5.09150
C          4.54690       -3.55460        6.01010
C          4.69200       -4.80830        6.77280
C          5.69560       -4.64670        7.74390
C          6.23490       -3.28830        7.64270
C          5.51850       -2.61770        6.57800
C          5.72570       -1.31800        6.17790
C          5.12430       -0.56040        5.17060
C          5.47750        0.77740        4.90810
C          6.46080        1.58910        5.68570
C          5.81130        2.16270        6.94850
C          4.74420        1.29430        3.85020
S          4.74130        2.86360        3.06520
C          3.51550        2.29120        1.98760
C          3.12850        0.96380        2.23070
N          2.14810        0.58960        1.34590
C          1.89120        1.68190        0.54350
C          2.76580        2.74730        0.89200
C          2.82170        3.91690        0.09710
N          3.60380        4.97340        0.24540
S          3.35220        5.98270       -0.99420
N          2.23000        5.11290       -1.77060
C          2.00780        4.00180       -1.08790
C          1.05370        2.98880       -1.34540
C          0.03080        2.84850       -2.29670
S         -0.55690        3.64480       -3.71510
C          0.92250        1.88310       -0.46170
N         -0.18350        1.13680       -0.81290
C         -0.71850        1.71760       -1.93580
C         -1.78980        1.48470       -2.79920
C         -1.83380        2.44640       -3.82460
C         -2.87720        2.26860       -4.72120
C         -3.07630        3.14440       -5.91440
C         -2.41610        2.53200       -7.15300
C         -3.65480        1.14350       -4.38530
C         -4.76320        0.73870       -5.13250
C         -5.63210       -0.31430       -4.96380
C         -6.75330       -0.61880       -5.82820
C         -7.43260       -1.78910       -5.26660
C         -8.55590       -2.48380       -5.68170
C         -8.94920       -3.57190       -4.91320
F        -10.03670       -4.25920       -5.29690
C         -8.27870       -3.98490       -3.77190
C         -7.15530       -3.28500       -3.36090
C         -6.74630       -2.19830       -4.10970
C         -5.60050       -1.29890       -3.88030
O         -4.80210       -1.37390       -2.96150
C         -7.13380        0.03570       -6.97180
C         -6.48540        1.15180       -7.54010
N         -6.01360        2.05630       -8.06950
C         -8.24940       -0.32510       -7.75720
N         -9.13710       -0.56300       -8.44480
S         -3.05910        0.32930       -2.93550
C         -1.02220        0.36180        0.08080
C         -2.21220        1.18580        0.57100
C          1.97540       -0.80600        0.99280
C          3.26790       -1.39500        0.42900
C          3.83170        0.38390        3.28720
S          3.86620       -1.14550        4.07760
C          7.24290       -2.78360        8.42400
C          7.78270       -1.48340        8.33850
N          8.27500       -0.44480        8.33500
C          7.89720       -3.51150        9.44070
N          8.47580       -4.04140       10.27850
C          6.01150       -5.69790        8.58780
C          5.30230       -6.88040        8.42140
F          5.59250       -7.91270        9.22930
C          4.31190       -7.05080        7.46590
C          3.99960       -5.99470        6.62460
H          6.48290       -0.77380        6.72520
H          7.33100        0.99350        5.96510
H          6.79870        2.41280        5.05370
H          5.46170        1.36450        7.59900
H          4.96480        2.79280        6.68560
H          6.53530        2.75960        7.49530
H         -4.13670        3.30620       -6.11250
H         -2.61530        4.11220       -5.70730
H         -1.35000        2.39750       -6.98590
H         -2.55680        3.18880       -8.00640
H         -2.85690        1.56600       -7.38690
H         -4.95790        1.37540       -5.98450
H         -9.12590       -2.21990       -6.55670
H         -8.64230       -4.84050       -3.22530
H         -6.60570       -3.57260       -2.47830
H         -1.38080       -0.52200       -0.45540
H         -0.43710        0.05670        0.94620
H         -1.86560        2.09190        1.06380
H         -2.78840        0.59980        1.28110
H         -2.86280        1.46110       -0.25400
H          1.20030       -0.89110        0.23390
H          1.67860       -1.35790        1.88980
H          4.05760       -1.38850        1.17450
H          3.09260       -2.42270        0.12410
H          3.59620       -0.82370       -0.43690
H          6.76840       -5.63750        9.35190
H          3.80360       -7.99920        7.39450
H          3.23570       -6.08550        5.86840
