153
BTIDIC.sdf
C         -0.12640       -6.83190       -2.08970
C         -1.13740       -7.42430       -1.29350
C         -0.98150       -8.71310       -0.84710
C          0.21170       -9.36560       -1.15770
C          1.22220       -8.78130       -1.96240
C          1.04370       -7.50280       -2.44120
C          0.67850      -10.64090       -0.73120
C          1.95510      -10.87890       -1.24780
C          2.40390       -9.72760       -2.11890
C         -0.54990       -5.50100       -2.38110
C         -1.78720       -5.24510       -1.80900
C         -2.29450       -6.46180       -1.07590
S          0.10910      -11.87890        0.29490
C          1.60970      -12.76660        0.04940
C          2.47530      -12.07680       -0.82020
S          0.12860       -4.12110       -3.14680
C         -1.24680       -3.16490       -2.65010
C         -2.18000       -3.91970       -1.95650
C          3.70370       -9.16590       -1.50070
C          2.59120      -10.26130       -3.56040
C         -3.55700       -7.05700       -1.72910
C         -2.47970       -6.07030        0.40560
C          1.96700      -13.97870        0.64050
C          1.30090      -14.76500        1.55580
C         -0.01450      -14.48370        2.13000
C         -0.27830      -15.57200        3.09630
C          0.80470      -16.46580        3.09570
C          1.80390      -15.99230        2.13400
C         -1.38090      -15.74880        3.90720
C         -1.39260      -16.85510        4.74160
C         -0.32250      -17.74870        4.74980
C          0.78480      -17.57000        3.93270
O         -0.76170      -13.55400        1.88370
C          2.98880      -16.62750        1.86010
C          3.96530      -16.19720        0.93820
C          3.40240      -17.82780        2.47540
N          3.79930      -18.80070        2.93760
N          4.81130      -15.92210        0.21090
C         -1.25600       -1.75090       -2.86650
C         -0.17590       -1.10880       -3.52630
C         -0.07370        0.32460       -3.59580
C         -1.06290        1.14640       -2.99010
C         -2.14760        0.47760       -2.43570
C         -2.24640       -0.90710       -2.37720
N          0.84930       -1.71250       -4.11980
S          1.84340       -0.59840       -4.71400
N          1.02780        0.70560       -4.24080
C         -1.03360        6.22750       -1.60240
C          0.13180        6.85260       -2.11140
C          0.47990        8.10650       -1.67110
C         -0.37270        8.73140       -0.76020
C         -1.57820        8.13800       -0.31310
C         -1.90310        6.86470       -0.71990
C         -0.22690        9.95910       -0.05450
C         -1.30300       10.16370        0.81390
C         -2.30220        9.04260        0.67150
C         -1.03510        4.89240       -2.10090
C          0.07100        4.65620       -2.90220
C          0.88770        5.91700       -3.04340
S          0.94380       11.19410        0.03660
C         -0.00570       12.01550        1.28490
C         -1.19100       11.32670        1.54860
S         -2.00510        3.49530       -1.87880
C         -0.89820        2.56240       -2.86950
C          0.13550        3.34120       -3.35590
C         -2.53730        8.28330        1.99080
C         -3.58750        9.63900        0.05580
C          2.33240        5.75150       -2.53650
C          0.78920        6.37950       -4.51350
C          0.56070       13.17800        1.81960
C          0.18800       13.98000        2.87500
C         -0.92070       13.78910        3.82700
C         -0.74150       14.83210        4.86270
C          0.36840       15.62920        4.54610
C          0.94500       15.14660        3.29040
C         -1.50290       15.04320        5.99480
C         -1.13290       16.08250        6.83250
C         -0.02860       16.87860        6.52940
C          0.73280       16.66750        5.38930
O         -1.81330       12.96480        3.82080
C          1.99240       15.74480        2.63770
C          2.67770       16.88030        3.12040
C          2.53900       15.35980        1.39470
N          3.04330       15.13780        0.38650
N          3.28340       17.79650        3.45410
F         -2.44110      -17.06670        5.54800
F         -0.35870      -18.80840        5.56690
F          0.31050       17.87300        7.35880
F         -1.84000       16.32350        7.94430
C         -4.69050        8.63580       -0.25230
C         -3.24640        9.07380        3.08280
C          1.49110        7.69210       -4.83400
C          3.20940        4.81580       -3.35840
C         -4.78400       -6.15600       -1.68680
C         -2.96810       -7.16850        1.34090
C          4.42170       -8.06770       -2.27280
C          2.33440       -9.27490       -4.69320
H         -1.72950       -9.22680       -0.26480
H          1.76710       -7.00300       -3.06380
H          3.43860      -12.47530       -1.08600
H         -3.08700       -3.50200       -1.56010
H          3.45900       -8.79490       -0.50160
H          4.39220      -10.00570       -1.37830
H          3.60600      -10.65590       -3.64050
H          1.90500      -11.10190       -3.69430
H         -3.78370       -8.00580       -1.24110
H         -3.31450       -7.27730       -2.77220
H         -3.18180       -5.23540        0.44100
H         -1.51740       -5.69950        0.76890
H          2.94390      -14.32800        0.32900
H         -2.20510      -15.05370        3.89670
H          1.58440      -18.29050        3.97990
H         -2.93730        1.06650       -1.99170
H         -3.11120       -1.33340       -1.89430
H          1.39060        8.59910       -1.97420
H         -2.77380        6.34210       -0.35580
H         -1.90550       11.69720        2.25850
H          0.88750        2.92510       -3.99910
H         -3.11390        7.38400        1.76920
H         -1.56100        7.95910        2.36170
H         -3.30460       10.14700       -0.87030
H         -3.96600       10.39850        0.74140
H          2.27950        5.37920       -1.50970
H          2.79810        6.73720       -2.50020
H         -0.27230        6.47860       -4.75660
H          1.19400        5.58580       -5.14360
H          1.48130       13.46250        1.32410
H         -2.35470       14.42280        6.22370
H          1.57670       17.31110        5.20450
H         -5.55550        9.16370       -0.64790
H         -4.36470        7.91690       -0.99910
H         -5.00180        8.10090        0.64070
H         -2.67750        9.95320        3.36810
H         -4.23780        9.38590        2.76650
H         -3.35730        8.44540        3.96400
H          1.38490        7.90680       -5.89520
H          2.55200        7.64220       -4.60530
H          1.04890        8.51480       -4.27880
H          2.80750        3.80730       -3.36500
H          3.30670        5.16200       -4.38350
H          4.20430        4.77890       -2.91950
H         -5.61740       -6.65500       -2.17660
H         -5.07780       -5.93380       -0.66460
H         -4.59540       -5.22260       -2.21010
H         -2.22750       -7.95580        1.44310
H         -3.90110       -7.60310        0.99320
H         -3.14190       -6.74460        2.32790
H          5.31430       -7.77560       -1.72300
H          3.79780       -7.18680       -2.38590
H          4.73340       -8.41540       -3.25350
H          2.98270       -8.40680       -4.63320
H          2.52140       -9.77150       -5.64330
H          1.30070       -8.93890       -4.68500
