95
BTN-4F.sdf
C         -0.75730        1.69880       -2.21610
C         -0.28130        0.66140       -1.35310
C         -0.98870        0.39690       -0.15190
C         -2.00330        1.31200        0.26420
C         -2.42790        2.38030       -0.55470
C         -1.83050        2.53990       -1.84740
N         -3.37910        3.26960       -0.31930
S         -3.52410        4.22630       -1.61380
N         -2.37240        3.54030       -2.52820
N         -0.89030       -0.60070        0.80250
C         -1.78300       -0.31700        1.80020
C         -2.47230        0.86720        1.50460
C          0.09560        1.71030       -3.33290
C          1.07840        0.71850       -3.11020
N          0.84290        0.07880       -1.91840
N          0.33830        2.32060       -4.50640
C          1.49490        1.74880       -5.04330
C          1.95910        0.73720       -4.17200
C         -2.18120       -0.87710        3.01640
C         -3.17020       -0.08970        3.63550
S         -3.62070        1.33100        2.71050
S         -1.77660       -2.26200        3.95790
C         -2.93260       -1.77060        5.19960
C         -3.59520       -0.57400        4.86300
C          1.91240       -0.68060       -1.30770
C          1.98450        2.19090       -6.27680
C          3.11220        1.87070       -7.00060
C         -3.17130       -2.45820        6.38970
C         -2.63800       -3.62800        6.88260
C          4.23660        0.99510       -6.62860
C          5.21080        1.10210       -7.73980
C          4.71150        1.96440       -8.72700
C          3.39600        2.44520       -8.30220
C         -1.65260       -4.47620        6.21460
C         -1.41010       -5.61440        7.12570
C         -2.19690       -5.46120        8.27940
C         -2.97210       -4.22440        8.15920
C          6.43920        0.48320       -7.85410
C          7.18490        0.74080       -8.99290
C          6.69860        1.59770       -9.97960
C          5.46330        2.21800       -9.86370
C         -0.56510       -6.69110        6.94730
C         -0.51180       -7.63910        7.95650
C         -1.28970       -7.49770        9.10550
C         -2.13810       -6.41430        9.28370
O          4.39440        0.31750       -5.63270
C          2.59480        3.27090       -9.05240
C          1.30690        3.73040       -8.70850
C          2.95190        3.78270      -10.31800
F          8.38320        0.16250       -9.14670
F          7.44020        1.83210      -11.06900
O         -1.12400       -4.30330        5.13020
C         -3.83760       -3.74450        9.10900
C         -4.58730       -2.55320        9.01730
C         -4.09880       -4.38790       10.33760
F         -1.21950       -8.42840       10.06350
F          0.29380       -8.70040        7.82650
N          3.17480        4.23850      -11.34780
N          0.25280        4.14700       -8.51440
N         -4.35480       -4.85820       11.35270
N         -5.22990       -1.60070        9.02150
C         -4.66280        0.08910        5.66950
C         -0.32570       -1.93030        0.71070
C         -0.41880        3.43620       -5.02470
C          0.27340        4.76690       -4.73810
C          2.50100        0.03940       -0.09690
C         -0.88550       -2.69490       -0.48550
C         -6.02630       -0.55500        5.40300
H          2.82560        0.13560       -4.35050
H          1.57850       -1.68720       -1.05320
H          2.68330       -0.78110       -2.07460
H          1.35560        2.93480       -6.74350
H         -3.90370       -1.97460        7.02110
H          6.80970       -0.17770       -7.08680
H          5.13690        2.87170      -10.65530
H          0.03430       -6.79600        6.05710
H         -2.71720       -6.35360       10.19030
H         -4.44000        0.03650        6.73610
H         -4.70400        1.14110        5.38040
H          0.76320       -1.88550        0.68570
H         -0.60370       -2.44880        1.63140
H         -1.38720        3.42540       -4.51950
H         -0.57910        3.31520       -6.09920
H          0.35480        4.92120       -3.66480
H         -0.31170        5.57620       -5.16340
H          1.27050        4.79460       -5.17160
H          3.29250       -0.56190        0.34230
H          1.74370        0.22930        0.66000
H          2.92190        0.99440       -0.40270
H         -0.67110       -2.18320       -1.42060
H         -1.96440       -2.79320       -0.39160
H         -0.45080       -3.69000       -0.52110
H         -6.79050       -0.05000        5.98660
H         -6.01810       -1.60590        5.68230
H         -6.28210       -0.47700        4.34890
