152
BTOIC.sdf
C          7.37260       -6.59050        2.32320
O          6.49420       -6.12830        3.02570
C          8.35490       -7.60070        2.72070
C          9.23660       -7.87630        1.62750
C          8.85390       -7.05350        0.49890
C          9.53320       -7.03330       -0.69340
C          9.25600       -6.23370       -1.81860
N          9.10760       -5.61300       -2.77450
C         10.65840       -7.85810       -0.89990
N         11.57630       -8.52110       -1.08890
C          7.68590       -6.28090        0.90240
C          7.00860       -5.46500        0.03450
C          5.89330       -4.62540        0.20280
C          5.13510       -4.27140        1.30890
C          4.12950       -3.37530        0.98240
C          4.08750       -3.01480       -0.38180
S          5.32570       -3.81050       -1.26460
C          3.05050       -2.13140       -0.66440
C          2.49160       -1.42850       -1.87140
C          2.04100       -2.40080       -2.94620
C          2.13980       -2.09150       -4.29550
C          1.67870       -2.97810       -5.25070
C          1.10790       -4.19110       -4.88790
C          0.55720       -5.12140       -5.92940
C         -0.89470       -4.75870       -6.24940
C          1.00400       -4.49200       -3.53630
C          1.46160       -3.60810       -2.57660
C          3.55490       -0.45850       -2.35770
C          4.67130       -0.95920       -3.01810
C          5.68300       -0.11420       -3.42950
C          5.60900        1.25300       -3.19300
C          6.72740        2.16570       -3.60570
C          7.77130        2.26890       -2.49180
C          4.49820        1.74530       -2.52270
C          3.48380        0.90260       -2.10380
C          1.28090       -0.74210       -1.25970
C          1.23040       -0.94600        0.13360
C          2.32420       -1.80760        0.47060
S          2.88040       -2.59470        1.90960
C          0.18670       -0.41650        0.90930
C         -0.78480        0.29470        0.22950
C         -2.00450        0.95190        0.84890
C         -1.59970        1.83040        2.01620
C         -1.86350        1.48030        3.33240
C         -1.43860        2.29150        4.36810
C         -0.73700        3.46380        4.12060
C         -0.22150        4.30020        5.25590
C          1.12880        3.76380        5.73640
C         -0.46880        3.80570        2.80190
C         -0.89380        3.00000        1.76250
C         -3.09390       -0.04760        1.20670
C         -4.27080        0.42070        1.78130
C         -5.29780       -0.44970        2.08820
C         -5.18150       -1.80990        1.82930
C         -6.31360       -2.74950        2.13020
C         -7.26590       -2.84080        0.93620
C         -4.01030       -2.26910        1.24430
C         -2.97800       -1.40160        0.93220
C         -2.50660        1.75110       -0.32050
C         -1.79340        1.44090       -1.46860
C         -0.72550        0.52790       -1.16820
C          0.30610       -0.02980       -1.94620
S         -2.29890        2.36420       -2.85220
C         -3.48240        3.17830       -1.86890
C         -3.47260        2.73050       -0.53210
S         -4.61190        3.58530        0.43660
C         -5.10720        4.53740       -0.95890
C         -4.40100        4.17920       -2.11000
C         -6.07470        5.55250       -0.97750
C         -6.84010        6.07730        0.03180
C         -7.79650        7.15930       -0.12910
C         -8.15870        7.82630       -1.27210
C         -7.66890        7.58670       -2.56940
N         -7.31550        7.44610       -3.65390
C         -9.11190        8.86450       -1.23720
N         -9.88350        9.71430       -1.22690
C         -8.34270        7.43780        1.18450
C         -7.75120        6.54250        2.13420
C         -6.80780        5.66180        1.44700
O         -6.13830        4.77100        1.94210
C          8.61880       -8.31610        3.84720
S          9.98970       -9.36070        3.56020
C         10.17630       -8.81010        1.93390
C         -8.18860        6.71160        3.41110
S         -9.36090        8.00640        3.45330
C         -9.23590        8.28990        1.75350
C         -7.78920        5.97100        4.62840
C          7.91610       -8.28160        5.14920
O          0.08800       -0.62140        2.25790
C          1.09190        0.00610        3.04880
C          1.00690       -0.56100        4.45360
O          0.46860        0.10020       -3.29080
C         -0.62470       -0.15760       -4.15900
C         -1.44680       -1.37930       -3.77320
H          7.38390       -5.45480       -0.98260
H          5.32100       -4.66170        2.29220
H          2.56880       -1.14950       -4.59960
H          1.76410       -2.72310       -6.29740
H          1.15430       -5.05220       -6.84070
H          0.60090       -6.15100       -5.56920
H         -0.95620       -3.73850       -6.62190
H         -1.50970       -4.83340       -5.35500
H         -1.29730       -5.42950       -7.00460
H          0.55880       -5.42800       -3.22970
H          1.36130       -3.85960       -1.53000
H          4.74390       -2.01780       -3.22150
H          6.54060       -0.52290       -3.94400
H          6.33290        3.16040       -3.82270
H          7.20400        1.78140       -4.50960
H          7.31880        2.66350       -1.58460
H          8.18430        1.28770       -2.26900
H          8.58310        2.92810       -2.79050
H          4.42160        2.80510       -2.32500
H          2.63240        1.31360       -1.58270
H         -2.38880        0.56360        3.55080
H         -1.65330        2.00700        5.38860
H         -0.93210        4.27860        6.08460
H         -0.10440        5.33610        4.93230
H          1.50770        4.36580        6.55900
H          1.02770        2.73500        6.07530
H          1.85480        3.78630        4.92640
H          0.08020        4.71120        2.58500
H         -0.66820        3.27960        0.74250
H         -4.37960        1.47260        2.00110
H         -6.20140       -0.06590        2.53950
H         -6.86540       -2.39560        3.00340
H         -5.92040       -3.74330        2.35370
H         -6.73680       -3.20300        0.05750
H         -7.67910       -1.86120        0.70650
H         -8.08550       -3.52170        1.15380
H         -3.89840       -3.32290        1.03130
H         -2.07710       -1.79060        0.48250
H         -4.56480        4.65090       -3.06220
H         -6.21200        5.98590       -1.96150
H         10.96200       -9.21950        1.33140
H         -9.82950        9.06240        1.30740
H         -8.65680        5.51280        5.10260
H         -7.07490        5.19690        4.35630
H         -7.33040        6.64360        5.35330
H          7.53820       -9.26980        5.40950
H          8.59240       -7.96390        5.94250
H          7.08520       -7.58270        5.08590
H          2.08740       -0.16990        2.62410
H          0.91360        1.09040        3.06080
H          1.74340       -0.07760        5.08900
H          1.19660       -1.63070        4.43480
H          0.01360       -0.38800        4.85670
H         -0.14610       -0.31680       -5.12890
H         -1.27230        0.72320       -4.23700
H         -2.18040       -1.57460       -4.55020
H         -0.80210       -2.24870       -3.66850
H         -1.97240       -1.21710       -2.83410
