108
BTP-N.mol
O          6.25320       -1.10090       -4.19530
C          6.89520       -0.57940       -5.08250
C          8.32270       -0.83100       -5.39410
C          8.74070        0.02260       -6.42820
C          7.60630        0.84880       -6.83860
C          6.48710        0.50840       -5.99260
C          5.33220        1.24050       -5.84830
C          4.18100        0.84130       -5.15140
S          3.27420        2.11240       -4.32120
C          2.19060        0.94340       -3.66910
C          2.47780       -0.34380       -4.15570
S          1.41040       -1.56830       -3.50450
C          0.61860       -0.35300       -2.56540
C          1.12680        0.93590       -2.76580
N          0.45490        1.83240       -1.97640
C          1.02120        3.14320       -1.75060
C          1.63020        3.25940       -0.35560
C         -0.47770        1.12400       -1.23100
C         -1.42480        1.51190       -0.24660
N         -1.85030        2.75130        0.22570
C         -1.83780        4.04230       -0.42570
C         -2.44960        3.97530       -1.82260
C         -2.71370        2.52440        1.26230
C         -2.85630        1.15430        1.48120
S         -3.88640        0.76620        2.81570
C         -4.14320        2.46680        3.09010
C         -6.33270        0.92990        6.66620
C         -6.30160       -0.34200        7.17360
C         -6.97650       -0.81660        8.36460
C         -6.63890       -2.23140        8.52970
C         -5.78870       -2.62090        7.48230
C         -5.53600       -1.46630        6.58850
O         -4.83970       -1.47230        5.59710
C         -5.29810       -3.90680        7.37210
C         -5.67310       -4.82330        8.34050
F         -5.22130       -6.08210        8.27420
C         -6.51740       -4.44650        9.38530
F         -6.86330       -5.35210       10.30770
C         -7.00980       -3.15490        9.49550
C         -7.78210       -0.09610        9.20780
C         -8.11410        1.26750        9.06330
N         -8.42650        2.37210        9.02390
C         -8.40110       -0.62740       10.35940
N         -8.92880       -0.99490       11.31010
C         -3.47220        3.27250        2.17610
C         -2.07940        0.50150        0.51300
C         -1.93740       -0.86130        0.18910
N         -2.48440       -1.97160        0.68770
N         -2.01520       -2.92650       -0.07440
C         -2.34250       -4.30320        0.15920
C         -1.49840       -4.86730        1.29790
N         -1.20150       -2.56500       -1.03530
C         -1.12090       -1.23880       -0.90780
C         -0.37580       -0.25420       -1.58610
C          3.58970       -0.41280       -5.00010
C          3.99690       -1.63730       -5.74730
C          2.82800       -2.26390       -6.50650
C          7.58720        1.72260       -7.89530
C          8.70510        2.00680       -8.70540
N          9.58270        2.27880       -9.39350
C          6.43940        2.42010       -8.32650
N          5.53860        2.99520       -8.74650
C         10.05000       -0.02480       -6.87910
C         10.91120       -0.93200       -6.27910
F         12.18180       -0.99240       -6.69580
C         10.48760       -1.77600       -5.25300
F         11.35310       -2.63760       -4.70300
C          9.18020       -1.73140       -4.79510
C         -4.90780        3.20560        4.04310
C         -4.81400        4.57150        3.80310
S         -3.79110        4.95210        2.46390
C         -5.46310        5.66760        4.57900
C         -5.21240        7.04970        3.99000
C         -5.63980        2.66570        5.13960
C         -5.63240        1.36090        5.52070
H          5.32150        2.25560       -6.22910
H          0.27670        3.91890       -1.93140
H          1.80730        3.27500       -2.49830
H          2.43070        2.53230       -0.23960
H          2.04350        4.25410       -0.21260
H          0.88710        3.07100        0.41550
H         -2.43830        4.71000        0.19720
H         -0.82770        4.45390       -0.44990
H         -1.91140        3.27360       -2.45510
H         -3.48480        3.64780       -1.75910
H         -2.42440        4.95790       -2.28600
H         -6.91990        1.67890        7.18210
H         -4.64510       -4.19110        6.56240
H         -7.65810       -2.91640       10.32240
H         -3.40320       -4.35650        0.41420
H         -2.15060       -4.84090       -0.77080
H         -1.67450       -4.29650        2.20630
H         -1.76410       -5.90520        1.47630
H         -0.44200       -4.81360        1.04610
H          4.78870       -1.38270       -6.45320
H          4.40530       -2.35850       -5.03420
H          3.18340       -3.11420       -7.08280
H          2.05550       -2.61040       -5.82630
H          2.39110       -1.54110       -7.19230
H         10.42560        0.61130       -7.66380
H          8.85000       -2.38020       -3.99970
H         -5.09100        5.64120        5.60900
H         -6.54120        5.48140        4.62050
H         -5.59150        7.10750        2.97180
H         -5.71430        7.80610        4.58750
H         -4.14780        7.27400        3.97510
H         -6.21020        3.37270        5.72890
H         -5.06140        0.62800        4.97360
