BTP-3V.sdf
  xtb     12202114273D
 energy: -207.059940188523 gnorm: 0.000286285050 xtb: 6.4.1 (unknown)
109120  0     0  0            999 V2000
    0.2294    7.3950    1.4285 C   0  0  0  0  0  0  0  0  0  0  0  0
    0.5801    6.7798    0.2072 C   0  0  0  0  0  0  0  0  0  0  0  0
    1.7200    5.4385    0.3449 S   0  0  0  0  0  0  0  0  0  0  0  0
    1.4243    5.0023   -1.2914 C   0  0  0  0  0  0  0  0  0  0  0  0
    0.5720    5.9177   -1.9297 C   0  0  0  0  0  0  0  0  0  0  0  0
    0.0886    6.9302   -1.0875 C   0  0  0  0  0  0  0  0  0  0  0  0
   -0.8077    8.0515   -1.5066 C   0  0  0  0  0  0  0  0  0  0  0  0
   -0.5297    8.5487   -2.9224 C   0  0  0  0  0  0  0  0  0  0  0  0
    0.2116    5.4485   -3.5820 S   0  0  0  0  0  0  0  0  0  0  0  0
    1.1250    3.9963   -3.3618 C   0  0  0  0  0  0  0  0  0  0  0  0
    1.7222    3.9055   -2.1007 C   0  0  0  0  0  0  0  0  0  0  0  0
    2.3364    2.6910   -1.9496 N   0  0  0  0  0  0  0  0  0  0  0  0
    3.3843    2.5417   -0.9602 C   0  0  0  0  0  0  0  0  0  0  0  0
    2.0943    1.9602   -3.1027 C   0  0  0  0  0  0  0  0  0  0  0  0
    1.3893    2.7873   -4.0243 C   0  0  0  0  0  0  0  0  0  0  0  0
    1.0789    2.3411   -5.3285 C   0  0  0  0  0  0  0  0  0  0  0  0
    0.5086    3.0132   -6.3157 N   0  0  0  0  0  0  0  0  0  0  0  0
    0.4132    2.0458   -7.6097 S   0  0  0  0  0  0  0  0  0  0  0  0
    1.0863    0.7264   -6.9571 N   0  0  0  0  0  0  0  0  0  0  0  0
    1.4149    0.9974   -5.7043 C   0  0  0  0  0  0  0  0  0  0  0  0
    1.9370    0.1251   -4.7219 C   0  0  0  0  0  0  0  0  0  0  0  0
    2.2579    0.5863   -3.4114 C   0  0  0  0  0  0  0  0  0  0  0  0
    2.5716   -0.5095   -2.6289 N   0  0  0  0  0  0  0  0  0  0  0  0
    2.6909   -0.6369   -1.1949 C   0  0  0  0  0  0  0  0  0  0  0  0
    1.3786   -0.3091   -0.4876 C   0  0  0  0  0  0  0  0  0  0  0  0
    2.4115   -1.6284   -3.3968 C   0  0  0  0  0  0  0  0  0  0  0  0
    2.0602   -1.2721   -4.7039 C   0  0  0  0  0  0  0  0  0  0  0  0
    1.7467   -2.6331   -5.7292 S   0  0  0  0  0  0  0  0  0  0  0  0
    2.0068   -3.6988   -4.3602 C   0  0  0  0  0  0  0  0  0  0  0  0
    2.3709   -3.0096   -3.1953 C   0  0  0  0  0  0  0  0  0  0  0  0
    2.4988   -4.0813   -1.8582 S   0  0  0  0  0  0  0  0  0  0  0  0
    2.0065   -5.4511   -2.8623 C   0  0  0  0  0  0  0  0  0  0  0  0
    1.8058   -5.0736   -4.1881 C   0  0  0  0  0  0  0  0  0  0  0  0
    1.4062   -5.9670   -5.3158 C   0  0  0  0  0  0  0  0  0  0  0  0
    2.6161   -6.7222   -5.8711 C   0  0  0  0  0  0  0  0  0  0  0  0
    1.7581   -6.6314   -2.1319 C   0  0  0  0  0  0  0  0  0  0  0  0
    4.7384    2.2781   -1.6117 C   0  0  0  0  0  0  0  0  0  0  0  0
    0.9746   -8.8998   -1.6752 C   0  0  0  0  0  0  0  0  0  0  0  0
    1.3905   -7.8748   -2.5584 C   0  0  0  0  0  0  0  0  0  0  0  0
   -3.7215    8.8003    2.6165 C   0  0  0  0  0  0  0  0  0  0  0  0
   -3.8048    8.6353    1.4169 O   0  0  0  0  0  0  0  0  0  0  0  0
   -4.8457    9.0866    3.5372 C   0  0  0  0  0  0  0  0  0  0  0  0
   -6.1899    9.1878    3.2386 C   0  0  0  0  0  0  0  0  0  0  0  0
   -7.0640    9.4376    4.2839 C   0  0  0  0  0  0  0  0  0  0  0  0
   -8.3771    9.5370    4.0418 F   0  0  0  0  0  0  0  0  0  0  0  0
   -6.5890    9.5823    5.5875 C   0  0  0  0  0  0  0  0  0  0  0  0
   -7.4559    9.8181    6.5791 F   0  0  0  0  0  0  0  0  0  0  0  0
   -5.2382    9.4841    5.8866 C   0  0  0  0  0  0  0  0  0  0  0  0
   -4.3575    9.2320    4.8461 C   0  0  0  0  0  0  0  0  0  0  0  0
   -2.9042    9.0556    4.8314 C   0  0  0  0  0  0  0  0  0  0  0  0
   -2.0858    9.1639    5.9261 C   0  0  0  0  0  0  0  0  0  0  0  0
   -2.5399    9.4580    7.2292 C   0  0  0  0  0  0  0  0  0  0  0  0
   -2.8427    9.6906    8.3117 N   0  0  0  0  0  0  0  0  0  0  0  0
   -0.6839    9.0070    5.9214 C   0  0  0  0  0  0  0  0  0  0  0  0
    0.4563    8.8958    6.0048 N   0  0  0  0  0  0  0  0  0  0  0  0
   -2.5163    8.7511    3.4707 C   0  0  0  0  0  0  0  0  0  0  0  0
   -1.2666    8.3864    3.0366 C   0  0  0  0  0  0  0  0  0  0  0  0
   -0.9609    7.9952    1.7205 C   0  0  0  0  0  0  0  0  0  0  0  0
    0.1891   -9.7474    0.4716 C   0  0  0  0  0  0  0  0  0  0  0  0
   -0.1756   -9.5688    1.7870 C   0  0  0  0  0  0  0  0  0  0  0  0
   -0.7266  -10.5644    2.6794 C   0  0  0  0  0  0  0  0  0  0  0  0
   -0.9676  -11.8871    2.4069 C   0  0  0  0  0  0  0  0  0  0  0  0
   -0.7124  -12.5332    1.1796 C   0  0  0  0  0  0  0  0  0  0  0  0
   -0.5368  -13.1353    0.2173 N   0  0  0  0  0  0  0  0  0  0  0  0
   -1.5133  -12.7993    3.3344 C   0  0  0  0  0  0  0  0  0  0  0  0
   -1.9538  -13.5906    4.0397 N   0  0  0  0  0  0  0  0  0  0  0  0
   -0.9991   -9.9098    3.9615 C   0  0  0  0  0  0  0  0  0  0  0  0
   -1.5358  -10.3941    5.1444 C   0  0  0  0  0  0  0  0  0  0  0  0
   -1.6792   -9.5114    6.2049 C   0  0  0  0  0  0  0  0  0  0  0  0
   -2.1970   -9.9599    7.3548 F   0  0  0  0  0  0  0  0  0  0  0  0
   -1.2999   -8.1733    6.1026 C   0  0  0  0  0  0  0  0  0  0  0  0
   -1.4573   -7.3557    7.1520 F   0  0  0  0  0  0  0  0  0  0  0  0
   -0.7624   -7.6820    4.9242 C   0  0  0  0  0  0  0  0  0  0  0  0
   -0.6207   -8.5611    3.8693 C   0  0  0  0  0  0  0  0  0  0  0  0
   -0.0849   -8.2871    2.5164 C   0  0  0  0  0  0  0  0  0  0  0  0
    0.3332   -7.2158    2.1249 O   0  0  0  0  0  0  0  0  0  0  0  0
    0.6763   -8.7216   -0.3510 C   0  0  0  0  0  0  0  0  0  0  0  0
    0.9352    7.2467    2.2391 H   0  0  0  0  0  0  0  0  0  0  0  0
   -0.6801    8.8785   -0.8061 H   0  0  0  0  0  0  0  0  0  0  0  0
   -1.8482    7.7183   -1.4413 H   0  0  0  0  0  0  0  0  0  0  0  0
    0.5210    8.8044   -3.0390 H   0  0  0  0  0  0  0  0  0  0  0  0
   -0.7893    7.7988   -3.6644 H   0  0  0  0  0  0  0  0  0  0  0  0
   -1.1243    9.4376   -3.1164 H   0  0  0  0  0  0  0  0  0  0  0  0
    3.4273    3.4870   -0.4131 H   0  0  0  0  0  0  0  0  0  0  0  0
    3.1300    1.7682   -0.2337 H   0  0  0  0  0  0  0  0  0  0  0  0
    2.9546   -1.6783   -0.9953 H   0  0  0  0  0  0  0  0  0  0  0  0
    3.5127   -0.0227   -0.8285 H   0  0  0  0  0  0  0  0  0  0  0  0
    1.5040   -0.4048    0.5873 H   0  0  0  0  0  0  0  0  0  0  0  0
    0.6036   -1.0019   -0.8068 H   0  0  0  0  0  0  0  0  0  0  0  0
    1.0475    0.7009   -0.7162 H   0  0  0  0  0  0  0  0  0  0  0  0
    0.9773   -5.3485   -6.1072 H   0  0  0  0  0  0  0  0  0  0  0  0
    0.6429   -6.6709   -4.9805 H   0  0  0  0  0  0  0  0  0  0  0  0
    3.3488   -6.0192   -6.2600 H   0  0  0  0  0  0  0  0  0  0  0  0
    3.0915   -7.3177   -5.0949 H   0  0  0  0  0  0  0  0  0  0  0  0
    2.3071   -7.3807   -6.6787 H   0  0  0  0  0  0  0  0  0  0  0  0
    1.8520   -6.4896   -1.0623 H   0  0  0  0  0  0  0  0  0  0  0  0
    5.5024    2.1792   -0.8454 H   0  0  0  0  0  0  0  0  0  0  0  0
    4.7219    1.3702   -2.2101 H   0  0  0  0  0  0  0  0  0  0  0  0
    5.0066    3.1069   -2.2630 H   0  0  0  0  0  0  0  0  0  0  0  0
    0.8305   -9.8847   -2.1031 H   0  0  0  0  0  0  0  0  0  0  0  0
    1.3998   -8.1175   -3.6094 H   0  0  0  0  0  0  0  0  0  0  0  0
   -6.5522    9.0726    2.2295 H   0  0  0  0  0  0  0  0  0  0  0  0
   -4.9239    9.6013    6.9105 H   0  0  0  0  0  0  0  0  0  0  0  0
   -0.4629    8.3309    3.7595 H   0  0  0  0  0  0  0  0  0  0  0  0
   -1.7340    8.0833    0.9759 H   0  0  0  0  0  0  0  0  0  0  0  0
    0.0762  -10.7278    0.0273 H   0  0  0  0  0  0  0  0  0  0  0  0
   -1.8459  -11.4173    5.2772 H   0  0  0  0  0  0  0  0  0  0  0  0
   -0.4679   -6.6482    4.8383 H   0  0  0  0  0  0  0  0  0  0  0  0
    0.7733   -7.7458    0.0974 H   0  0  0  0  0  0  0  0  0  0  0  0
  1  2  1  0  0  0  0
  2  3  1  0  0  0  0
  3  4  1  0  0  0  0
  4  5  2  0  0  0  0
  5  6  1  0  0  0  0
  6  7  1  0  0  0  0
  7  8  1  0  0  0  0
  2  6  2  0  0  0  0
  5  9  1  0  0  0  0
  9 10  1  0  0  0  0
 10 11  2  0  0  0  0
  4 11  1  0  0  0  0
 11 12  1  0  0  0  0
 12 13  1  0  0  0  0
 12 14  1  0  0  0  0
 14 15  2  0  0  0  0
 10 15  1  0  0  0  0
 15 16  1  0  0  0  0
 16 17  2  0  0  0  0
 17 18  1  0  0  0  0
 18 19  1  0  0  0  0
 19 20  2  0  0  0  0
 16 20  1  0  0  0  0
 20 21  1  0  0  0  0
 21 22  2  0  0  0  0
 14 22  1  0  0  0  0
 22 23  1  0  0  0  0
 23 24  1  0  0  0  0
 24 25  1  0  0  0  0
 23 26  1  0  0  0  0
 26 27  2  0  0  0  0
 21 27  1  0  0  0  0
 27 28  1  0  0  0  0
 28 29  1  0  0  0  0
 29 30  2  0  0  0  0
 26 30  1  0  0  0  0
 30 31  1  0  0  0  0
 31 32  1  0  0  0  0
 32 33  2  0  0  0  0
 29 33  1  0  0  0  0
 33 34  1  0  0  0  0
 34 35  1  0  0  0  0
 32 36  1  0  0  0  0
 13 37  1  0  0  0  0
 36 39  2  0  0  0  0
 39 38  1  0  0  0  0
 40 41  2  0  0  0  0
 40 42  1  0  0  0  0
 42 43  2  0  0  0  0
 43 44  1  0  0  0  0
 44 45  1  0  0  0  0
 44 46  2  0  0  0  0
 46 47  1  0  0  0  0
 46 48  1  0  0  0  0
 48 49  2  0  0  0  0
 42 49  1  0  0  0  0
 49 50  1  0  0  0  0
 50 51  2  0  0  0  0
 51 52  1  0  0  0  0
 52 53  3  0  0  0  0
 51 54  1  0  0  0  0
 54 55  3  0  0  0  0
 50 56  1  0  0  0  0
 40 56  1  0  0  0  0
 56 57  2  0  0  0  0
 57 58  1  0  0  0  0
 58  1  2  0  0  0  0
 59 60  2  0  0  0  0
 60 61  1  0  0  0  0
 61 62  2  0  0  0  0
 62 63  1  0  0  0  0
 63 64  3  0  0  0  0
 62 65  1  0  0  0  0
 65 66  3  0  0  0  0
 61 67  1  0  0  0  0
 67 68  2  0  0  0  0
 68 69  1  0  0  0  0
 69 70  1  0  0  0  0
 69 71  2  0  0  0  0
 71 72  1  0  0  0  0
 71 73  1  0  0  0  0
 73 74  2  0  0  0  0
 67 74  1  0  0  0  0
 74 75  1  0  0  0  0
 75 76  2  0  0  0  0
 60 75  1  0  0  0  0
 38 77  2  0  0  0  0
 77 59  1  0  0  0  0
  1 78  1  0  0  0  0
  7 79  1  0  0  0  0
  7 80  1  0  0  0  0
  8 81  1  0  0  0  0
  8 82  1  0  0  0  0
  8 83  1  0  0  0  0
 13 84  1  0  0  0  0
 13 85  1  0  0  0  0
 24 86  1  0  0  0  0
 24 87  1  0  0  0  0
 25 88  1  0  0  0  0
 25 89  1  0  0  0  0
 25 90  1  0  0  0  0
 34 91  1  0  0  0  0
 34 92  1  0  0  0  0
 35 93  1  0  0  0  0
 35 94  1  0  0  0  0
 35 95  1  0  0  0  0
 36 96  1  0  0  0  0
 37 97  1  0  0  0  0
 37 98  1  0  0  0  0
 37 99  1  0  0  0  0
 38100  1  0  0  0  0
 39101  1  0  0  0  0
 43102  1  0  0  0  0
 48103  1  0  0  0  0
 57104  1  0  0  0  0
 58105  1  0  0  0  0
 59106  1  0  0  0  0
 68107  1  0  0  0  0
 73108  1  0  0  0  0
 77109  1  0  0  0  0
M  END
