97
BTP-4Cl.mol
O         -3.23760        1.43340        5.33580
C         -3.72140        2.15220        6.19320
C         -4.29390        1.70580        7.47890
C         -4.75970        2.82300        8.19310
C         -4.50540        4.02730        7.40160
C         -4.82130        5.30450        7.79040
C         -4.58420        6.47860        7.04600
N         -4.42070        7.48150        6.50900
C         -5.43970        5.62720        9.01710
N         -5.93930        5.96250        9.99470
C         -3.86690        3.60770        6.17060
C         -3.47170        4.44910        5.15550
C         -2.83280        4.18690        3.94240
C         -2.48210        5.19930        3.02840
C         -2.70120        6.66420        3.21820
C         -1.56340        7.27950        4.03820
C         -1.83120        4.67650        1.92100
S         -1.16400        5.42540        0.48130
C         -0.68150        3.85920       -0.06920
C         -1.01010        2.82230        0.81270
N         -0.58690        1.61960        0.30780
C          0.01480        1.86880       -0.91480
C         -0.05920        3.26980       -1.17670
C          0.36530        3.82770       -2.40350
N          0.32200        5.09140       -2.79440
S          0.86020        5.17570       -4.31860
N          1.17210        3.60240       -4.53740
C          0.86660        2.95550       -3.42390
C          1.03690        1.58510       -3.12470
C          1.64170        0.55630       -3.85580
S          2.37370        0.30670       -5.40220
C          0.68590        1.03970       -1.85200
N          1.12110       -0.26870       -1.80960
C          1.69130       -0.56590       -3.01760
C          2.34620       -1.64840       -3.60880
S          2.77610       -3.25590       -3.16380
C          2.77300       -1.32980       -4.91170
C          3.43060       -2.36330       -5.56130
C          4.00820       -2.22210       -6.93120
C          5.49340       -1.85550       -6.85960
C          3.52720       -3.50490       -4.74200
C          4.14860       -4.68390       -5.15620
C          4.35530       -5.87700       -4.50180
C          3.94910       -6.19350       -3.13260
O          3.34570       -5.48340       -2.34660
C          5.02720       -7.03110       -5.06320
C          5.05720       -8.06410       -4.02730
C          4.41580       -7.57100       -2.87790
C          4.28780       -8.32650       -1.73130
C          4.81630       -9.61170       -1.72840
Cl         4.67970      -10.58570       -0.32060
C          5.45780      -10.11170       -2.86610
Cl         6.10830      -11.70120       -2.84960
C          5.58260       -9.34520       -4.02050
C          5.54250       -7.16970       -6.32730
C          5.51560       -6.19150       -7.34290
N          5.53500       -5.45210       -8.22250
C          6.18050       -8.33730       -6.79710
N          6.70630       -9.25330       -7.24660
C          1.29950       -1.17620       -0.69900
C          0.30350       -2.33470       -0.74100
C         -1.23490        0.42290        0.80300
C         -2.56040        0.18600        0.08160
C         -1.67680        3.27820        1.95210
S         -2.34980        2.58480        3.37740
C         -5.34330        2.64490        9.43600
C         -5.45050        1.35410        9.94430
Cl        -6.17340        1.12530       11.48540
C         -4.98270        0.24950        9.22540
Cl        -5.13040       -1.32990        9.88370
C         -4.39750        0.42400        7.97730
H         -3.67610        5.49940        5.31090
H         -2.72450        7.13550        2.23360
H         -3.65240        6.86080        3.71430
H         -1.72810        8.34700        4.15110
H         -0.61010        7.12260        3.53910
H         -1.51660        6.83200        5.02810
H          3.88980       -3.14230       -7.50510
H          3.46990       -1.42490       -7.44760
H          5.89430       -1.75040       -7.86340
H          6.05730       -2.62870       -6.34290
H          5.62590       -0.91540       -6.32930
H          4.53150       -4.63090       -6.16600
H          3.79080       -7.92790       -0.86110
H          6.08390       -9.76630       -4.87630
H          2.31110       -1.58940       -0.77440
H          1.24690       -0.61070        0.23220
H          0.38540       -2.92410        0.16780
H          0.52650       -2.98180       -1.58480
H         -0.71900       -1.98020       -0.84430
H         -1.41980        0.58230        1.86860
H         -0.59540       -0.44540        0.69610
H         -2.39770        0.05760       -0.98710
H         -3.03930       -0.70580        0.47590
H         -3.22850        1.03100        0.22970
H         -5.71620        3.46960       10.02060
H         -4.03280       -0.41850        7.41150
