97
BTP-S1.sdf
C          0.57370        4.03510       -6.45040
O          0.59610        3.65480       -5.29420
C          0.50840        5.44070       -6.90870
C          0.38660        6.59130       -6.15100
C          0.18940        7.80740       -6.82050
Cl         0.07100        9.26220       -5.93000
C          0.04250        7.82480       -8.20630
Cl        -0.30400        9.30450       -8.99130
C          0.15780        6.65030       -8.96910
C          0.47170        5.46380       -8.31840
C          0.69710        4.10290       -8.80390
C          1.14450        3.74940      -10.05180
C          1.64900        4.63550      -11.02860
N          2.18090        5.24930      -11.83920
C          1.33120        2.42170      -10.49370
N          1.48990        1.37390      -10.93780
C          0.57950        3.21840       -7.65980
C          0.51240        1.84550       -7.71680
C          0.43740        0.88720       -6.70520
S          0.43190        1.23860       -4.97540
C          0.29290       -0.44110       -4.62200
C          0.26300       -1.22480       -5.79140
C          0.35110       -0.49420       -6.96630
C          0.30100       -1.12370       -8.31970
C         -1.12690       -1.11170       -8.87330
S          0.10400       -2.94400       -5.48200
C          0.06120       -2.60170       -3.78800
C          0.18700       -1.23910       -3.48080
N          0.10320       -1.05940       -2.12640
C         -0.07820        0.27040       -1.58800
C         -0.07340       -2.29640       -1.54310
C         -0.13390       -3.27770       -2.57820
C         -0.47840       -4.62210       -2.30990
N         -0.59820       -5.62870       -3.16050
S         -1.11890       -6.92850       -2.34840
N         -1.21240       -6.25620       -0.87920
C         -0.83500       -4.99110       -0.97100
C         -0.70290       -4.03380        0.06030
C         -0.22760       -2.71320       -0.19610
N         -0.08330       -2.05280        1.01170
C          0.83190       -0.99290        1.38200
C          2.21920       -1.55650        1.68680
C         -0.48960       -2.91240        2.00050
C         -0.89130       -4.13410        1.44510
S         -1.43790       -5.28540        2.61350
C         -1.11600       -4.10920        3.87570
C         -0.60500       -2.89020        3.39120
S         -0.30470       -1.76290        4.65650
C         -0.87610       -2.93480        5.84850
C         -1.26860       -4.15030        5.25290
C         -1.84560       -5.32650        5.96940
C         -3.34970       -5.14170        6.19140
C         -0.95360       -2.70650        7.22240
C         -0.65320       -1.59230        7.97410
C         -0.80730       -1.48920        9.41020
C         -1.24120       -2.45700       10.28010
C         -1.62710       -3.76840        9.93230
N         -1.95930       -4.85070        9.73490
C         -1.36060       -2.27120       11.67390
N         -1.48070       -2.18850       12.81230
C         -0.40460       -0.13490        9.79660
C         -0.36890        0.49610       11.02980
C          0.06880        1.81200       11.07630
F          0.10870        2.43870       12.25750
C          0.46600        2.49430        9.92660
F          0.88210        3.76340       10.01810
C          0.43290        1.87080        8.68950
C         -0.00460        0.56250        8.64460
C         -0.13960       -0.32100        7.46740
O          0.13440       -0.02520        6.31730
C          1.23770        1.04580       -1.51950
Cl        -0.22140        6.72900      -10.63960
Cl         0.46030        6.54840       -4.44730
H          0.48740        1.41930       -8.71000
H          0.96750       -0.61110       -9.01510
H          0.63540       -2.15870       -8.22590
H         -1.14510       -1.57990       -9.85330
H         -1.79300       -1.66100       -8.21200
H         -1.49670       -0.09340       -8.96920
H         -0.75890        0.80640       -2.25830
H         -0.56750        0.19440       -0.61610
H          0.91180       -0.25860        0.59060
H          0.42520       -0.51020        2.27500
H          2.62530       -2.06050        0.81170
H          2.17290       -2.26800        2.50730
H          2.88800       -0.74840        1.96880
H         -1.68390       -6.21360        5.35380
H         -1.35410       -5.48290        6.93050
H         -3.86130       -5.02560        5.23890
H         -3.54480       -4.26220        6.80050
H         -3.75450       -6.01030        6.70250
H         -1.32570       -3.55760        7.77580
H         -0.66420        0.01570       11.94800
H          0.73830        2.39420        7.79760
H          2.02070        0.46630       -1.03490
H          1.09070        1.97210       -0.97140
H          1.57440        1.29560       -2.52170
