113
BTP-4V.sdf
C          6.46950       -2.87000       -2.08660
C          5.43230       -2.94880       -1.13760
S          4.15570       -1.72890       -1.11980
C          3.38980       -2.51220        0.21120
C          4.09990       -3.65640        0.60370
C          5.24780       -3.91250       -0.15090
C          6.16970       -5.05500        0.12540
C          7.30440       -4.62150        1.05680
S          3.35830       -4.50390        1.94350
C          2.10060       -3.31830        1.96130
C          2.25080       -2.31680        0.99590
N          1.21890       -1.41630        1.08230
C          0.89570       -0.63950       -0.09660
C          0.38040       -1.84340        2.10270
C          0.90750       -3.04950        2.64710
C          0.20890       -3.80010        3.61830
N          0.55590       -4.94580        4.18350
S         -0.64280       -5.41740        5.16390
N         -1.64860       -4.17590        4.90870
C         -1.08220       -3.34690        4.04580
C         -1.55300       -2.09890        3.58230
C         -0.79780       -1.29850        2.67600
N         -1.42760       -0.07450        2.55190
C         -0.94780        1.18420        2.03000
C         -1.68260        1.59360        0.75390
C         -2.56170       -0.10350        3.31720
C         -2.67760       -1.34650        3.94770
S         -4.07090       -1.48630        4.96120
C         -4.50540        0.15950        4.55380
C         -3.59830        0.76570        3.67600
S         -4.06730        2.38760        3.32850
C         -5.52170        2.21040        4.30950
C         -5.59580        0.96710        4.91710
C         -6.60490        0.53770        5.93530
C         -5.94290        0.30100        7.29510
C         -6.43960        3.29320        4.24500
C         -0.07690       -1.39620       -0.99870
C         -8.68290        4.23960        4.02550
C         -7.79120        3.17150        4.27360
C          7.61630       -1.84330       -3.98180
C          6.58220       -1.89260       -3.03130
C        -10.58560        2.88260        3.16910
C         -9.99800        1.78790        2.57620
C        -10.64430        0.51240        2.32960
C        -11.89010        0.11980        2.74390
C        -12.78750        0.89470        3.50970
N        -13.57190        1.44110        4.14580
C        -12.45290       -1.14440        2.46530
N        -12.96940       -2.14970        2.26610
C         -9.69270       -0.34040        1.61280
C         -9.77710       -1.65440        1.17890
C         -8.66930       -2.20600        0.55110
F         -8.72960       -3.47430        0.12810
C         -7.49830       -1.47520        0.35340
F         -6.44540       -2.05040       -0.24510
C         -7.41120       -0.15760        0.77190
C         -8.51320        0.38860        1.39760
C         -8.66800        1.75800        1.93660
O         -7.87030        2.66430        1.79930
C         -9.97070        4.07920        3.59770
C          7.92480        1.19030       -7.14070
O          6.93230        1.49520       -6.51230
C          8.44660        1.89500       -8.33540
C          7.92520        3.00630       -8.96680
C          8.59450        3.48630      -10.08080
F          8.12400        4.56220      -10.72570
C          9.75340        2.85900      -10.53700
F         10.38000        3.34310      -11.61640
C         10.27710        1.74260       -9.90170
C          9.61280        1.25630       -8.78650
C          9.89740        0.11840       -7.90910
C         10.96850       -0.72890       -8.04380
C         11.94450       -0.61710       -9.05600
N         12.77260       -0.58190       -9.85040
C         11.26250       -1.82420       -7.20550
N         11.57410       -2.73520       -6.57890
C          8.85940        0.07110       -6.90430
C          8.73170       -0.85590       -5.89650
C          7.70200       -0.87380       -4.94440
H          7.21720       -3.65130       -2.04910
H          6.58500       -5.44050       -0.80690
H          5.59790       -5.85250        0.60370
H          6.90030       -4.26280        2.00040
H          7.96210       -5.46250        1.25960
H          7.88790       -3.82250        0.60470
H          0.48540        0.32920        0.16970
H          1.83600       -0.46990       -0.62730
H         -1.12930        1.94730        2.79540
H          0.13140        1.11850        1.88580
H         -1.65570        0.80480        0.00710
H         -1.23090        2.49040        0.33910
H         -2.72320        1.81010        0.97990
H         -7.07530       -0.39040        5.59920
H         -7.37330        1.29930        6.05160
H         -5.19980       -0.48920        7.23470
H         -5.45750        1.21100        7.64080
H         -6.69490        0.01140        8.02430
H         -6.01480        4.25420        3.98290
H          0.35490       -2.34550       -1.30750
H         -0.29190       -0.80900       -1.88720
H         -1.00840       -1.59880       -0.47390
H         -8.32260        5.24350        4.20860
H         -8.23090        2.19040        4.39040
H          8.37170       -2.61970       -3.94840
H          5.83490       -1.10960       -3.06630
H        -11.66260        2.85720        3.28570
H        -10.65700       -2.26340        1.30520
H         -6.51240        0.41730        0.61640
H        -10.61690        4.94780        3.61590
H          7.02840        3.48680       -8.60950
H         11.17500        1.29590      -10.29570
H          9.47150       -1.64280       -5.82430
H          6.95140       -0.09850       -4.98500
