97
BTP-FCl-FCl.sdf
C         -0.12290        6.43170       -4.52930
O         -0.36110        5.53120       -3.74310
C         -1.00960        7.57410       -4.83470
C         -2.25630        7.85430       -4.31490
C         -2.90910        9.00060       -4.75270
Cl        -4.46460        9.41230       -4.14420
C         -2.28870        9.82260       -5.69560
F         -2.92260       10.92470       -6.11340
C         -1.03560        9.54590       -6.22130
C         -0.38610        8.40310       -5.78270
C          0.91680        7.83230       -6.12440
C          1.80760        8.38340       -7.01020
C          1.57870        9.58460       -7.71440
N          1.45790       10.55420       -8.31620
C          3.06910        7.85340       -7.35120
N          4.10740        7.48890       -7.68270
C          1.07090        6.61590       -5.35300
C          2.16450        5.78080       -5.39990
C          2.44990        4.60210       -4.70990
S          1.40150        3.85830       -3.49980
C          2.55020        2.59720       -3.26240
C          3.68110        2.75110       -4.08640
C          3.63970        3.87220       -4.90120
C          4.71290        4.19840       -5.88690
C          4.34760        3.67820       -7.28020
S          4.88260        1.48960       -3.87430
C          3.86380        0.76720       -2.67840
C          2.66210        1.45410       -2.46770
N          1.93230        0.82790       -1.49540
C          0.72050        1.46250       -1.02990
C          2.63680       -0.28260       -1.07200
C          3.87150       -0.31600       -1.79390
C          4.88150       -1.26730       -1.52930
N          6.06830       -1.39350       -2.10150
S          6.85540       -2.61240       -1.38310
N          5.71010       -3.02540       -0.31610
C          4.67120       -2.22320       -0.48620
C          3.42800       -2.23530        0.18410
C          2.37920       -1.31140       -0.12180
N          1.27350       -1.66870        0.62520
C         -0.09830       -1.21540        0.63370
C         -0.40120       -0.34250        1.85150
C          1.60690       -2.74700        1.39700
C          2.93500       -3.11650        1.15160
S          3.45530       -4.49650        2.05480
C          1.85210       -4.59540        2.76250
C          0.97410       -3.59230        2.31100
S         -0.58850       -3.73310        3.02090
C         -0.06230       -5.15500        3.92600
C          1.28410       -5.47980        3.66670
C          2.05240       -6.58780        4.30840
C          2.58110       -6.15760        5.67990
C         -0.86890       -5.89650        4.79000
C         -2.18420       -5.73390        5.16340
C         -2.90880       -6.60180        6.06930
C         -2.44470       -7.72230        6.71060
C         -1.14020       -8.24940        6.61370
N         -0.10150       -8.74060        6.59250
C         -3.22750       -8.51950        7.57250
N         -3.80650       -9.21090        8.28240
C         -4.26700       -6.07090        6.18880
C         -5.36540       -6.50220        6.91530
C         -6.53700       -5.76650        6.81880
F         -7.60240       -6.17590        7.51760
C         -6.64610       -4.62240        6.02590
Cl        -8.13370       -3.76140        5.95860
C         -5.54360       -4.19210        5.29730
C         -4.37570       -4.92020        5.38970
C         -3.08280       -4.66990        4.71910
O         -2.84100       -3.75380        3.95220
C         -0.45560        1.20530       -1.97220
H         -2.70950        7.19990       -3.58780
H         -0.61560       10.22360       -6.94600
H          2.94840        6.07360       -6.08440
H          4.88790        5.27400       -5.93690
H          5.63560        3.71640       -5.55800
H          3.42940        4.13950       -7.63600
H          5.14420        3.91370       -7.97990
H          4.20910        2.59990       -7.25710
H          0.91050        2.54060       -1.00450
H          0.50730        1.14160       -0.01470
H         -0.32030       -0.70550       -0.29880
H         -0.73220       -2.10690        0.68430
H          0.31400        0.47190        1.94990
H         -1.40110        0.07270        1.76550
H         -0.35800       -0.93990        2.75790
H          1.43590       -7.48050        4.42230
H          2.89730       -6.83520        3.66290
H          3.14340       -6.97140        6.12810
H          3.23430       -5.29400        5.57950
H          1.76100       -5.89840        6.34540
H         -0.35720       -6.74060        5.23160
H         -5.35130       -7.37560        7.54640
H         -5.59630       -3.31270        4.67560
H         -1.37110        1.58520       -1.52830
H         -0.57670        0.14440       -2.18290
H         -0.29670        1.71980       -2.91580
