97
BTP-ClBr1.mol
O         -5.21650       -2.43640       -1.95080
C         -6.41600       -2.51020       -2.15540
C         -7.49640       -1.83970       -1.43450
C         -7.35180       -0.98980       -0.36070
C         -6.21180       -0.53700        0.30370
C         -6.26830        0.33360        1.40990
C         -7.51480        0.83910        2.05850
C         -8.08940       -0.20180        3.02360
C         -4.99950        0.63660        1.87910
S         -4.44050        1.63980        3.20520
C         -2.81380        1.24500        2.77400
C         -1.50960        1.49600        3.21860
C         -1.03190        2.17110        4.36480
N         -1.72470        2.80560        5.29690
S         -0.69840        3.32500        6.43550
N          0.67070        2.76230        5.78150
C          0.37350        2.14870        4.64710
C         -2.71080        0.39310        1.66630
N         -1.39260        0.13860        1.38630
C         -1.07180       -1.06590        0.64800
C         -0.87120       -2.24540        1.59710
C         -0.63090        0.81910        2.32200
C          0.76820        0.97510        2.49620
C          1.24970        1.56950        3.70160
C          2.64750        1.54900        3.63190
S          4.00950        2.04340        4.57450
C          2.98800        1.00010        2.38710
N          1.85180        0.66120        1.70260
C          1.92450        0.37930        0.28630
C          2.37720       -1.05220        0.00340
C          4.36610        0.99610        2.16280
C          5.05900        1.53000        3.26610
C         -3.95740        0.03020        1.15230
S         -4.55110       -0.95520       -0.12900
C         -8.75910       -2.21830       -2.03460
C        -10.01770       -1.80910       -1.67280
C        -11.19900       -2.22640       -2.32220
N        -12.19440       -2.52750       -2.80790
C        -10.32830       -0.92470       -0.61910
N        -10.66340       -0.21390        0.21940
C         -8.46000       -3.13780       -3.13310
C         -9.27970       -3.80030       -4.03110
C         -8.69180       -4.62490       -4.98350
Br        -9.81400       -5.52920       -6.20850
C         -7.30750       -4.79760       -5.05310
Cl        -6.61640       -5.82510       -6.24450
C         -6.48280       -4.13320       -4.15210
C         -7.06780       -3.31580       -3.20830
C          8.71650        0.49880        0.28210
C         10.13360        0.49960       -0.01800
C         10.29670       -0.08850       -1.34810
C         11.42190       -0.32830       -2.11850
C         11.25800       -0.91320       -3.36910
Br        12.79650       -1.23890       -4.42030
C          9.99680       -1.26040       -3.85890
Cl         9.83310       -1.98300       -5.40910
C         11.15930        0.95880        0.76900
C         11.02600        1.52340        2.05450
N         11.00200        1.99130        3.10380
C         12.51830        0.92940        0.39050
N         13.63950        0.93750        0.14560
C          7.99900       -0.08420       -0.85020
C          9.03030       -0.43920       -1.84670
C          8.86570       -1.01960       -3.08660
C          6.43590        1.56550        3.10850
C          6.82220        1.04500        1.85760
S          5.43500        0.51960        0.89960
C          7.36130        2.04760        4.17650
C          7.90120        0.87450        4.99980
O          6.79770       -0.25170       -0.97350
C          8.15280        0.97480        1.44470
H         -8.27020       -0.59510        0.05130
H         -7.26480        1.74270        2.61780
H         -8.26880        1.09620        1.31300
H         -7.36440       -0.44070        3.79810
H         -8.34890       -1.11650        2.49590
H         -8.98680        0.19000        3.49330
H         -1.91950       -1.26410       -0.01240
H         -0.19110       -0.92780        0.02890
H         -0.04720       -2.05240        2.28170
H         -0.65470       -3.14500        1.02790
H         -1.77140       -2.41540        2.18320
H          0.95850        0.60800       -0.16570
H          2.66030        1.06570       -0.14740
H          3.41680       -1.17640        0.29360
H          2.29710       -1.25870       -1.06020
H          1.78060       -1.77620        0.55170
H        -10.35260       -3.69750       -4.01490
H         -5.41160       -4.25220       -4.18900
H         12.41430       -0.07720       -1.78100
H          7.88320       -1.27980       -3.44700
H          8.19680        2.60550        3.75120
H          6.80270        2.71630        4.83430
H          8.56230        1.24600        5.77720
H          8.46220        0.18720        4.37100
H          7.08290        0.33080        5.46590
H          8.84660        1.36580        2.17610
