103
BTP-M.sdf
C          2.37540        6.21060       -3.33680
O          2.27260        5.04080       -3.00420
C          3.05860        6.72040       -4.53550
C          3.73850        6.02600       -5.51630
C          4.31540        6.74510       -6.55190
C          4.21730        8.13260       -6.61070
C          4.86840        8.89560       -7.72010
C          3.52630        8.82560       -5.61560
C          2.94550        8.12160       -4.57660
C          2.18090        8.56610       -3.41040
C          1.83660        9.86690       -3.14260
C          2.17710       10.96140       -3.96460
N          2.41480       11.89810       -4.58500
C          1.09080       10.31360       -2.03270
N          0.48990       10.76050       -1.16050
C          1.85730        7.38790       -2.63220
C          1.20530        7.38950       -1.42330
C          0.84180        6.34000       -0.57390
S          1.13440        4.62920       -0.89460
C          0.38000        4.20700        0.59720
C         -0.06110        5.34160        1.30050
C          0.18940        6.54420        0.65480
C         -0.24850        7.86140        1.20660
C         -1.60240        8.27270        0.62150
S         -0.81350        4.96920        2.84080
C         -0.52590        3.29220        2.53530
C          0.09750        3.03680        1.30830
N          0.30070        1.69140        1.16350
C          1.09070        1.22220        0.04870
C         -0.19560        1.05450        2.28480
C         -0.69400        2.05810        3.17210
C         -1.16010        1.75920        4.47120
N         -1.61890        2.58750        5.39590
S         -1.95170        1.73120        6.72960
N         -1.52380        0.27070        6.17560
C         -1.10650        0.40350        4.92670
C         -0.68610       -0.59940        4.02570
C         -0.28590       -0.30900        2.68460
N         -0.07020       -1.51140        2.03880
C          0.14710       -1.84620        0.65010
C          1.57950       -2.31220        0.39010
C         -0.28870       -2.52410        2.93270
C         -0.65740       -1.99030        4.17290
S         -0.98540       -3.18300        5.38070
C         -0.64230       -4.42790        4.19320
C         -0.29040       -3.92220        2.92940
S         -0.00180       -5.18360        1.79010
C         -0.33720       -6.39560        3.02770
C         -0.65870       -5.81360        4.26650
C         -1.03830       -6.55320        5.50770
C         -2.52230       -6.92970        5.48580
C         -0.29660       -7.77890        2.82810
C         -0.05500       -8.52080        1.69800
C         -0.05850       -9.96780        1.63100
C         -0.20660      -10.85280        2.66900
C         -0.38850      -10.51270        4.02520
N         -0.53300      -10.32270        5.14970
C         -0.18440      -12.25550        2.52330
N         -0.17890      -13.40310        2.48020
C          0.15190      -10.33950        0.23120
C          0.20310      -11.57330       -0.39240
C          0.42210      -11.63610       -1.76870
C          0.45260      -12.96500       -2.45420
C          0.58780      -10.46290       -2.50100
C          0.53730       -9.21980       -1.89010
C          0.31790       -9.16750       -0.52760
C          0.21190       -7.99550        0.35500
O          0.32540       -6.82630        0.02380
C          0.28430        1.18250       -1.24940
H          3.81290        4.95050       -5.46640
H          4.85310        6.22210       -7.32930
H          5.02980        8.26350       -8.58950
H          4.26240        9.75170       -8.00710
H          5.83700        9.27110       -7.38830
H          3.46040        9.90000       -5.67390
H          0.92320        8.36140       -1.04200
H          0.48670        8.64020        0.99920
H         -0.34440        7.76100        2.28960
H         -1.91800        9.21740        1.05450
H         -2.35390        7.51780        0.84070
H         -1.53490        8.39550       -0.45680
H          1.51690        0.25310        0.29160
H          1.91820        1.92760       -0.08320
H         -0.53080       -2.67090        0.40480
H         -0.12280       -0.99850        0.02720
H          1.73370       -2.44070       -0.67730
H          2.30960       -1.60040        0.77030
H          1.75520       -3.26750        0.87650
H         -0.84990       -5.90100        6.36290
H         -0.43680       -7.45560        5.62720
H         -3.13760       -6.03680        5.40280
H         -2.78330       -7.45020        6.40270
H         -2.74210       -7.58260        4.64420
H         -0.50810       -8.34380        3.72560
H          0.07520      -12.48880        0.16210
H          1.11760      -12.94550       -3.31430
H         -0.54730      -13.21840       -2.80830
H          0.77360      -13.74710       -1.77090
H          0.75800      -10.52810       -3.56580
H          0.66470       -8.30850       -2.45400
H          0.86670        0.69730       -2.02720
H         -0.65420        0.64630       -1.12270
H          0.05390        2.19230       -1.57680
