101
BTP-1V.mol
O         -2.23630        7.30850        0.02210
C         -2.41410        8.39380        0.54700
C         -2.58530        8.69080        1.96800
C         -2.60310        7.77330        2.99480
C         -2.42720        6.38950        2.99280
S         -2.07660        5.41330        1.56260
C         -2.48000        5.61250        4.16740
C         -2.80460        6.11900        5.53410
C         -4.31920        6.24550        5.72220
C         -2.23790        4.27460        3.89750
S         -2.15150        2.85760        4.92780
C         -1.99110        3.99800        2.53950
C         -1.72010        2.64360        2.34310
C         -1.76720        1.90580        3.53690
C         -1.47370        0.57220        3.21330
C         -1.50170       -0.63350        3.95270
N         -1.78990       -0.80700        5.23240
S         -1.77320       -2.39170        5.55720
N         -1.39200       -2.92270        4.07750
C         -1.26200       -1.87970        3.27360
C         -0.85480       -1.86010        1.91890
C         -0.72500       -0.62980        1.22150
N         -0.14360       -0.85530       -0.01230
C          0.05080       -2.21010       -0.12030
C         -0.39220       -2.85630        1.04330
C          3.28580       -6.85400       -5.22290
C          3.90530       -8.01300       -5.61210
C          3.99720       -9.32760       -5.02710
C          5.14820       -9.99570       -5.64300
C          5.76980      -11.19830       -5.34900
C          6.83930      -11.58880       -6.14180
F          7.46210      -12.74050       -5.86650
C          7.28120      -10.81050       -7.21160
F          8.31340      -11.22980       -7.95380
C          6.66620       -9.60480       -7.50960
C          5.60900       -9.21090       -6.71420
C          4.81400       -7.96340       -6.78350
O          4.91160       -7.07010       -7.59340
C          3.08990       -9.94580       -4.20370
C          3.24920      -11.25040       -3.69110
N          3.33140      -12.29460       -3.22170
C          1.84070       -9.40860       -3.84170
N          0.79300       -9.04700       -3.53890
C          0.70280        0.06420       -0.74770
C          2.17860       -0.15900       -0.41910
C         -1.19550        0.55810        1.81890
N         -1.39020        1.81960        1.29490
C         -1.81120        2.13730       -0.05620
C         -3.31990        2.36930       -0.12570
C         -2.50060        9.69240       -0.15380
C         -2.69990       10.71570        0.78780
C         -2.74810       10.12090        2.12540
C         -2.89900       10.82510        3.29290
C         -2.93050       10.27450        4.59110
N         -2.96450        9.90690        5.67940
C         -3.03660       12.22810        3.35790
N         -3.15280       13.36290        3.48250
C         -2.81250       12.02980        0.36280
C         -2.72180       12.28470       -0.99810
F         -2.82880       13.54680       -1.42820
C         -2.52300       11.26120       -1.92450
F         -2.44110       11.55290       -3.22860
C         -2.40960        9.94460       -1.50780
S         -0.18160       -4.57160        1.00970
C          0.52600       -4.43050       -0.58480
C          0.57700       -3.10840       -1.05020
C          1.05680       -5.38590       -1.45810
C          1.53290       -4.78840       -2.62440
S          1.27300       -3.03650       -2.62110
C          2.15410       -5.29570       -3.78250
C          1.06080       -6.83810       -1.11750
C          2.37000       -7.25020       -0.43840
C          2.67330       -6.54060       -3.99830
H         -2.77870        8.17880        3.98150
H         -2.41390        5.40660        6.26330
H         -2.33520        7.08680        5.71700
H         -4.53550        6.60790        6.72290
H         -4.79920        5.27880        5.58880
H         -4.74040        6.94470        5.00370
H          3.37250       -6.04690       -5.94450
H          5.46870      -11.83360       -4.53220
H          7.00690       -8.99930       -8.33420
H          0.44350        1.08530       -0.47750
H          0.53210       -0.08700       -1.81810
H          2.50250       -1.15130       -0.71980
H          2.34670       -0.04510        0.64980
H          2.78130        0.57420       -0.94730
H         -1.28460        3.03760       -0.38800
H         -1.56360        1.30160       -0.70880
H         -3.60850        3.24220        0.45220
H         -3.61130        2.53200       -1.15940
H         -3.85310        1.50100        0.25580
H         -2.96680       12.85700        1.03560
H         -2.25600        9.15000       -2.22030
H          2.24240       -4.57920       -4.59230
H          0.23780       -7.02420       -0.42380
H          0.88940       -7.43920       -2.01300
H          2.47760       -6.73350        0.51270
H          2.36700       -8.32090       -0.25180
H          3.23090       -7.00470       -1.05690
H          2.66710       -7.27640       -3.21460
