BTP-4V.sdf
  xtb     12202114283D
 energy: -212.348390997603 gnorm: 0.000760148083 xtb: 6.4.1 (unknown)
113124  0     0  0            999 V2000
    6.4695   -2.8700   -2.0866 C   0  0  0  0  0  0  0  0  0  0  0  0
    5.4323   -2.9488   -1.1376 C   0  0  0  0  0  0  0  0  0  0  0  0
    4.1557   -1.7289   -1.1198 S   0  0  0  0  0  0  0  0  0  0  0  0
    3.3898   -2.5122    0.2112 C   0  0  0  0  0  0  0  0  0  0  0  0
    4.0999   -3.6564    0.6037 C   0  0  0  0  0  0  0  0  0  0  0  0
    5.2478   -3.9125   -0.1509 C   0  0  0  0  0  0  0  0  0  0  0  0
    6.1697   -5.0550    0.1254 C   0  0  0  0  0  0  0  0  0  0  0  0
    7.3044   -4.6215    1.0568 C   0  0  0  0  0  0  0  0  0  0  0  0
    3.3583   -4.5039    1.9435 S   0  0  0  0  0  0  0  0  0  0  0  0
    2.1006   -3.3183    1.9613 C   0  0  0  0  0  0  0  0  0  0  0  0
    2.2508   -2.3168    0.9959 C   0  0  0  0  0  0  0  0  0  0  0  0
    1.2189   -1.4163    1.0823 N   0  0  0  0  0  0  0  0  0  0  0  0
    0.8957   -0.6395   -0.0966 C   0  0  0  0  0  0  0  0  0  0  0  0
    0.3804   -1.8434    2.1027 C   0  0  0  0  0  0  0  0  0  0  0  0
    0.9075   -3.0495    2.6471 C   0  0  0  0  0  0  0  0  0  0  0  0
    0.2089   -3.8001    3.6183 C   0  0  0  0  0  0  0  0  0  0  0  0
    0.5559   -4.9458    4.1835 N   0  0  0  0  0  0  0  0  0  0  0  0
   -0.6428   -5.4174    5.1639 S   0  0  0  0  0  0  0  0  0  0  0  0
   -1.6486   -4.1759    4.9087 N   0  0  0  0  0  0  0  0  0  0  0  0
   -1.0822   -3.3469    4.0458 C   0  0  0  0  0  0  0  0  0  0  0  0
   -1.5530   -2.0989    3.5823 C   0  0  0  0  0  0  0  0  0  0  0  0
   -0.7978   -1.2985    2.6760 C   0  0  0  0  0  0  0  0  0  0  0  0
   -1.4276   -0.0745    2.5519 N   0  0  0  0  0  0  0  0  0  0  0  0
   -0.9478    1.1842    2.0300 C   0  0  0  0  0  0  0  0  0  0  0  0
   -1.6826    1.5936    0.7539 C   0  0  0  0  0  0  0  0  0  0  0  0
   -2.5617   -0.1035    3.3172 C   0  0  0  0  0  0  0  0  0  0  0  0
   -2.6776   -1.3465    3.9477 C   0  0  0  0  0  0  0  0  0  0  0  0
   -4.0709   -1.4863    4.9612 S   0  0  0  0  0  0  0  0  0  0  0  0
   -4.5054    0.1595    4.5538 C   0  0  0  0  0  0  0  0  0  0  0  0
   -3.5983    0.7657    3.6760 C   0  0  0  0  0  0  0  0  0  0  0  0
   -4.0673    2.3876    3.3285 S   0  0  0  0  0  0  0  0  0  0  0  0
   -5.5217    2.2104    4.3095 C   0  0  0  0  0  0  0  0  0  0  0  0
   -5.5958    0.9671    4.9171 C   0  0  0  0  0  0  0  0  0  0  0  0
   -6.6049    0.5377    5.9353 C   0  0  0  0  0  0  0  0  0  0  0  0
   -5.9429    0.3010    7.2951 C   0  0  0  0  0  0  0  0  0  0  0  0
   -6.4396    3.2932    4.2450 C   0  0  0  0  0  0  0  0  0  0  0  0
   -0.0769   -1.3962   -0.9987 C   0  0  0  0  0  0  0  0  0  0  0  0
   -8.6829    4.2396    4.0255 C   0  0  0  0  0  0  0  0  0  0  0  0
   -7.7912    3.1715    4.2736 C   0  0  0  0  0  0  0  0  0  0  0  0
    7.6163   -1.8433   -3.9818 C   0  0  0  0  0  0  0  0  0  0  0  0
    6.5822   -1.8926   -3.0313 C   0  0  0  0  0  0  0  0  0  0  0  0
  -10.5856    2.8826    3.1691 C   0  0  0  0  0  0  0  0  0  0  0  0
   -9.9980    1.7879    2.5762 C   0  0  0  0  0  0  0  0  0  0  0  0
  -10.6443    0.5124    2.3296 C   0  0  0  0  0  0  0  0  0  0  0  0
  -11.8901    0.1198    2.7439 C   0  0  0  0  0  0  0  0  0  0  0  0
  -12.7875    0.8947    3.5097 C   0  0  0  0  0  0  0  0  0  0  0  0
  -13.5719    1.4411    4.1458 N   0  0  0  0  0  0  0  0  0  0  0  0
  -12.4529   -1.1444    2.4653 C   0  0  0  0  0  0  0  0  0  0  0  0
  -12.9694   -2.1497    2.2661 N   0  0  0  0  0  0  0  0  0  0  0  0
   -9.6927   -0.3404    1.6128 C   0  0  0  0  0  0  0  0  0  0  0  0
   -9.7771   -1.6544    1.1789 C   0  0  0  0  0  0  0  0  0  0  0  0
   -8.6693   -2.2060    0.5511 C   0  0  0  0  0  0  0  0  0  0  0  0
   -8.7296   -3.4743    0.1281 F   0  0  0  0  0  0  0  0  0  0  0  0
   -7.4983   -1.4752    0.3534 C   0  0  0  0  0  0  0  0  0  0  0  0
   -6.4454   -2.0504   -0.2451 F   0  0  0  0  0  0  0  0  0  0  0  0
   -7.4112   -0.1576    0.7719 C   0  0  0  0  0  0  0  0  0  0  0  0
   -8.5132    0.3886    1.3976 C   0  0  0  0  0  0  0  0  0  0  0  0
   -8.6680    1.7580    1.9366 C   0  0  0  0  0  0  0  0  0  0  0  0
   -7.8703    2.6643    1.7993 O   0  0  0  0  0  0  0  0  0  0  0  0
   -9.9707    4.0792    3.5977 C   0  0  0  0  0  0  0  0  0  0  0  0
    7.9248    1.1903   -7.1407 C   0  0  0  0  0  0  0  0  0  0  0  0
    6.9323    1.4952   -6.5123 O   0  0  0  0  0  0  0  0  0  0  0  0
    8.4466    1.8950   -8.3354 C   0  0  0  0  0  0  0  0  0  0  0  0
    7.9252    3.0063   -8.9668 C   0  0  0  0  0  0  0  0  0  0  0  0
    8.5945    3.4863  -10.0808 C   0  0  0  0  0  0  0  0  0  0  0  0
    8.1240    4.5622  -10.7257 F   0  0  0  0  0  0  0  0  0  0  0  0
    9.7534    2.8590  -10.5370 C   0  0  0  0  0  0  0  0  0  0  0  0
   10.3800    3.3431  -11.6164 F   0  0  0  0  0  0  0  0  0  0  0  0
   10.2771    1.7426   -9.9017 C   0  0  0  0  0  0  0  0  0  0  0  0
    9.6128    1.2563   -8.7865 C   0  0  0  0  0  0  0  0  0  0  0  0
    9.8974    0.1184   -7.9091 C   0  0  0  0  0  0  0  0  0  0  0  0
   10.9685   -0.7289   -8.0438 C   0  0  0  0  0  0  0  0  0  0  0  0
   11.9445   -0.6171   -9.0560 C   0  0  0  0  0  0  0  0  0  0  0  0
   12.7726   -0.5819   -9.8504 N   0  0  0  0  0  0  0  0  0  0  0  0
   11.2625   -1.8242   -7.2055 C   0  0  0  0  0  0  0  0  0  0  0  0
   11.5741   -2.7352   -6.5789 N   0  0  0  0  0  0  0  0  0  0  0  0
    8.8594    0.0711   -6.9043 C   0  0  0  0  0  0  0  0  0  0  0  0
    8.7317   -0.8559   -5.8965 C   0  0  0  0  0  0  0  0  0  0  0  0
    7.7020   -0.8738   -4.9444 C   0  0  0  0  0  0  0  0  0  0  0  0
    7.2172   -3.6513   -2.0491 H   0  0  0  0  0  0  0  0  0  0  0  0
    6.5850   -5.4405   -0.8069 H   0  0  0  0  0  0  0  0  0  0  0  0
    5.5979   -5.8525    0.6037 H   0  0  0  0  0  0  0  0  0  0  0  0
    6.9003   -4.2628    2.0004 H   0  0  0  0  0  0  0  0  0  0  0  0
    7.9621   -5.4625    1.2596 H   0  0  0  0  0  0  0  0  0  0  0  0
    7.8879   -3.8225    0.6047 H   0  0  0  0  0  0  0  0  0  0  0  0
    0.4854    0.3292    0.1697 H   0  0  0  0  0  0  0  0  0  0  0  0
    1.8360   -0.4699   -0.6273 H   0  0  0  0  0  0  0  0  0  0  0  0
   -1.1293    1.9473    2.7954 H   0  0  0  0  0  0  0  0  0  0  0  0
    0.1314    1.1185    1.8858 H   0  0  0  0  0  0  0  0  0  0  0  0
   -1.6557    0.8048    0.0071 H   0  0  0  0  0  0  0  0  0  0  0  0
   -1.2309    2.4904    0.3391 H   0  0  0  0  0  0  0  0  0  0  0  0
   -2.7232    1.8101    0.9799 H   0  0  0  0  0  0  0  0  0  0  0  0
   -7.0753   -0.3904    5.5992 H   0  0  0  0  0  0  0  0  0  0  0  0
   -7.3733    1.2993    6.0516 H   0  0  0  0  0  0  0  0  0  0  0  0
   -5.1998   -0.4892    7.2347 H   0  0  0  0  0  0  0  0  0  0  0  0
   -5.4575    1.2110    7.6408 H   0  0  0  0  0  0  0  0  0  0  0  0
   -6.6949    0.0114    8.0243 H   0  0  0  0  0  0  0  0  0  0  0  0
   -6.0148    4.2542    3.9829 H   0  0  0  0  0  0  0  0  0  0  0  0
    0.3549   -2.3455   -1.3075 H   0  0  0  0  0  0  0  0  0  0  0  0
   -0.2919   -0.8090   -1.8872 H   0  0  0  0  0  0  0  0  0  0  0  0
   -1.0084   -1.5988   -0.4739 H   0  0  0  0  0  0  0  0  0  0  0  0
   -8.3226    5.2435    4.2086 H   0  0  0  0  0  0  0  0  0  0  0  0
   -8.2309    2.1904    4.3904 H   0  0  0  0  0  0  0  0  0  0  0  0
    8.3717   -2.6197   -3.9484 H   0  0  0  0  0  0  0  0  0  0  0  0
    5.8349   -1.1096   -3.0663 H   0  0  0  0  0  0  0  0  0  0  0  0
  -11.6626    2.8572    3.2857 H   0  0  0  0  0  0  0  0  0  0  0  0
  -10.6570   -2.2634    1.3052 H   0  0  0  0  0  0  0  0  0  0  0  0
   -6.5124    0.4173    0.6164 H   0  0  0  0  0  0  0  0  0  0  0  0
  -10.6169    4.9478    3.6159 H   0  0  0  0  0  0  0  0  0  0  0  0
    7.0284    3.4868   -8.6095 H   0  0  0  0  0  0  0  0  0  0  0  0
   11.1750    1.2959  -10.2957 H   0  0  0  0  0  0  0  0  0  0  0  0
    9.4715   -1.6428   -5.8243 H   0  0  0  0  0  0  0  0  0  0  0  0
    6.9514   -0.0985   -4.9850 H   0  0  0  0  0  0  0  0  0  0  0  0
  1  2  1  0  0  0  0
  2  3  1  0  0  0  0
  3  4  1  0  0  0  0
  4  5  2  0  0  0  0
  5  6  1  0  0  0  0
  6  7  1  0  0  0  0
  7  8  1  0  0  0  0
  2  6  2  0  0  0  0
  5  9  1  0  0  0  0
  9 10  1  0  0  0  0
 10 11  2  0  0  0  0
  4 11  1  0  0  0  0
 11 12  1  0  0  0  0
 12 13  1  0  0  0  0
 12 14  1  0  0  0  0
 14 15  2  0  0  0  0
 10 15  1  0  0  0  0
 15 16  1  0  0  0  0
 16 17  2  0  0  0  0
 17 18  1  0  0  0  0
 18 19  1  0  0  0  0
 19 20  2  0  0  0  0
 16 20  1  0  0  0  0
 20 21  1  0  0  0  0
 21 22  2  0  0  0  0
 14 22  1  0  0  0  0
 22 23  1  0  0  0  0
 23 24  1  0  0  0  0
 24 25  1  0  0  0  0
 23 26  1  0  0  0  0
 26 27  2  0  0  0  0
 21 27  1  0  0  0  0
 27 28  1  0  0  0  0
 28 29  1  0  0  0  0
 29 30  2  0  0  0  0
 26 30  1  0  0  0  0
 30 31  1  0  0  0  0
 31 32  1  0  0  0  0
 32 33  2  0  0  0  0
 29 33  1  0  0  0  0
 33 34  1  0  0  0  0
 34 35  1  0  0  0  0
 32 36  1  0  0  0  0
 13 37  1  0  0  0  0
 36 39  2  0  0  0  0
 39 38  1  0  0  0  0
 40 41  1  0  0  0  0
 41  1  2  0  0  0  0
 42 43  2  0  0  0  0
 43 44  1  0  0  0  0
 44 45  2  0  0  0  0
 45 46  1  0  0  0  0
 46 47  3  0  0  0  0
 45 48  1  0  0  0  0
 48 49  3  0  0  0  0
 44 50  1  0  0  0  0
 50 51  2  0  0  0  0
 51 52  1  0  0  0  0
 52 53  1  0  0  0  0
 52 54  2  0  0  0  0
 54 55  1  0  0  0  0
 54 56  1  0  0  0  0
 56 57  2  0  0  0  0
 50 57  1  0  0  0  0
 57 58  1  0  0  0  0
 58 59  2  0  0  0  0
 43 58  1  0  0  0  0
 38 60  2  0  0  0  0
 60 42  1  0  0  0  0
 61 62  2  0  0  0  0
 61 63  1  0  0  0  0
 63 64  2  0  0  0  0
 64 65  1  0  0  0  0
 65 66  1  0  0  0  0
 65 67  2  0  0  0  0
 67 68  1  0  0  0  0
 67 69  1  0  0  0  0
 69 70  2  0  0  0  0
 63 70  1  0  0  0  0
 70 71  1  0  0  0  0
 71 72  2  0  0  0  0
 72 73  1  0  0  0  0
 73 74  3  0  0  0  0
 72 75  1  0  0  0  0
 75 76  3  0  0  0  0
 71 77  1  0  0  0  0
 61 77  1  0  0  0  0
 77 78  2  0  0  0  0
 78 79  1  0  0  0  0
 79 40  2  0  0  0  0
  1 80  1  0  0  0  0
  7 81  1  0  0  0  0
  7 82  1  0  0  0  0
  8 83  1  0  0  0  0
  8 84  1  0  0  0  0
  8 85  1  0  0  0  0
 13 86  1  0  0  0  0
 13 87  1  0  0  0  0
 24 88  1  0  0  0  0
 24 89  1  0  0  0  0
 25 90  1  0  0  0  0
 25 91  1  0  0  0  0
 25 92  1  0  0  0  0
 34 93  1  0  0  0  0
 34 94  1  0  0  0  0
 35 95  1  0  0  0  0
 35 96  1  0  0  0  0
 35 97  1  0  0  0  0
 36 98  1  0  0  0  0
 37 99  1  0  0  0  0
 37100  1  0  0  0  0
 37101  1  0  0  0  0
 38102  1  0  0  0  0
 39103  1  0  0  0  0
 40104  1  0  0  0  0
 41105  1  0  0  0  0
 42106  1  0  0  0  0
 51107  1  0  0  0  0
 56108  1  0  0  0  0
 60109  1  0  0  0  0
 64110  1  0  0  0  0
 69111  1  0  0  0  0
 78112  1  0  0  0  0
 79113  1  0  0  0  0
M  END
