88
BTSe-4F.sdf
C          0.84890        0.45530        3.37460
C          0.20070        0.44460        2.10780
C          0.99560        0.49110        0.93730
C          2.39810        0.25000        1.04300
C          3.04170        0.19620        2.30150
C          2.25440        0.37380        3.48730
N          4.32760        0.03800        2.57260
S          4.53120        0.11460        4.17580
N          2.98260        0.34540        4.59130
N          0.66270        0.62330       -0.39770
C          1.80300        0.40660       -1.12630
C          2.88590        0.16450       -0.26850
C         -0.15200        0.38690        4.35040
C         -1.38210        0.28220        3.66560
N         -1.15760        0.32720        2.31160
Se        -0.34890        0.29400        6.17760
C         -2.22550        0.04690        5.81410
C         -2.50790        0.08980        4.45450
C          2.15920        0.34450       -2.47400
C          3.52470        0.03950       -2.62380
S          4.37060       -0.15120       -1.09800
S          1.35750        0.51200       -3.98710
C          2.86870        0.16760       -4.83370
C          3.93790       -0.05930       -3.94410
C         -2.19700       -0.07980        1.38980
C         -0.41010        1.40120       -0.98250
C         -3.06770       -0.15810        6.91740
C         -4.39040       -0.52480        7.00750
C          3.01380        0.11370       -6.22090
C          2.09720        0.28330       -7.23390
C         -5.31380       -0.93850        5.93450
C         -6.49250       -1.51090        6.62190
C         -6.34230       -1.38240        8.01090
C         -5.07390       -0.70520        8.27810
C          0.67470        0.58040       -7.07180
C          0.11480        0.65350       -8.43710
C          1.13760        0.42210       -9.37170
C          2.39090        0.19140       -8.64970
C         -7.60090       -2.10570        6.05230
C         -8.57810       -2.59130        6.90540
C         -8.43500       -2.47460        8.28830
C         -7.32450       -1.87000        8.85880
C         -1.18850        0.90420       -8.81660
C         -1.46960        0.92150      -10.17330
C         -0.46170        0.69240      -11.11000
C          0.84800        0.44110      -10.72680
O         -5.18850       -0.85640        4.72790
C         -4.66740       -0.26550        9.51030
C         -3.50530        0.49020        9.77960
C         -5.39940       -0.47220       10.69950
F         -9.66770       -3.18120        6.39840
F         -9.39040       -2.95990        9.08880
O          0.05420        0.74400       -6.03590
C          3.60280       -0.05800       -9.24100
C          3.80270       -0.12310      -10.63670
C          4.82160       -0.28030       -8.56640
F         -0.76100        0.71440      -12.41330
F         -2.71960        1.16000      -10.58800
N         -5.94430       -0.61350       11.69950
N         -2.60020        1.12670       10.08720
N          5.85090       -0.47540       -8.09450
N          4.03370       -0.19280      -11.75870
C          5.33060       -0.43240       -4.33230
C          5.43560       -1.93820       -4.59200
C          0.06800        2.80420       -1.35520
C         -3.25780        1.00450        1.19860
H         -3.50930       -0.03720        4.08610
H         -2.67980       -0.97010        1.80770
H         -1.73860       -0.36840        0.44350
H         -0.76320        0.88160       -1.87830
H         -1.22090        1.49230       -0.26880
H         -2.55410       -0.04590        7.86690
H          4.02470       -0.10530       -6.53560
H         -7.70540       -2.19430        4.98270
H         -7.26230       -1.80780        9.93260
H         -1.96370        1.08070       -8.08830
H          1.58750        0.27080      -11.49160
H          5.65100        0.11150       -5.22200
H          5.99740       -0.16630       -3.50990
H          4.77020       -2.23830       -5.39810
H          6.45320       -2.19160       -4.87430
H          5.17110       -2.49620       -3.69680
H         -0.76470        3.37430       -1.75710
H          0.45400        3.31840       -0.47720
H          0.84950        2.76330       -2.10830
H         -3.93250        0.71810        0.39670
H         -3.83910        1.13010        2.10720
H         -2.81170        1.96640        0.95450
