164
BTTIC.sdf
C          5.76740       -7.60770        2.80480
O          6.09670       -6.44170        2.90720
C          6.54970       -8.76660        3.23860
C          5.82900       -9.97060        2.95760
C          4.56690       -9.62670        2.33610
C          3.63170      -10.55520        1.95290
C          3.85740      -11.93390        2.14660
N          4.01860      -13.06100        2.29350
C          2.38250      -10.31290        1.35040
N          1.34880      -10.20920        0.85860
C          4.51920       -8.17420        2.22690
C          3.46370       -7.51460        1.65310
C          3.20100       -6.14900        1.44580
C          3.89360       -4.99180        1.77040
C          3.22440       -3.85140        1.35540
C          2.00050       -4.10240        0.69690
S          1.68340       -5.78580        0.60540
C          1.36010       -2.93050        0.30810
C          0.11170       -2.54010       -0.44060
C         -1.16780       -2.98980        0.23830
C         -2.27680       -3.41530       -0.47820
C         -3.45800       -3.71610        0.17450
C         -3.56370       -3.60280        1.55330
C         -4.86660       -3.86080        2.25260
C         -5.61640       -2.54620        2.47660
C         -2.44730       -3.18680        2.26740
C         -1.26660       -2.88050        1.62010
C          0.29810       -3.07950       -1.84710
C          0.76950       -2.27790       -2.87710
C          0.98620       -2.81040       -4.13570
C          0.75110       -4.15360       -4.39460
C          1.02400       -4.73610       -5.75110
C          2.46490       -5.24410       -5.83440
C          0.30970       -4.95790       -3.35140
C          0.09050       -4.43170       -2.09330
C          0.19290       -1.02410       -0.34990
C          1.38890       -0.61990        0.28340
C          2.09250       -1.80670        0.65630
S          3.57690       -2.14820        1.47490
C          1.70440        0.72440        0.52650
C          0.76210        1.65590        0.12730
C          0.85330        3.17230        0.19990
C          2.15840        3.60550       -0.44130
C          3.21820        4.12040        0.29080
C          4.41900        4.41070       -0.32780
C          4.59730        4.19470       -1.68710
C          5.93080        4.44550       -2.32910
C          6.85620        3.24750       -2.10620
C          3.53160        3.68700       -2.41770
C          2.32860        3.39530       -1.80410
C          0.62470        3.72940        1.59420
C          0.18460        2.92830        2.63780
C         -0.05260        3.47430        3.88630
C          0.13190        4.82920        4.12210
C         -0.16120        5.42350        5.46930
C         -1.62400        5.86440        5.55170
C          0.54260        5.63210        3.06530
C          0.78110        5.09270        1.81640
C         -0.36410        3.56130       -0.59990
C         -1.10650        2.43900       -0.93310
C         -0.42800        1.25230       -0.51590
C         -0.74960       -0.09290       -0.74800
S         -2.54720        2.77720       -1.82690
C         -2.15890        4.47400       -1.76860
C         -0.95980        4.72810       -1.06670
S         -0.60120        6.40630       -1.05040
C         -2.06290        6.76100       -1.98770
C         -2.77410        5.60610       -2.27850
C         -2.27060        8.11710       -2.29430
C         -3.25910        8.76430       -2.98930
C         -3.25310       10.20700       -3.19660
C         -2.33260       11.13790       -2.78420
C         -1.15610       10.90840       -2.04620
N         -0.17850       10.81540       -1.44890
C         -2.49930       12.50480       -3.08920
N         -2.61170       13.62280       -3.32410
C         -4.43910       10.53770       -3.95930
C         -5.16750        9.33520       -4.22610
C         -4.46890        8.19120       -3.63770
O         -4.83010        7.03090       -3.68380
C          7.75990       -8.96300        3.82780
S          8.02540      -10.67620        4.04530
C          6.50390      -11.08760        3.33960
C         -6.31050        9.51880       -4.94020
S         -6.50070       11.21840       -5.29810
C         -5.04040       11.64110       -4.47870
C         -7.29260        8.50640       -5.38800
C          8.75610       -7.95390        4.25140
C          2.99120        1.07120        1.12120
C         -2.03690       -0.44260       -1.34210
C          4.22020        0.88990        0.56260
C          5.27300        1.34230        1.38560
C          4.84930        1.84150        2.57630
S          3.12130        1.77280        2.70230
C         -2.32470       -0.94500       -2.57210
C         -3.70900       -1.13190       -2.78070
C         -4.47100       -0.78140       -1.71200
S         -3.48640       -0.19200       -0.41270
C          5.65270        2.43500        3.68160
C          5.36350        3.92920        3.83690
C         -5.95420       -0.81640       -1.57930
C         -6.53490        0.59260       -1.45330
H          2.66930       -8.14910        1.27680
H          4.83780       -5.00320        2.28280
H         -2.22970       -3.49970       -1.55300
H         -4.31310       -4.03650       -0.40370
H         -5.48350       -4.53160        1.65160
H         -4.68260       -4.33820        3.21730
H         -5.02780       -1.87410        3.09670
H         -5.80170       -2.05050        1.52620
H         -6.57000       -2.72870        2.96670
H         -2.50500       -3.09520        3.34260
H         -0.41330       -2.54460        2.19290
H          0.96910       -1.23080       -2.69910
H          1.34380       -2.16870       -4.92890
H          0.86500       -3.97700       -6.51980
H          0.33970       -5.56510       -5.94170
H          2.63920       -6.01110       -5.08320
H          2.66280       -5.66760       -6.81620
H          3.16420       -4.42930       -5.65960
H          0.13520       -6.00990       -3.52470
H         -0.24970       -5.07560       -1.29550
H          3.11510        4.28890        1.35140
H          5.23520        4.80820        0.25840
H          5.80450        4.61140       -3.40050
H          6.38800        5.33790       -1.89640
H          6.42380        2.34990       -2.54280
H          7.82700        3.42410       -2.56350
H          6.99810        3.07440       -1.04180
H          3.64510        3.51320       -3.47840
H          1.51350        2.99080       -2.38860
H          0.02820        1.87100        2.48250
H         -0.38370        2.83270        4.69020
H          0.03700        4.68620        6.24990
H          0.48430        6.28700        5.64160
H         -1.83790        6.29420        6.52750
H         -1.83760        6.61000        4.78910
H         -2.28450        5.01480        5.39320
H          0.67940        6.69260        3.22030
H          1.09870        5.73550        1.00820
H         -3.69120        5.61300       -2.83770
H         -1.48620        8.75420       -1.90150
H          6.22710      -12.11960        3.26130
H         -4.74080       12.66920       -4.44460
H         -8.28230        8.72740       -4.98920
H         -6.97510        7.52590       -5.04050
H         -7.36620        8.49640       -6.47520
H          9.70760       -8.11590        3.74520
H          8.38240       -6.96170        4.00750
H          8.93450       -8.01720        5.32480
H          4.36220        0.47560       -0.41970
H          6.30880        1.29060        1.10070
H         -1.57480       -1.16860       -3.30960
H         -4.11950       -1.51860       -3.69670
H          6.71240        2.28210        3.46660
H          5.41890        1.92700        4.62110
H          5.59780        4.45750        2.91540
H          5.96300        4.34950        4.64040
H          4.31170        4.08730        4.06760
H         -6.23280       -1.39900       -0.69660
H         -6.37160       -1.31300       -2.45790
H         -6.27400        1.18770       -2.32540
H         -6.13590        1.08520       -0.56940
H         -7.61810        0.55000       -1.37050
