149
BTz-Np.sdf
C          7.22840       -1.44910        2.04450
S          7.19310       -3.19310        2.05340
C          7.96700       -3.22880        3.61920
C          8.30930       -1.96080        4.02510
C          7.90940       -0.94760        3.13820
C          8.07170        0.51610        3.39950
C          6.89840        1.04790        4.22620
C          7.45950       -5.63130        3.75650
C          7.79200       -4.43390        4.38120
C          6.59040       -6.54510        4.33490
C          5.99910       -6.31760        5.57310
C          6.61860       -5.32580        6.37780
C          7.52610       -4.37290        5.77520
N          6.38960       -5.05010        7.65590
S          7.24270       -3.74990        8.07490
N          7.91730       -3.44830        6.64340
C          4.63140       -6.69560        5.81210
C          3.85040       -6.61250        6.93620
C          2.46530       -6.56170        6.67420
C          2.19140       -6.58390        5.32530
S          3.63990       -6.79680        4.37510
C          1.42160       -6.35290        7.72520
C          1.28260       -4.86530        8.05610
C          6.41170       -0.78780        1.14050
C          1.06990       -6.17900        4.60360
C          5.50400       -0.36150        0.45510
C          0.34180       -5.63090        3.80190
C          4.38270        0.13120       -0.22470
C          3.66420       -0.70140       -1.07220
C          2.49550       -0.26020       -1.68190
C          2.01370        1.01490       -1.45180
C          2.72260        1.88390       -0.59800
C          3.92430        1.45960        0.01970
C          2.24370        3.18530       -0.35110
C          2.94250        4.03880        0.47690
C          4.13100        3.62120        1.07910
C          4.61310        2.35580        0.85780
C          0.75670        1.44770       -2.08580
N          0.31500        2.72180       -1.75930
C          0.98860        3.64170       -0.97010
O          0.14910        0.74930       -2.87020
O          0.56790        4.77150       -0.81770
C         -0.94280        3.16500       -2.27870
C         -1.90090        3.59940       -1.36760
C         -3.06610        4.16070       -1.84100
C         -3.28160        4.23360       -3.22840
C         -2.34840        3.74710       -4.12760
C         -1.16060        3.22550       -3.64560
C         -4.56620        4.86750       -3.46690
C         -5.14240        5.17540       -2.22800
C         -6.37570        5.79020       -2.17050
C         -7.03290        6.09030       -3.35620
C         -6.45880        5.79000       -4.58190
C         -5.21760        5.17930       -4.64970
C         -4.22450        4.77820       -1.08410
C         -3.83300        6.07860       -0.33750
C         -4.99210        3.77390       -0.19800
C         -4.29640        3.27740        1.06220
C         -2.49620        6.09170        0.39500
C         -0.36640       -4.87600        2.84760
C         -1.50660       -5.35180        2.22580
C         -2.11320       -4.62660        1.20340
C         -1.61160       -3.39930        0.81570
C         -0.48560       -2.85860        1.46990
C          0.17400       -3.60460        2.47640
C         -0.00890       -1.57630        1.12460
C          1.12430       -1.07350        1.72770
C          1.80670       -1.83150        2.68170
C          1.33660       -3.06390        3.06010
C         -2.21630       -2.68560       -0.31960
N         -1.70870       -1.41960       -0.59200
C         -0.73270       -0.76110        0.13040
O         -3.10640       -3.15880       -0.99470
O         -0.48130        0.41390       -0.05290
C         -2.29560       -0.75960       -1.72670
C         -2.03610       -1.28790       -2.98610
C         -2.66930       -0.73170       -4.07400
C         -3.51060        0.37780       -3.90330
C         -3.74580        0.90730       -2.64780
C         -3.14070        0.32220       -1.54910
C         -3.99690        0.79340       -5.20720
C         -3.44940       -0.05940       -6.17610
C         -3.72960        0.13550       -7.51190
C         -4.55840        1.18870       -7.87630
C         -5.11430        2.01930       -6.91570
C         -4.84190        1.82820       -5.57060
C         -2.63880       -1.15880       -5.52290
C         -1.22090       -1.27020       -6.09590
C         -3.43830       -2.47090       -5.72390
C         -2.95390       -3.67340       -4.92420
C         -0.46040        0.04720       -6.00890
H          8.79390       -1.77310        4.96630
H          8.12060        1.05480        2.45060
H          9.00380        0.68440        3.94200
H          5.96140        0.89520        3.69410
H          6.84130        0.52810        5.17990
H          7.02170        2.11120        4.41680
H          7.74670       -5.77440        2.72500
H          6.23020       -7.36650        3.73270
H          4.27010       -6.53540        7.92310
H          0.46200       -6.73550        7.37200
H          1.70440       -6.90060        8.62630
H          2.23220       -4.46300        8.40200
H          0.97270       -4.31060        7.17270
H          0.53850       -4.72020        8.83520
H          4.01960       -1.70620       -1.24740
H          1.93920       -0.91060       -2.34040
H          2.55110        5.03050        0.64630
H          4.66930        4.30110        1.72230
H          5.53210        2.02710        1.32110
H         -1.68830        3.51070       -0.31590
H         -2.53100        3.79120       -5.19050
H         -0.40230        2.87460       -4.32780
H         -6.82990        6.04320       -1.22330
H         -8.00110        6.56840       -3.32290
H         -6.98530        6.03850       -5.49220
H         -4.76520        4.95210       -5.60340
H         -3.80840        6.88360       -1.07760
H         -4.63540        6.31110        0.36740
H         -5.24660        2.91130       -0.81950
H         -5.93330        4.24690        0.09500
H         -3.34730        2.80380        0.83150
H         -4.12690        4.08960        1.76360
H         -4.93140        2.54020        1.55230
H         -2.36650        7.06350        0.86920
H         -2.44650        5.33280        1.16930
H         -1.66790        5.93890       -0.29110
H         -1.91070       -6.30900        2.51990
H         -2.97810       -5.01740        0.68860
H          1.47180       -0.09000        1.44870
H          2.70580       -1.43460        3.12880
H          1.85520       -3.63960        3.81210
H         -1.35330       -2.11710       -3.08500
H         -4.39820        1.75730       -2.52700
H         -3.32070        0.70200       -0.55510
H         -3.31250       -0.51240       -8.26950
H         -4.77820        1.35770       -8.92080
H         -5.76920        2.82330       -7.22010
H         -5.27940        2.47270       -4.82350
H         -0.67080       -2.03490       -5.54600
H         -1.28820       -1.59020       -7.13910
H         -3.41410       -2.71250       -6.78970
H         -4.47900       -2.27280       -5.45450
H         -1.90780       -3.88940       -5.12670
H         -3.53780       -4.54850       -5.20360
H         -3.08440       -3.50860       -3.85810
H          0.53040       -0.06140       -6.44680
H         -0.99110        0.83140       -6.54510
H         -0.35220        0.34710       -4.97050
