86
BZIC.sdf
C         -4.54430       -3.62880        4.82100
O         -4.05060       -3.96450        3.76080
C         -5.40830       -4.48020        5.66150
C         -5.84610       -5.76650        5.41370
C         -6.66780       -6.37160        6.35390
C         -7.03570       -5.69180        7.50600
C         -6.59450       -4.39940        7.75930
C         -5.76920       -3.78780        6.82860
C         -5.13630       -2.47060        6.80200
C         -5.14670       -1.57770        7.84150
C         -5.83060       -1.78890        9.05800
N         -6.36210       -1.88860       10.07080
C         -4.45850       -0.34630        7.89470
N         -3.91940        0.65690        8.04540
C         -4.44420       -2.33460        5.53020
C         -3.90900       -1.14940        5.09220
C         -2.65450       -1.61110        2.92060
C         -3.17250       -0.82400        3.94120
S         -2.76000        0.89180        3.74070
C         -1.90900        0.52550        2.30390
C         -1.95730       -0.84850        1.99440
N         -1.23690       -1.08900        0.85080
C         -0.79670       -2.43290        0.53790
C         -0.71230        0.11930        0.42520
C         -1.10090        1.14110        1.34090
C         -0.55720        2.43830        1.23130
N         -0.71490        3.54600        1.95760
N          0.13370        4.39470        1.43490
N          0.84710        3.96380        0.42550
C          0.43910        2.70590        0.25140
C          0.77610        1.71370       -0.69200
C          0.11370        0.45230       -0.67110
N          0.52130       -0.29500       -1.76570
C         -0.27280       -1.27010       -2.48460
C         -0.92600       -0.65820       -3.72400
C          1.47440        0.44090       -2.43030
C          1.65360        1.67980       -1.78400
S          2.83970        2.63880       -2.55550
C          3.11180        1.35410       -3.75210
C          2.28770        0.25650       -3.53950
C          4.09880        1.61860       -4.71710
C          4.63780        0.84190       -5.71040
C          5.69510        1.30700       -6.59490
C          6.10200        2.59980       -6.79490
C          5.54250        3.75190       -6.20100
N          5.14070        4.74640       -5.78960
C          7.13200        2.97470       -7.68400
N          7.96170        3.35250       -8.38180
C          6.21780        0.14670       -7.31360
C          7.27820        0.00470       -8.19500
C          7.52950       -1.25120       -8.73220
C          6.74520       -2.34920       -8.40900
C          5.68390       -2.21830       -7.52490
C          5.43590       -0.97200       -6.98380
C          4.39100       -0.58450       -6.01610
O          3.52360       -1.32230       -5.58920
C         -1.92770       -3.30550       -0.00470
C          0.23850        5.74420        1.90890
C         -0.71250        6.65650        1.13970
H         -5.54880       -6.27430        4.50900
H         -7.02540       -7.37680        6.18880
H         -7.67980       -6.17490        8.22530
H         -6.90060       -3.89620        8.66150
H         -4.08200       -0.29170        5.73190
H         -2.80060       -2.67390        2.89400
H         -0.42110       -2.88540        1.46340
H          0.03680       -2.37790       -0.16270
H         -1.05940       -1.62920       -1.82810
H          0.37090       -2.10540       -2.77760
H         -1.55800       -1.40070       -4.20380
H         -0.17850       -0.32660       -4.43890
H         -1.54110        0.19440       -3.44300
H          2.32170       -0.61730       -4.16300
H          4.52060        2.61210       -4.61770
H          7.90720        0.83760       -8.46230
H          8.35560       -1.37160       -9.41690
H          6.96560       -3.31120       -8.84680
H          5.06220       -3.05850       -7.25570
H         -1.52810       -4.26890       -0.30920
H         -2.41610       -2.84570       -0.86090
H         -2.68150       -3.47180        0.75910
H          1.27250        6.06350        1.76540
H         -0.01210        5.73770        2.97130
H         -1.74000        6.32930        1.27850
H         -0.47460        6.63490        0.07900
H         -0.61730        7.67660        1.49990
