CH1007.sdf
  xtb     12232109073D
 energy: -191.071060700884 gnorm: 0.000518082581 xtb: 6.4.1 (unknown)
 97108  0     0  0            999 V2000
    5.6860    4.0301    5.1327 C   0  0  0  0  0  0  0  0  0  0  0  0
    4.5834    3.7036    4.7083 O   0  0  0  0  0  0  0  0  0  0  0  0
    5.9445    5.0064    6.2075 C   0  0  0  0  0  0  0  0  0  0  0  0
    5.0378    5.7420    6.9437 C   0  0  0  0  0  0  0  0  0  0  0  0
    5.5413    6.6028    7.9063 C   0  0  0  0  0  0  0  0  0  0  0  0
    4.6985    7.3364    8.6437 F   0  0  0  0  0  0  0  0  0  0  0  0
    6.9159    6.7117    8.1131 C   0  0  0  0  0  0  0  0  0  0  0  0
    7.3744    7.5504    9.0487 F   0  0  0  0  0  0  0  0  0  0  0  0
    7.8267    5.9714    7.3719 C   0  0  0  0  0  0  0  0  0  0  0  0
    7.3324    5.1089    6.4075 C   0  0  0  0  0  0  0  0  0  0  0  0
    8.0093    4.2059    5.4722 C   0  0  0  0  0  0  0  0  0  0  0  0
    9.3678    4.0392    5.3864 C   0  0  0  0  0  0  0  0  0  0  0  0
   10.3015    4.7228    6.1944 C   0  0  0  0  0  0  0  0  0  0  0  0
   11.1152    5.2411    6.8159 N   0  0  0  0  0  0  0  0  0  0  0  0
   10.0376    3.1739    4.4961 C   0  0  0  0  0  0  0  0  0  0  0  0
   10.6542    2.4937    3.8051 N   0  0  0  0  0  0  0  0  0  0  0  0
    6.9823    3.5508    4.6900 C   0  0  0  0  0  0  0  0  0  0  0  0
    7.2024    2.6294    3.6851 C   0  0  0  0  0  0  0  0  0  0  0  0
    6.3193    1.9306    2.8650 C   0  0  0  0  0  0  0  0  0  0  0  0
    4.4142    2.0469    2.8888 Se  0  0  0  0  0  2  0  0  0  0  0  0
    4.4278    0.7824    1.5202 C   0  0  0  0  0  0  0  0  0  0  0  0
    5.7446    0.4112    1.1792 C   0  0  0  0  0  0  0  0  0  0  0  0
    6.7704    1.0164    1.8891 C   0  0  0  0  0  0  0  0  0  0  0  0
    8.1993    0.6477    1.6488 C   0  0  0  0  0  0  0  0  0  0  0  0
    8.6447   -0.4476    2.6224 C   0  0  0  0  0  0  0  0  0  0  0  0
    5.8340   -0.7752   -0.1151 S   0  0  0  0  0  0  0  0  0  0  0  0
    4.1105   -0.7668   -0.1977 C   0  0  0  0  0  0  0  0  0  0  0  0
    3.5077    0.0924    0.7276 C   0  0  0  0  0  0  0  0  0  0  0  0
    2.1472    0.0510    0.5809 N   0  0  0  0  0  0  0  0  0  0  0  0
    1.3510    0.9756    1.3519 C   0  0  0  0  0  0  0  0  0  0  0  0
    1.1227    0.4804    2.7800 C   0  0  0  0  0  0  0  0  0  0  0  0
    1.8452   -0.8474   -0.4255 C   0  0  0  0  0  0  0  0  0  0  0  0
    3.0810   -1.3502   -0.9424 C   0  0  0  0  0  0  0  0  0  0  0  0
    3.1456   -2.2248   -2.0488 C   0  0  0  0  0  0  0  0  0  0  0  0
    4.2146   -2.7406   -2.6350 N   0  0  0  0  0  0  0  0  0  0  0  0
    3.7258   -3.6413   -3.8879 S   0  0  0  0  0  0  0  0  0  0  0  0
    2.1320   -3.4091   -3.7280 N   0  0  0  0  0  0  0  0  0  0  0  0
    1.9276   -2.6169   -2.6871 C   0  0  0  0  0  0  0  0  0  0  0  0
    0.7033   -2.1763   -2.1393 C   0  0  0  0  0  0  0  0  0  0  0  0
    0.6308   -1.3296   -0.9907 C   0  0  0  0  0  0  0  0  0  0  0  0
   -0.7058   -1.1871   -0.6599 N   0  0  0  0  0  0  0  0  0  0  0  0
   -1.3837   -0.5618    0.4491 C   0  0  0  0  0  0  0  0  0  0  0  0
   -1.9985    0.7806    0.0538 C   0  0  0  0  0  0  0  0  0  0  0  0
   -1.4517   -1.8872   -1.5688 C   0  0  0  0  0  0  0  0  0  0  0  0
   -0.6096   -2.5020   -2.4997 C   0  0  0  0  0  0  0  0  0  0  0  0
   -1.4484   -3.4545   -3.6661 S   0  0  0  0  0  0  0  0  0  0  0  0
   -2.9655   -3.0436   -2.8920 C   0  0  0  0  0  0  0  0  0  0  0  0
   -2.7993   -2.1963   -1.7817 C   0  0  0  0  0  0  0  0  0  0  0  0
   -4.4334   -1.8039   -0.9841 Se  0  0  0  0  0  2  0  0  0  0  0  0
   -5.2275   -2.8098   -2.3959 C   0  0  0  0  0  0  0  0  0  0  0  0
   -4.2808   -3.3975   -3.2288 C   0  0  0  0  0  0  0  0  0  0  0  0
   -4.6116   -4.4119   -4.2726 C   0  0  0  0  0  0  0  0  0  0  0  0
   -3.8601   -5.7275   -4.0690 C   0  0  0  0  0  0  0  0  0  0  0  0
   -6.6328   -2.8678   -2.4134 C   0  0  0  0  0  0  0  0  0  0  0  0
   -7.4434   -2.9173   -3.5194 C   0  0  0  0  0  0  0  0  0  0  0  0
   -8.8732   -3.1334   -3.5117 C   0  0  0  0  0  0  0  0  0  0  0  0
   -9.6124   -3.6437   -2.4762 C   0  0  0  0  0  0  0  0  0  0  0  0
   -9.0750   -4.0546   -1.2380 C   0  0  0  0  0  0  0  0  0  0  0  0
   -8.7000   -4.4281   -0.2189 N   0  0  0  0  0  0  0  0  0  0  0  0
  -11.0061   -3.8532   -2.5286 C   0  0  0  0  0  0  0  0  0  0  0  0
  -12.1389   -4.0366   -2.5128 N   0  0  0  0  0  0  0  0  0  0  0  0
   -9.3785   -2.7994   -4.8420 C   0  0  0  0  0  0  0  0  0  0  0  0
  -10.6636   -2.8060   -5.3607 C   0  0  0  0  0  0  0  0  0  0  0  0
  -10.8307   -2.4376   -6.6876 C   0  0  0  0  0  0  0  0  0  0  0  0
  -12.0629   -2.4349   -7.2084 F   0  0  0  0  0  0  0  0  0  0  0  0
   -9.7491   -2.0685   -7.4875 C   0  0  0  0  0  0  0  0  0  0  0  0
   -9.9565   -1.7233   -8.7640 F   0  0  0  0  0  0  0  0  0  0  0  0
   -8.4621   -2.0549   -6.9736 C   0  0  0  0  0  0  0  0  0  0  0  0
   -8.2953   -2.4247   -5.6541 C   0  0  0  0  0  0  0  0  0  0  0  0
   -7.0376   -2.4849   -4.8726 C   0  0  0  0  0  0  0  0  0  0  0  0
   -5.9365   -2.1521   -5.2557 O   0  0  0  0  0  0  0  0  0  0  0  0
    3.9755    5.6554    6.7808 H   0  0  0  0  0  0  0  0  0  0  0  0
    8.8784    6.0940    7.5718 H   0  0  0  0  0  0  0  0  0  0  0  0
    8.2420    2.4005    3.4922 H   0  0  0  0  0  0  0  0  0  0  0  0
    8.2878    0.2705    0.6277 H   0  0  0  0  0  0  0  0  0  0  0  0
    8.8576    1.5116    1.7490 H   0  0  0  0  0  0  0  0  0  0  0  0
    8.5613   -0.1067    3.6519 H   0  0  0  0  0  0  0  0  0  0  0  0
    8.0295   -1.3359    2.4990 H   0  0  0  0  0  0  0  0  0  0  0  0
    9.6808   -0.7100    2.4302 H   0  0  0  0  0  0  0  0  0  0  0  0
    0.4173    1.1785    0.8349 H   0  0  0  0  0  0  0  0  0  0  0  0
    1.9124    1.9188    1.4029 H   0  0  0  0  0  0  0  0  0  0  0  0
    0.7390   -0.5380    2.7964 H   0  0  0  0  0  0  0  0  0  0  0  0
    2.0614    0.4933    3.3328 H   0  0  0  0  0  0  0  0  0  0  0  0
    0.4203    1.1341    3.2891 H   0  0  0  0  0  0  0  0  0  0  0  0
   -2.1941   -1.2383    0.7540 H   0  0  0  0  0  0  0  0  0  0  0  0
   -0.7050   -0.4662    1.2912 H   0  0  0  0  0  0  0  0  0  0  0  0
   -1.2604    1.4421   -0.3952 H   0  0  0  0  0  0  0  0  0  0  0  0
   -2.4231    1.2649    0.9286 H   0  0  0  0  0  0  0  0  0  0  0  0
   -2.7934    0.6264   -0.6742 H   0  0  0  0  0  0  0  0  0  0  0  0
   -4.3690   -3.9923   -5.2527 H   0  0  0  0  0  0  0  0  0  0  0  0
   -5.6834   -4.6127   -4.2531 H   0  0  0  0  0  0  0  0  0  0  0  0
   -4.2025   -6.4549   -4.8006 H   0  0  0  0  0  0  0  0  0  0  0  0
   -2.7892   -5.5989   -4.1925 H   0  0  0  0  0  0  0  0  0  0  0  0
   -4.0526   -6.1230   -3.0739 H   0  0  0  0  0  0  0  0  0  0  0  0
   -7.1119   -2.7897   -1.4422 H   0  0  0  0  0  0  0  0  0  0  0  0
  -11.5312   -3.0773   -4.7819 H   0  0  0  0  0  0  0  0  0  0  0  0
   -7.6240   -1.7672   -7.5880 H   0  0  0  0  0  0  0  0  0  0  0  0
  1  2  2  0  0  0  0
  1  3  1  0  0  0  0
  3  4  2  0  0  0  0
  4  5  1  0  0  0  0
  5  6  1  0  0  0  0
  5  7  2  0  0  0  0
  7  8  1  0  0  0  0
  7  9  1  0  0  0  0
  9 10  2  0  0  0  0
  3 10  1  0  0  0  0
 10 11  1  0  0  0  0
 11 12  2  0  0  0  0
 12 13  1  0  0  0  0
 13 14  3  0  0  0  0
 12 15  1  0  0  0  0
 15 16  3  0  0  0  0
 11 17  1  0  0  0  0
  1 17  1  0  0  0  0
 17 18  2  0  0  0  0
 18 19  1  0  0  0  0
 19 20  1  0  0  0  0
 20 21  1  0  0  0  0
 21 22  2  0  0  0  0
 22 23  1  0  0  0  0
 23 24  1  0  0  0  0
 24 25  1  0  0  0  0
 19 23  2  0  0  0  0
 22 26  1  0  0  0  0
 26 27  1  0  0  0  0
 27 28  2  0  0  0  0
 21 28  1  0  0  0  0
 28 29  1  0  0  0  0
 29 30  1  0  0  0  0
 30 31  1  0  0  0  0
 29 32  1  0  0  0  0
 32 33  2  0  0  0  0
 27 33  1  0  0  0  0
 33 34  1  0  0  0  0
 34 35  2  0  0  0  0
 35 36  1  0  0  0  0
 36 37  1  0  0  0  0
 37 38  2  0  0  0  0
 34 38  1  0  0  0  0
 38 39  1  0  0  0  0
 39 40  2  0  0  0  0
 32 40  1  0  0  0  0
 40 41  1  0  0  0  0
 41 42  1  0  0  0  0
 42 43  1  0  0  0  0
 41 44  1  0  0  0  0
 44 45  2  0  0  0  0
 39 45  1  0  0  0  0
 45 46  1  0  0  0  0
 46 47  1  0  0  0  0
 47 48  2  0  0  0  0
 44 48  1  0  0  0  0
 48 49  1  0  0  0  0
 49 50  1  0  0  0  0
 50 51  2  0  0  0  0
 47 51  1  0  0  0  0
 51 52  1  0  0  0  0
 52 53  1  0  0  0  0
 50 54  1  0  0  0  0
 54 55  2  0  0  0  0
 55 56  1  0  0  0  0
 56 57  2  0  0  0  0
 57 58  1  0  0  0  0
 58 59  3  0  0  0  0
 57 60  1  0  0  0  0
 60 61  3  0  0  0  0
 56 62  1  0  0  0  0
 62 63  2  0  0  0  0
 63 64  1  0  0  0  0
 64 65  1  0  0  0  0
 64 66  2  0  0  0  0
 66 67  1  0  0  0  0
 66 68  1  0  0  0  0
 68 69  2  0  0  0  0
 62 69  1  0  0  0  0
 69 70  1  0  0  0  0
 70 71  2  0  0  0  0
 55 70  1  0  0  0  0
  4 72  1  0  0  0  0
  9 73  1  0  0  0  0
 18 74  1  0  0  0  0
 24 75  1  0  0  0  0
 24 76  1  0  0  0  0
 25 77  1  0  0  0  0
 25 78  1  0  0  0  0
 25 79  1  0  0  0  0
 30 80  1  0  0  0  0
 30 81  1  0  0  0  0
 31 82  1  0  0  0  0
 31 83  1  0  0  0  0
 31 84  1  0  0  0  0
 42 85  1  0  0  0  0
 42 86  1  0  0  0  0
 43 87  1  0  0  0  0
 43 88  1  0  0  0  0
 43 89  1  0  0  0  0
 52 90  1  0  0  0  0
 52 91  1  0  0  0  0
 53 92  1  0  0  0  0
 53 93  1  0  0  0  0
 53 94  1  0  0  0  0
 54 95  1  0  0  0  0
 63 96  1  0  0  0  0
 68 97  1  0  0  0  0
M  END
