138
Cl-ITIC.sdf
C         -1.94850        8.41350       -2.86200
O         -2.62950        7.40970       -2.80830
C         -2.46610        9.79100       -2.97370
C         -3.78090       10.21720       -2.98430
C         -4.03640       11.57520       -3.08120
C         -2.97710       12.47230       -3.16370
C         -1.64950       12.05510       -3.15950
C         -1.39720       10.69670       -3.06560
C         -0.14370        9.94290       -3.03850
C          1.09840       10.48290       -3.24520
C          1.33690       11.85760       -3.46090
N          1.60490       12.95990       -3.63540
C          2.31620        9.77220       -3.31570
N          3.35120        9.28280       -3.40940
C         -0.47420        8.54370       -2.82310
C          0.46220        7.58720       -2.52650
C          0.34490        6.21080       -2.26730
C         -0.71950        5.32370       -2.34260
C         -0.35740        4.04450       -1.95200
C          0.99650        3.91190       -1.57180
S          1.82770        5.40530       -1.72460
C          1.29670        2.62990       -1.12220
C          2.49630        1.88390       -0.60230
C          3.48710        1.80000       -1.75330
C          4.23320        2.92790       -2.07500
C          5.09600        2.91380       -3.15280
C          5.23470        1.77660       -3.93950
C          6.20220        1.75200       -5.08720
C          7.58880        1.31490       -4.61040
C          4.48820        0.65340       -3.61190
C          3.61780        0.66310       -2.53610
C          3.12640        2.49600        0.63210
C          4.43850        2.18520        0.96640
C          5.01150        2.70560        2.11050
C          4.29160        3.54500        2.95110
C          4.93700        4.15310        4.16220
C          5.63420        5.46360        3.79100
C          2.97820        3.84460        2.61660
C          2.39780        3.32180        1.47560
C          1.86480        0.55070       -0.24120
C          0.50360        0.51390       -0.62920
C          0.18970        1.79720       -1.17400
S         -1.24300        2.55430       -1.77870
C         -0.29630       -0.60430       -0.40670
C          0.27740       -1.66470        0.25400
C         -0.37020       -2.97320        0.66980
C         -1.67220       -2.70460        1.39410
C         -1.70840       -2.54200        2.77110
C         -2.90360       -2.27490        3.41320
C         -4.08730       -2.15480        2.69810
C         -5.37750       -1.82680        3.39240
C         -5.58310       -0.31180        3.45190
C         -4.04160       -2.29890        1.31740
C         -2.85110       -2.57070        0.67150
C         -0.56500       -3.94450       -0.48600
C          0.00300       -3.73280       -1.73300
C         -0.14360       -4.67540       -2.73540
C         -0.84530       -5.85190       -2.51420
C         -1.03130       -6.85720       -3.61370
C         -2.32870       -6.58180       -4.37650
C         -1.40890       -6.05860       -1.26070
C         -1.27030       -5.12040       -0.25730
C          0.71730       -3.56470        1.52570
C          1.86080       -2.78470        1.46470
C          1.62010       -1.60130        0.70100
C          2.43340       -0.50220        0.43620
S          3.19270       -3.40470        2.38110
C          2.18880       -4.73950        2.88660
C          0.89080       -4.68700        2.33140
S         -0.09910       -5.98330        2.87910
C          1.22310       -6.59020        3.87170
C          2.37460       -5.80720        3.74020
C          1.17830       -7.68550        4.74500
C          0.14650       -8.53380        5.06110
C          0.19680       -9.59960        6.04220
C          1.26090       -9.97170        6.82160
C          2.54310       -9.38290        6.80880
N          3.61080       -8.96300        6.86400
C          1.22330      -11.01620        7.77030
N          1.26830      -11.84940        8.55840
C         -1.12730      -10.22590        6.07430
C         -1.62700      -11.27050        6.83280
C         -2.95400      -11.64280        6.63670
C         -3.77420      -11.00420        5.71350
C         -3.27240       -9.95900        4.95480
C         -1.95710       -9.57920        5.14210
C         -1.19950       -8.50610        4.47460
O         -1.61980       -7.75980        3.60850
Cl        -3.59580      -12.93820        7.57330
Cl        -3.31360       14.15820       -3.27290
H         -4.58280        9.49850       -2.91640
H         -5.04920       11.94540       -3.09110
H         -0.86020       12.78550       -3.22210
H          1.48230        7.94180       -2.43220
H         -1.70400        5.61880       -2.65490
H          4.13860        3.82050       -1.47330
H          5.66460        3.80100       -3.39040
H          6.27260        2.74670       -5.53140
H          5.85020        1.05870       -5.85370
H          7.54250        0.32030       -4.17210
H          7.96430        2.00380       -3.85720
H          8.28810        1.29550       -5.44290
H          4.58140       -0.24190       -4.21010
H          3.04060       -0.22120       -2.30820
H          5.01810        1.54170        0.32020
H          6.03390        2.45540        2.35530
H          4.18200        4.35010        4.92580
H          5.67140        3.46020        4.57780
H          6.10220        5.90710        4.66650
H          6.40030        5.28480        3.03990
H          4.91600        6.17180        3.38390
H          2.39870        4.49270        3.25850
H          1.36990        3.56080        1.24330
H         -1.32870       -0.61860       -0.72010
H         -0.79980       -2.62730        3.34930
H         -2.91620       -2.16230        4.48790
H         -6.21230       -2.28180        2.85550
H         -5.36420       -2.22860        4.40740
H         -6.51440       -0.07380        3.96040
H         -5.61870        0.10520        2.44790
H         -4.76310        0.16020        3.98860
H         -4.95090       -2.20420        0.74100
H         -2.83880       -2.69580       -0.40180
H          0.56300       -2.82980       -1.92810
H          0.30300       -4.49430       -3.70290
H         -1.06950       -7.86330       -3.19130
H         -0.18900       -6.80880       -4.30680
H         -2.46280       -7.30850       -5.17430
H         -3.18200       -6.64140       -3.70460
H         -2.30620       -5.58590       -4.81340
H         -1.95650       -6.96880       -1.06390
H         -1.71260       -5.30030        0.71160
H          3.45760       -0.47610        0.77490
H          3.28580       -6.02330        4.26860
H          2.11810       -7.85210        5.25760
H         -1.02810      -11.79390        7.55930
H         -4.79630      -11.32770        5.59660
H         -3.88660       -9.44490        4.23210
