140
COi8DFIC.sdf
C         -4.57550        6.15270       -5.47130
C         -5.39870        6.19380       -6.56850
C         -5.73230        5.10510       -7.51080
C         -6.84300        5.62470       -8.33980
C         -7.12740        6.95040       -7.97830
C         -6.20520        7.35240       -6.91680
O         -5.23850        4.00240       -7.61790
C         -6.10660        8.62050       -6.40750
C         -5.16620        9.06680       -5.45350
C         -6.93230        9.69540       -6.80340
N         -4.42910        9.52780       -4.70300
N         -7.57020       10.60940       -7.07610
C         -7.54420        4.96340       -9.32870
C         -8.56230        5.65420       -9.96500
C         -8.85700        6.97090       -9.60910
C         -8.14840        7.63550       -8.61930
F         -9.84980        7.61230      -10.23520
F         -9.27190        5.05330      -10.92760
C          1.81390       -6.69450        6.21430
C          2.06090       -6.79150        7.56050
C          2.31940       -5.70620        8.53000
C          2.25340       -6.34310        9.86450
C          2.03860       -7.72280        9.72370
C          1.97610       -8.04160        8.29800
O          2.53530       -4.52990        8.32760
C          1.91390       -9.30980        7.78310
C          1.95450       -9.65690        6.41500
C          1.84110      -10.47820        8.57240
N          1.99800      -10.03790        5.33250
N          1.77400      -11.46590        9.15290
C          2.36730       -5.73750       11.10030
C          2.25480       -6.54200       12.22230
C          2.03470       -7.91380       12.09320
C          1.92620       -8.52180       10.85130
F          1.92230       -8.66590       13.19350
F          2.35480       -5.99880       13.44150
C         -3.73940        5.14350       -4.96420
S         -2.99650        5.48260       -3.39150
C         -2.22670        3.94820       -3.40100
C         -2.52250        3.23210       -4.57660
C         -3.36250        3.89870       -5.45280
C         -1.40300        3.24590       -2.51720
C         -1.08100        1.98570       -3.02180
S         -1.75660        1.67450       -4.59390
O         -1.04180        3.67610       -1.29660
C          0.15210        3.07990       -0.74370
C          0.12610        1.58990       -0.98090
C         -0.38800        1.09740       -2.17070
C          0.13430        3.35570        0.74800
C          1.35930        3.70710       -1.43010
C          0.59780        0.55870       -0.16890
C          0.46970       -0.71290       -0.75530
S         -0.25000       -0.63600       -2.32810
S          1.27480        0.47730        1.42260
C          1.35860       -1.26170        1.28870
C          0.91850       -1.74650        0.06650
C          1.66450       -2.18890        2.30880
C          1.29580       -3.51880        2.10530
O          0.72180       -3.97120        0.97800
C          1.01050       -3.22410       -0.22440
C         -0.04490       -3.60600       -1.24510
C          2.41510       -3.59230       -0.68620
S          2.30280       -1.88150        3.89730
C          2.04170       -3.54270        4.32750
C          1.50670       -4.28310        3.25610
C          2.22890       -4.27550        5.48770
C          1.83260       -5.59840        5.33510
S          1.24520       -5.92190        3.69500
C          1.29130        3.68870        1.43810
C          1.25280        3.87160        2.80800
C          0.06780        3.72650        3.51660
C         -1.08660        3.39960        2.81630
C         -1.05560        3.20970        1.44850
C          1.30740        5.05210       -1.77220
C          2.37800        5.65420       -2.40420
C          3.52640        4.93240       -2.70360
C          3.57620        3.59130       -2.34680
C          2.50540        2.98060       -1.72040
C          3.27540       -2.66460       -1.25580
C          4.54220       -3.04630       -1.65840
C          4.98090       -4.35360       -1.49610
C          4.11160       -5.27760       -0.92980
C          2.84250       -4.90470       -0.53200
C          0.27290       -3.78950       -2.58340
C         -0.72230       -4.07760       -3.49890
C         -2.04860       -4.18730       -3.10360
C         -2.35650       -4.00710       -1.76100
C         -1.36890       -3.71370       -0.84090
C         -3.11670       -4.54340       -4.09590
C         -3.25980       -6.06330       -4.20010
C          6.34180       -4.77230       -1.97120
C          6.27370       -5.25740       -3.42090
C          4.70650        5.59970       -3.34790
C          5.63820        6.17970       -2.28150
C          0.02630        3.96760        4.99730
C         -0.24820        5.44450        5.28840
H         -4.58040        7.03940       -4.84810
H         -7.31200        3.94540       -9.59780
H         -8.41850        8.65110       -8.38210
H          1.51440       -7.61410        5.72500
H          2.53580       -4.67650       11.19340
H          1.75380       -9.58440       10.80770
H         -3.70570        3.51150       -6.39410
H          2.61700       -3.88390        6.40950
H          2.22420        3.80280        0.90680
H          2.16100        4.12680        3.33450
H         -2.01930        3.28410        3.34940
H         -1.95820        2.95140        0.91490
H          0.42010        5.62260       -1.54070
H          2.32000        6.70000       -2.66880
H          4.46270        3.01370       -2.56610
H          2.57000        1.93580       -1.45320
H          2.95880       -1.64100       -1.39370
H          5.20150       -2.31360       -2.10130
H          4.43130       -6.30110       -0.79840
H          2.17260       -5.63070       -0.09550
H          1.29770       -3.70520       -2.91240
H         -0.46280       -4.21480       -4.53850
H         -3.38270       -4.08980       -1.43300
H         -1.62010       -3.57170        0.19970
H         -4.07030       -4.11240       -3.78540
H         -2.86030       -4.13760       -5.07630
H         -4.03160       -6.32380       -4.92030
H         -3.52830       -6.48530       -3.23430
H         -2.32110       -6.51060       -4.51890
H          6.72200       -5.57790       -1.34030
H          7.03320       -3.93000       -1.90540
H          5.59780       -6.10530       -3.50480
H          7.25870       -5.56270       -3.76560
H          5.90900       -4.46370       -4.06920
H          4.36500        6.40370       -4.00250
H          5.25730        4.87630       -3.95220
H          6.49480        6.66110       -2.74700
H          5.11120        6.91540       -1.67840
H          5.99750        5.39170       -1.62330
H         -0.75880        3.35940        5.45040
H          0.98070        3.68360        5.44470
H         -1.20280        5.74340        4.86150
H         -0.27590        5.62160        6.36080
H          0.53030        6.06680        4.85290
