96
CPDT-4F.sdf
C         -9.71740        7.41150        3.23620
C         -9.25990        8.71680        3.12480
C         -7.97740        9.00800        2.66100
C         -7.11270        7.98970        2.29220
C         -7.56920        6.69200        2.40340
C         -8.85850        6.38730        2.87090
C         -6.85760        5.43690        2.08160
C         -7.79100        4.35400        2.39030
C         -9.02820        4.93220        2.86970
C         -7.52900        3.00830        2.26000
C         -6.38450        2.34240        1.81820
C         -6.31920        0.93650        1.77960
C         -5.11710        0.46670        1.31360
C         -4.22950        1.51730        1.00520
S         -4.88320        3.07470        1.26460
C         -4.46410       -0.88080        1.09140
C         -3.09190       -0.44100        0.63200
C         -3.00840        0.95420        0.58870
C         -1.92410       -1.05730        0.20750
C         -0.93990       -0.14330       -0.14290
S         -1.47980        1.51280        0.04170
C          0.37360       -0.42310       -0.58810
S          0.95980       -2.07310       -0.63960
C          2.48160       -1.51540       -1.20650
C          2.53270       -0.12470       -1.34270
C          1.33550        0.48760       -1.00270
C          3.71650       -2.07630       -1.58330
C          4.57460       -1.02980       -1.97720
C          3.88240        0.31220       -1.86730
S          4.43850       -3.62380       -1.64280
C          5.94270       -2.89100       -2.18820
C          5.82400       -1.49300       -2.30540
C          7.14160       -3.54880       -2.46900
C          7.47410       -4.88300       -2.39140
C          8.77130       -5.45070       -2.69050
C          8.68570       -6.89170       -2.44000
C          7.38180       -7.20020       -2.01770
C          6.57720       -5.96080       -1.97450
C          9.62930       -7.90020       -2.55180
C          9.24020       -9.19480       -2.23840
C          7.94230       -9.49050       -1.82270
C          6.99290       -8.48750       -1.70700
F          7.60990      -10.75430       -1.53170
F         10.13800      -10.18160       -2.33910
O          5.40560       -5.87750       -1.65200
C          9.89320       -4.79710       -3.13250
C          9.99400       -3.41430       -3.39140
C         11.12560       -5.43100       -3.39810
C          3.67920        0.97660       -3.24420
C          4.65330        1.18520       -0.85750
C          4.03970        2.55180       -0.58480
C          4.96020        1.41660       -3.93940
C         -5.13210       -1.67030       -0.05260
C         -4.42290       -1.63650        2.43430
C         -3.73650       -2.99490        2.39010
C         -6.55670       -2.12730        0.22960
O         -5.72280        5.34740        1.64820
F        -10.07470        9.71910        3.47330
F         -7.57760       10.28240        2.57110
C        -10.16840        4.27430        3.25530
C        -11.33600        4.91940        3.71540
C        -10.35670        2.87650        3.25280
N        -10.59500        1.75300        3.28080
N        -12.31530        5.37870        4.09900
N         10.15960       -2.30220       -3.62720
N         12.15610       -5.87940       -3.63140
H        -10.71710        7.24280        3.60070
H         -6.12000        8.20880        1.93270
H         -8.32600        2.33330        2.54690
H         -7.14890        0.33380        2.10360
H         -1.76110       -2.11730        0.13280
H          1.13060        1.54190       -1.04960
H          6.65990       -0.88920       -2.61100
H          7.92750       -2.87550       -2.78890
H         10.64480       -7.72720       -2.86770
H          5.98840       -8.71100       -1.38500
H          3.15680        0.25910       -3.88250
H          3.02040        1.83630       -3.11330
H          4.71380        0.62870        0.08150
H          5.67150        1.31030       -1.22790
H          4.66340        3.09040        0.12510
H          3.04760        2.45450       -0.15350
H          3.97260        3.14570       -1.49200
H          5.49740        2.15620       -3.35250
H          5.61440        0.56880       -4.12090
H          4.71290        1.86330       -4.89980
H         -5.13340       -1.02970       -0.93840
H         -4.50810       -2.53640       -0.27770
H         -5.44860       -1.75780        2.78480
H         -3.90490       -0.99940        3.15590
H         -4.23260       -3.66840        1.69690
H         -3.76870       -3.44600        3.37920
H         -2.69460       -2.89580        2.09970
H         -6.93880       -2.66750       -0.63360
H         -7.20840       -1.27750        0.41020
H         -6.59860       -2.79150        1.08810
