CPIC-3.mol
  xtb     01102218033D
 energy: -218.702450677103 gnorm: 0.000262942165 xtb: 6.4.1 (unknown)
123135  0     0  0            999 V2000
   10.7553   -4.3315    4.2383 O   0  0  0  0  0  0  0  0  0  0  0  0
   11.3203   -3.9665    5.2507 C   0  0  0  0  0  0  0  0  0  0  0  0
   12.7304   -4.2695    5.5851 C   0  0  0  0  0  0  0  0  0  0  0  0
   13.6463   -4.9798    4.8351 C   0  0  0  0  0  0  0  0  0  0  0  0
   14.9226   -5.1278    5.3528 C   0  0  0  0  0  0  0  0  0  0  0  0
   15.8454   -5.8083    4.6602 F   0  0  0  0  0  0  0  0  0  0  0  0
   15.2552   -4.5727    6.5881 C   0  0  0  0  0  0  0  0  0  0  0  0
   16.4973   -4.7261    7.0631 F   0  0  0  0  0  0  0  0  0  0  0  0
   14.3326   -3.8617    7.3415 C   0  0  0  0  0  0  0  0  0  0  0  0
   13.0530   -3.7106    6.8304 C   0  0  0  0  0  0  0  0  0  0  0  0
   11.8659   -3.0366    7.3590 C   0  0  0  0  0  0  0  0  0  0  0  0
   11.7948   -2.4508    8.5976 C   0  0  0  0  0  0  0  0  0  0  0  0
   12.8759   -2.3850    9.5022 C   0  0  0  0  0  0  0  0  0  0  0  0
   13.7112   -2.2900   10.2840 N   0  0  0  0  0  0  0  0  0  0  0  0
   10.6581   -1.8518    9.1810 C   0  0  0  0  0  0  0  0  0  0  0  0
    9.7912   -1.3563    9.7496 N   0  0  0  0  0  0  0  0  0  0  0  0
   10.8127   -3.1512    6.3679 C   0  0  0  0  0  0  0  0  0  0  0  0
    9.6006   -2.5041    6.4785 C   0  0  0  0  0  0  0  0  0  0  0  0
    8.4726   -2.4921    5.6534 C   0  0  0  0  0  0  0  0  0  0  0  0
    7.1789   -1.3719    6.1146 S   0  0  0  0  0  0  0  0  0  0  0  0
    8.1368   -3.2011    4.4965 C   0  0  0  0  0  0  0  0  0  0  0  0
    6.9147   -2.8337    3.9812 C   0  0  0  0  0  0  0  0  0  0  0  0
    6.2669   -1.8524    4.7566 C   0  0  0  0  0  0  0  0  0  0  0  0
    5.0356   -1.5389    4.1552 C   0  0  0  0  0  0  0  0  0  0  0  0
    3.7289   -0.4518    4.4157 S   0  0  0  0  0  0  0  0  0  0  0  0
    2.9802   -0.9960    2.9286 C   0  0  0  0  0  0  0  0  0  0  0  0
    1.7746   -0.4123    2.4754 C   0  0  0  0  0  0  0  0  0  0  0  0
    0.9876    0.5295    3.1206 C   0  0  0  0  0  0  0  0  0  0  0  0
   -0.1073    0.9165    2.3599 C   0  0  0  0  0  0  0  0  0  0  0  0
   -1.2574    1.8863    2.4964 C   0  0  0  0  0  0  0  0  0  0  0  0
   -2.2965    1.3989    3.5312 C   0  0  0  0  0  0  0  0  0  0  0  0
   -1.7665    1.2443    4.9501 C   0  0  0  0  0  0  0  0  0  0  0  0
   -0.7784    3.3140    2.7986 C   0  0  0  0  0  0  0  0  0  0  0  0
    0.1674    3.8546    1.7325 C   0  0  0  0  0  0  0  0  0  0  0  0
   -0.1443    0.2854    1.1145 C   0  0  0  0  0  0  0  0  0  0  0  0
   -1.2173    0.8064    0.3611 C   0  0  0  0  0  0  0  0  0  0  0  0
   -1.8785    1.7715    1.1219 C   0  0  0  0  0  0  0  0  0  0  0  0
   -2.9253    2.3716    0.4373 C   0  0  0  0  0  0  0  0  0  0  0  0
   -3.0610    1.8812   -0.8550 C   0  0  0  0  0  0  0  0  0  0  0  0
   -3.9819    2.2948   -1.8488 C   0  0  0  0  0  0  0  0  0  0  0  0
   -5.0014    3.2312   -1.7200 C   0  0  0  0  0  0  0  0  0  0  0  0
   -5.6868    3.4335   -2.9086 C   0  0  0  0  0  0  0  0  0  0  0  0
   -6.8563    4.2727   -3.3763 C   0  0  0  0  0  0  0  0  0  0  0  0
   -6.5462    5.7824   -3.3473 C   0  0  0  0  0  0  0  0  0  0  0  0
   -6.3492    6.3755   -1.9589 C   0  0  0  0  0  0  0  0  0  0  0  0
   -8.1035    3.8724   -2.5635 C   0  0  0  0  0  0  0  0  0  0  0  0
   -9.3897    4.5780   -2.9706 C   0  0  0  0  0  0  0  0  0  0  0  0
   -5.2078    2.6309   -3.9486 C   0  0  0  0  0  0  0  0  0  0  0  0
   -3.8909    1.6396   -3.4684 S   0  0  0  0  0  0  0  0  0  0  0  0
   -5.9591    2.8635   -5.1147 C   0  0  0  0  0  0  0  0  0  0  0  0
   -6.9447    3.8282   -4.8213 C   0  0  0  0  0  0  0  0  0  0  0  0
   -7.6858    4.1514   -5.9292 C   0  0  0  0  0  0  0  0  0  0  0  0
   -7.3035    3.4325   -7.0788 C   0  0  0  0  0  0  0  0  0  0  0  0
   -5.9680    2.3360   -6.7395 S   0  0  0  0  0  0  0  0  0  0  0  0
   -7.9355    3.6255   -8.3066 C   0  0  0  0  0  0  0  0  0  0  0  0
   -7.7084    3.0449   -9.5363 C   0  0  0  0  0  0  0  0  0  0  0  0
   -6.6970    2.0296   -9.8247 C   0  0  0  0  0  0  0  0  0  0  0  0
   -6.8294    1.7200  -11.2647 C   0  0  0  0  0  0  0  0  0  0  0  0
   -7.8605    2.5005  -11.8131 C   0  0  0  0  0  0  0  0  0  0  0  0
   -8.1714    2.3825  -13.1582 C   0  0  0  0  0  0  0  0  0  0  0  0
   -7.4385    1.4837  -13.9202 C   0  0  0  0  0  0  0  0  0  0  0  0
   -7.7241    1.3558  -15.2215 F   0  0  0  0  0  0  0  0  0  0  0  0
   -6.4164    0.7143  -13.3657 C   0  0  0  0  0  0  0  0  0  0  0  0
   -5.7344   -0.1403  -14.1392 F   0  0  0  0  0  0  0  0  0  0  0  0
   -6.0994    0.8258  -12.0211 C   0  0  0  0  0  0  0  0  0  0  0  0
   -5.8984    1.5255   -9.0551 O   0  0  0  0  0  0  0  0  0  0  0  0
   -8.4284    3.3401  -10.7550 C   0  0  0  0  0  0  0  0  0  0  0  0
   -9.4543    4.2347  -10.9302 C   0  0  0  0  0  0  0  0  0  0  0  0
  -10.1037    4.4622  -12.1617 C   0  0  0  0  0  0  0  0  0  0  0  0
  -10.6752    4.6969  -13.1293 N   0  0  0  0  0  0  0  0  0  0  0  0
  -10.0141    5.0562   -9.9302 C   0  0  0  0  0  0  0  0  0  0  0  0
  -10.5266    5.7594   -9.1796 N   0  0  0  0  0  0  0  0  0  0  0  0
   -1.8788    0.6362   -1.2114 S   0  0  0  0  0  0  0  0  0  0  0  0
    1.1424   -0.8253    0.8905 S   0  0  0  0  0  0  0  0  0  0  0  0
    3.7254   -1.9819    2.2970 C   0  0  0  0  0  0  0  0  0  0  0  0
    4.8801   -2.3032    2.9946 C   0  0  0  0  0  0  0  0  0  0  0  0
    6.0581   -3.2296    2.7986 C   0  0  0  0  0  0  0  0  0  0  0  0
    6.7306   -2.9098    1.4491 C   0  0  0  0  0  0  0  0  0  0  0  0
    7.9504   -3.7589    1.1175 C   0  0  0  0  0  0  0  0  0  0  0  0
    5.6572   -4.7102    2.9627 C   0  0  0  0  0  0  0  0  0  0  0  0
    4.7053   -5.2366    1.8974 C   0  0  0  0  0  0  0  0  0  0  0  0
   13.3825   -5.4051    3.8800 H   0  0  0  0  0  0  0  0  0  0  0  0
   14.6436   -3.4527    8.2883 H   0  0  0  0  0  0  0  0  0  0  0  0
    9.4954   -1.8625    7.3452 H   0  0  0  0  0  0  0  0  0  0  0  0
    8.7963   -3.9425    4.0870 H   0  0  0  0  0  0  0  0  0  0  0  0
    1.2411    0.9083    4.0946 H   0  0  0  0  0  0  0  0  0  0  0  0
   -3.1274    2.1075    3.5282 H   0  0  0  0  0  0  0  0  0  0  0  0
   -2.6822    0.4342    3.1917 H   0  0  0  0  0  0  0  0  0  0  0  0
   -2.5709    0.9085    5.6005 H   0  0  0  0  0  0  0  0  0  0  0  0
   -0.9709    0.5054    4.9872 H   0  0  0  0  0  0  0  0  0  0  0  0
   -1.3907    2.1865    5.3392 H   0  0  0  0  0  0  0  0  0  0  0  0
   -0.2666    3.3168    3.7614 H   0  0  0  0  0  0  0  0  0  0  0  0
   -1.6521    3.9643    2.8749 H   0  0  0  0  0  0  0  0  0  0  0  0
    1.0510    3.2261    1.6484 H   0  0  0  0  0  0  0  0  0  0  0  0
    0.4864    4.8606    1.9935 H   0  0  0  0  0  0  0  0  0  0  0  0
   -0.3220    3.8904    0.7619 H   0  0  0  0  0  0  0  0  0  0  0  0
   -3.5569    3.1438    0.8360 H   0  0  0  0  0  0  0  0  0  0  0  0
   -5.2180    3.7183   -0.7876 H   0  0  0  0  0  0  0  0  0  0  0  0
   -5.6385    5.9439   -3.9344 H   0  0  0  0  0  0  0  0  0  0  0  0
   -7.3588    6.3043   -3.8541 H   0  0  0  0  0  0  0  0  0  0  0  0
   -7.2373    6.2535   -1.3451 H   0  0  0  0  0  0  0  0  0  0  0  0
   -6.1444    7.4400   -2.0478 H   0  0  0  0  0  0  0  0  0  0  0  0
   -5.5057    5.9117   -1.4555 H   0  0  0  0  0  0  0  0  0  0  0  0
   -8.2387    2.7937   -2.6776 H   0  0  0  0  0  0  0  0  0  0  0  0
   -7.8992    4.0651   -1.5091 H   0  0  0  0  0  0  0  0  0  0  0  0
  -10.2065    4.2291   -2.3428 H   0  0  0  0  0  0  0  0  0  0  0  0
   -9.6417    4.3583   -4.0039 H   0  0  0  0  0  0  0  0  0  0  0  0
   -9.3083    5.6546   -2.8500 H   0  0  0  0  0  0  0  0  0  0  0  0
   -8.4768    4.8791   -5.9688 H   0  0  0  0  0  0  0  0  0  0  0  0
   -8.7289    4.3616   -8.2630 H   0  0  0  0  0  0  0  0  0  0  0  0
   -8.9505    2.9524  -13.6368 H   0  0  0  0  0  0  0  0  0  0  0  0
   -5.3100    0.2332  -11.5872 H   0  0  0  0  0  0  0  0  0  0  0  0
    3.4142   -2.4135    1.3627 H   0  0  0  0  0  0  0  0  0  0  0  0
    5.9827   -3.0246    0.6626 H   0  0  0  0  0  0  0  0  0  0  0  0
    7.0237   -1.8568    1.4687 H   0  0  0  0  0  0  0  0  0  0  0  0
    8.7273   -3.6420    1.8668 H   0  0  0  0  0  0  0  0  0  0  0  0
    8.3560   -3.4427    0.1590 H   0  0  0  0  0  0  0  0  0  0  0  0
    7.6926   -4.8115    1.0421 H   0  0  0  0  0  0  0  0  0  0  0  0
    5.1873   -4.8191    3.9439 H   0  0  0  0  0  0  0  0  0  0  0  0
    6.5693   -5.3077    2.9694 H   0  0  0  0  0  0  0  0  0  0  0  0
    4.4870   -6.2836    2.0951 H   0  0  0  0  0  0  0  0  0  0  0  0
    5.1412   -5.1644    0.9050 H   0  0  0  0  0  0  0  0  0  0  0  0
    3.7670   -4.6886    1.9098 H   0  0  0  0  0  0  0  0  0  0  0  0
  1  2  2  0  0  0  0
  2  3  1  0  0  0  0
  3  4  2  0  0  0  0
  4  5  1  0  0  0  0
  5  6  1  0  0  0  0
  5  7  2  0  0  0  0
  7  8  1  0  0  0  0
  7  9  1  0  0  0  0
  9 10  2  0  0  0  0
  3 10  1  0  0  0  0
 10 11  1  0  0  0  0
 11 12  2  0  0  0  0
 12 13  1  0  0  0  0
 13 14  3  0  0  0  0
 12 15  1  0  0  0  0
 15 16  3  0  0  0  0
  2 17  1  0  0  0  0
 11 17  1  0  0  0  0
 17 18  2  0  0  0  0
 18 19  1  0  0  0  0
 19 20  1  0  0  0  0
 19 21  2  0  0  0  0
 21 22  1  0  0  0  0
 22 23  2  0  0  0  0
 20 23  1  0  0  0  0
 23 24  1  0  0  0  0
 24 25  1  0  0  0  0
 25 26  1  0  0  0  0
 26 27  1  0  0  0  0
 27 28  2  0  0  0  0
 28 29  1  0  0  0  0
 29 30  1  0  0  0  0
 30 31  1  0  0  0  0
 31 32  1  0  0  0  0
 30 33  1  0  0  0  0
 33 34  1  0  0  0  0
 29 35  2  0  0  0  0
 35 36  1  0  0  0  0
 36 37  2  0  0  0  0
 30 37  1  0  0  0  0
 37 38  1  0  0  0  0
 38 39  2  0  0  0  0
 39 40  1  0  0  0  0
 40 41  2  0  0  0  0
 41 42  1  0  0  0  0
 42 43  1  0  0  0  0
 43 44  1  0  0  0  0
 44 45  1  0  0  0  0
 43 46  1  0  0  0  0
 46 47  1  0  0  0  0
 42 48  2  0  0  0  0
 48 49  1  0  0  0  0
 40 49  1  0  0  0  0
 48 50  1  0  0  0  0
 50 51  2  0  0  0  0
 43 51  1  0  0  0  0
 51 52  1  0  0  0  0
 52 53  2  0  0  0  0
 53 54  1  0  0  0  0
 50 54  1  0  0  0  0
 53 55  1  0  0  0  0
 55 56  2  0  0  0  0
 56 57  1  0  0  0  0
 57 58  1  0  0  0  0
 58 59  2  0  0  0  0
 59 60  1  0  0  0  0
 60 61  2  0  0  0  0
 61 62  1  0  0  0  0
 61 63  1  0  0  0  0
 63 64  1  0  0  0  0
 63 65  2  0  0  0  0
 58 65  1  0  0  0  0
 57 66  2  0  0  0  0
 56 67  1  0  0  0  0
 59 67  1  0  0  0  0
 67 68  2  0  0  0  0
 68 69  1  0  0  0  0
 69 70  3  0  0  0  0
 68 71  1  0  0  0  0
 71 72  3  0  0  0  0
 39 73  1  0  0  0  0
 36 73  1  0  0  0  0
 35 74  1  0  0  0  0
 27 74  1  0  0  0  0
 26 75  2  0  0  0  0
 24 76  2  0  0  0  0
 75 76  1  0  0  0  0
 76 77  1  0  0  0  0
 22 77  1  0  0  0  0
 77 78  1  0  0  0  0
 78 79  1  0  0  0  0
 77 80  1  0  0  0  0
 80 81  1  0  0  0  0
  4 82  1  0  0  0  0
  9 83  1  0  0  0  0
 18 84  1  0  0  0  0
 21 85  1  0  0  0  0
 28 86  1  0  0  0  0
 31 87  1  0  0  0  0
 31 88  1  0  0  0  0
 32 89  1  0  0  0  0
 32 90  1  0  0  0  0
 32 91  1  0  0  0  0
 33 92  1  0  0  0  0
 33 93  1  0  0  0  0
 34 94  1  0  0  0  0
 34 95  1  0  0  0  0
 34 96  1  0  0  0  0
 38 97  1  0  0  0  0
 41 98  1  0  0  0  0
 44 99  1  0  0  0  0
 44100  1  0  0  0  0
 45101  1  0  0  0  0
 45102  1  0  0  0  0
 45103  1  0  0  0  0
 46104  1  0  0  0  0
 46105  1  0  0  0  0
 47106  1  0  0  0  0
 47107  1  0  0  0  0
 47108  1  0  0  0  0
 52109  1  0  0  0  0
 55110  1  0  0  0  0
 60111  1  0  0  0  0
 65112  1  0  0  0  0
 75113  1  0  0  0  0
 78114  1  0  0  0  0
 78115  1  0  0  0  0
 79116  1  0  0  0  0
 79117  1  0  0  0  0
 79118  1  0  0  0  0
 80119  1  0  0  0  0
 80120  1  0  0  0  0
 81121  1  0  0  0  0
 81122  1  0  0  0  0
 81123  1  0  0  0  0
M  END
