69
CPIC-1.sdf
C         -1.95770        4.42330        2.37350
O         -0.88610        4.03280        2.78560
C         -2.54260        5.75590        2.64200
C         -1.97260        6.81070        3.32760
C         -2.70840        7.97950        3.43380
C         -3.97970        8.07400        2.86490
C         -4.55450        7.01160        2.18350
C         -3.82330        5.83890        2.07350
C         -4.13070        4.56130        1.43450
C         -5.35600        4.19920        0.94330
C         -5.69330        2.92130        0.44520
N         -6.05510        1.90650        0.04900
C         -6.47990        5.05390        0.92500
N         -7.42300        5.70530        0.87530
C         -2.93960        3.73010        1.51120
C         -2.76450        2.59810        0.75700
C          1.92410       -4.46480       -3.79480
O          0.92330       -3.77630       -3.72610
C          2.28080       -5.38120       -4.89640
C          1.58220       -5.63520       -6.06000
C          2.13450       -6.53630       -6.95610
C          3.35370       -7.15670       -6.67930
C          4.05280       -6.90300       -5.50820
C          3.50660       -6.00380       -4.60570
C          3.98320       -5.52630       -3.30640
C          5.13210       -5.94230       -2.68740
C          6.02770       -6.88770       -3.23350
N          6.79750       -7.64600       -3.61910
C          5.59520       -5.50710       -1.42710
N          6.04180       -5.20960       -0.41180
C          3.01620       -4.55980       -2.82080
C          3.12080       -3.83040       -1.66230
C          2.27900       -2.84870       -1.12340
S          0.76060       -2.27910       -1.79600
C          0.61980       -1.16600       -0.50640
C          1.69080       -1.21000        0.40760
C          2.60920       -2.17350        0.06510
C         -0.28430       -0.17000       -0.08600
C          0.20060        0.43340        1.08690
C          1.50220       -0.20210        1.52010
S         -1.74920        0.51560       -0.62730
C         -1.70370        1.67790        0.70060
C         -0.59030        1.47960        1.51730
C          2.60010        0.88030        1.53330
C          3.98670        0.38820        1.92450
C          1.35570       -0.96160        2.85510
C          1.08890       -0.07850        4.06630
F          3.86570       -8.01820       -7.56360
F          1.49530       -6.81260       -8.09760
F         -2.19460        9.02960        4.08400
F         -4.66240        9.21780        2.97470
H         -0.98950        6.73350        3.76380
H         -5.53720        7.13620        1.75950
H         -3.55190        2.38120        0.04380
H          0.64130       -5.15180       -6.26950
H          4.99010       -7.40870       -5.34450
H          4.00040       -4.00940       -1.05590
H          3.49940       -2.41900        0.61600
H         -0.39490        2.10590        2.36720
H          2.28590        1.66930        2.21750
H          2.64650        1.31640        0.53210
H          4.34610       -0.36300        1.22710
H          3.99240       -0.03110        2.92640
H          4.68200        1.22420        1.90560
H          2.26530       -1.54120        3.01730
H          0.53190       -1.67140        2.74310
H          0.99150       -0.70320        4.95130
H          1.90240        0.62090        4.23530
H          0.16620        0.48160        3.94510
