123
CPIC-3.mol
O         10.75530       -4.33150        4.23830
C         11.32030       -3.96650        5.25070
C         12.73040       -4.26950        5.58510
C         13.64630       -4.97980        4.83510
C         14.92260       -5.12780        5.35280
F         15.84540       -5.80830        4.66020
C         15.25520       -4.57270        6.58810
F         16.49730       -4.72610        7.06310
C         14.33260       -3.86170        7.34150
C         13.05300       -3.71060        6.83040
C         11.86590       -3.03660        7.35900
C         11.79480       -2.45080        8.59760
C         12.87590       -2.38500        9.50220
N         13.71120       -2.29000       10.28400
C         10.65810       -1.85180        9.18100
N          9.79120       -1.35630        9.74960
C         10.81270       -3.15120        6.36790
C          9.60060       -2.50410        6.47850
C          8.47260       -2.49210        5.65340
S          7.17890       -1.37190        6.11460
C          8.13680       -3.20110        4.49650
C          6.91470       -2.83370        3.98120
C          6.26690       -1.85240        4.75660
C          5.03560       -1.53890        4.15520
S          3.72890       -0.45180        4.41570
C          2.98020       -0.99600        2.92860
C          1.77460       -0.41230        2.47540
C          0.98760        0.52950        3.12060
C         -0.10730        0.91650        2.35990
C         -1.25740        1.88630        2.49640
C         -2.29650        1.39890        3.53120
C         -1.76650        1.24430        4.95010
C         -0.77840        3.31400        2.79860
C          0.16740        3.85460        1.73250
C         -0.14430        0.28540        1.11450
C         -1.21730        0.80640        0.36110
C         -1.87850        1.77150        1.12190
C         -2.92530        2.37160        0.43730
C         -3.06100        1.88120       -0.85500
C         -3.98190        2.29480       -1.84880
C         -5.00140        3.23120       -1.72000
C         -5.68680        3.43350       -2.90860
C         -6.85630        4.27270       -3.37630
C         -6.54620        5.78240       -3.34730
C         -6.34920        6.37550       -1.95890
C         -8.10350        3.87240       -2.56350
C         -9.38970        4.57800       -2.97060
C         -5.20780        2.63090       -3.94860
S         -3.89090        1.63960       -3.46840
C         -5.95910        2.86350       -5.11470
C         -6.94470        3.82820       -4.82130
C         -7.68580        4.15140       -5.92920
C         -7.30350        3.43250       -7.07880
S         -5.96800        2.33600       -6.73950
C         -7.93550        3.62550       -8.30660
C         -7.70840        3.04490       -9.53630
C         -6.69700        2.02960       -9.82470
C         -6.82940        1.72000      -11.26470
C         -7.86050        2.50050      -11.81310
C         -8.17140        2.38250      -13.15820
C         -7.43850        1.48370      -13.92020
F         -7.72410        1.35580      -15.22150
C         -6.41640        0.71430      -13.36570
F         -5.73440       -0.14030      -14.13920
C         -6.09940        0.82580      -12.02110
O         -5.89840        1.52550       -9.05510
C         -8.42840        3.34010      -10.75500
C         -9.45430        4.23470      -10.93020
C        -10.10370        4.46220      -12.16170
N        -10.67520        4.69690      -13.12930
C        -10.01410        5.05620       -9.93020
N        -10.52660        5.75940       -9.17960
S         -1.87880        0.63620       -1.21140
S          1.14240       -0.82530        0.89050
C          3.72540       -1.98190        2.29700
C          4.88010       -2.30320        2.99460
C          6.05810       -3.22960        2.79860
C          6.73060       -2.90980        1.44910
C          7.95040       -3.75890        1.11750
C          5.65720       -4.71020        2.96270
C          4.70530       -5.23660        1.89740
H         13.38250       -5.40510        3.88000
H         14.64360       -3.45270        8.28830
H          9.49540       -1.86250        7.34520
H          8.79630       -3.94250        4.08700
H          1.24110        0.90830        4.09460
H         -3.12740        2.10750        3.52820
H         -2.68220        0.43420        3.19170
H         -2.57090        0.90850        5.60050
H         -0.97090        0.50540        4.98720
H         -1.39070        2.18650        5.33920
H         -0.26660        3.31680        3.76140
H         -1.65210        3.96430        2.87490
H          1.05100        3.22610        1.64840
H          0.48640        4.86060        1.99350
H         -0.32200        3.89040        0.76190
H         -3.55690        3.14380        0.83600
H         -5.21800        3.71830       -0.78760
H         -5.63850        5.94390       -3.93440
H         -7.35880        6.30430       -3.85410
H         -7.23730        6.25350       -1.34510
H         -6.14440        7.44000       -2.04780
H         -5.50570        5.91170       -1.45550
H         -8.23870        2.79370       -2.67760
H         -7.89920        4.06510       -1.50910
H        -10.20650        4.22910       -2.34280
H         -9.64170        4.35830       -4.00390
H         -9.30830        5.65460       -2.85000
H         -8.47680        4.87910       -5.96880
H         -8.72890        4.36160       -8.26300
H         -8.95050        2.95240      -13.63680
H         -5.31000        0.23320      -11.58720
H          3.41420       -2.41350        1.36270
H          5.98270       -3.02460        0.66260
H          7.02370       -1.85680        1.46870
H          8.72730       -3.64200        1.86680
H          8.35600       -3.44270        0.15900
H          7.69260       -4.81150        1.04210
H          5.18730       -4.81910        3.94390
H          6.56930       -5.30770        2.96940
H          4.48700       -6.28360        2.09510
H          5.14120       -5.16440        0.90500
H          3.76700       -4.68860        1.90980
