150
CRIC.sdf
C          4.76590       -1.14780        3.87470
C          5.59400       -2.02170        4.60100
C          6.59850       -1.78570        5.50390
C          7.31340       -2.84720        6.19500
C          8.40910       -2.23470        6.94440
C          8.34320       -0.84230        6.77710
C          7.21130       -0.49570        5.89570
C          9.41240       -2.78120        7.72990
C         10.32290       -1.92410        8.33400
C         10.24600       -0.54870        8.16810
C          9.24870        0.00820        7.38070
O          6.89850        0.63260        5.57100
C          7.01160       -4.18440        6.21060
C          5.92500       -4.81170        5.56410
C          7.75140       -5.15480        6.92000
N          5.06690       -5.41360        5.09330
N          8.30100       -6.00330        7.46450
C         -7.25060        0.49880       -2.50910
C         -8.43790        0.11610       -3.07740
C         -9.65980        0.89930       -2.97270
C        -10.74890        0.10700       -3.54190
C        -10.21560       -1.08780       -4.05030
C         -8.75880       -1.12610       -3.81750
C        -12.11120        0.34410       -3.64470
C        -12.90690       -0.61490       -4.25780
C        -12.36930       -1.78980       -4.76370
C        -11.00820       -2.03870       -4.66270
O         -8.01670       -2.01530       -4.18440
C         -9.79910        2.17050       -2.47900
C         -8.77210        3.00010       -1.97980
C        -11.02540        2.86740       -2.42220
N         -8.01170        3.75770       -1.56940
N        -11.97970        3.50060       -2.34160
S          3.63270       -1.88700        2.75340
C          3.00200       -0.34160        2.31640
C          3.64280        0.68450        2.99210
C          4.62180        0.23060        3.87010
C          1.88890       -0.13470        1.44860
C          1.32770        1.18280        1.40700
C          1.96280        2.26770        2.04850
C          3.33910        2.12310        2.67270
C          3.40770        2.96720        3.93450
C          4.41890        2.50810        1.65510
C          0.10720        1.37030        0.71480
C         -0.46380        2.65310        0.71930
C          0.14570        3.69360        1.37340
C          1.36000        3.50680        2.02750
C          1.32760       -1.16110        0.72810
C          0.16790       -0.98720       -0.04440
C         -0.48960        0.26420        0.00570
C         -0.36610       -2.05650       -0.85290
C         -1.58050       -1.86540       -1.55460
C         -2.28760       -0.63390       -1.36460
C         -1.73750        0.38610       -0.62670
C          0.29530       -3.28630       -1.00130
C         -0.22000       -4.27130       -1.80520
C         -1.39930       -4.06360       -2.51470
C         -2.08350       -2.87240       -2.40580
C         -3.30330       -2.63610       -3.27810
C         -4.15070       -1.51740       -2.73520
C         -3.60180       -0.54690       -1.91260
C         -2.86860       -2.14140       -4.66180
C         -4.11830       -3.91700       -3.35660
C         -5.48490       -1.27620       -3.04730
C         -5.98620       -0.11630       -2.47820
S         -4.74100        0.69390       -1.53900
C         -3.81680       -2.02400       -5.67320
C         -3.46460       -1.54500       -6.91950
C         -2.15930       -1.15630       -7.19330
C         -1.21890       -1.26430       -6.17960
C         -1.56600       -1.74530       -4.92910
C         -4.94790       -4.25510       -2.29460
C         -5.69680       -5.41520       -2.32620
C         -5.62740       -6.27800       -3.41210
C         -4.77300       -5.95400       -4.45660
C         -4.02350       -4.79220       -4.42990
C          3.98240        4.23060        3.95210
C          4.00260        4.97650        5.11650
C          3.44290        4.48830        6.28890
C          2.84800        3.23370        6.26150
C          2.82400        2.48620        5.10020
C          5.74420        2.60020        2.06870
C          6.74640        2.89620        1.16610
C          6.46070        3.10280       -0.17770
C          5.13980        3.00060       -0.58820
C          4.13090        2.70530        0.31220
C          3.52070        5.27450        7.56540
C          4.78280        4.89750        8.34410
C          7.55740        3.37440       -1.16650
C          8.08340        2.06270       -1.75300
C         -6.49680       -7.49970       -3.47940
C         -7.84060       -7.15110       -4.12300
C         -1.76760       -0.68140       -8.56260
C         -1.32670       -1.86230       -9.43000
H          5.38810       -3.06460        4.39000
H          9.50140       -3.84490        7.87600
H         11.10740       -2.34230        8.94670
H         10.96800        0.08990        8.65440
H          9.16850        1.07450        7.23450
H         -7.27340        1.43240       -1.95920
H        -12.56040        1.24470       -3.26010
H        -13.96870       -0.43790       -4.34060
H        -13.01570       -2.51370       -5.23670
H        -10.56530       -2.94530       -5.04570
H          5.20750        0.86510        4.50790
H         -1.38580        2.84340        0.19550
H         -0.30890        4.67280        1.36870
H          1.83700        4.34490        2.51160
H          1.80160       -2.12770        0.79280
H         -2.31420        1.29210       -0.52840
H          1.22770       -3.47070       -0.49420
H          0.29990       -5.21220       -1.90490
H         -1.77240       -4.84050       -3.16390
H         -6.09640       -1.92490       -3.64550
H         -4.83880       -2.31900       -5.49120
H         -4.21790       -1.46750       -7.69050
H         -0.19700       -0.96500       -6.36520
H         -0.80550       -1.81160       -4.16580
H         -5.01120       -3.60200       -1.43550
H         -6.34450       -5.65470       -1.49500
H         -4.69150       -6.61890       -5.30500
H         -3.36500       -4.56560       -5.25610
H          4.42170        4.63740        3.05260
H          4.46010        5.95580        5.11130
H          2.39520        2.83830        7.15970
H          2.34650        1.51630        5.09880
H          5.99890        2.44770        3.10610
H          7.76760        2.96720        1.51240
H          4.89040        3.15460       -1.62850
H          3.11520        2.63530       -0.04670
H          3.54070        6.34330        7.34280
H          2.64270        5.06970        8.18150
H          5.66940        5.10660        7.74980
H          4.84270        5.46390        9.27070
H          4.77610        3.83660        8.58380
H          8.37680        3.90250       -0.67490
H          7.18010        4.00410       -1.97480
H          8.47490        1.42560       -0.96300
H          8.87850        2.25710       -2.46910
H          7.28320        1.52680       -2.25860
H         -6.00460       -8.27600       -4.06900
H         -6.66850       -7.89030       -2.47430
H         -8.34450       -6.37810       -3.54700
H         -7.68860       -6.77750       -5.13310
H         -8.48230       -8.02800       -4.16800
H         -2.61440       -0.18220       -9.03780
H         -0.94700        0.03480       -8.48580
H         -2.13580       -2.58300       -9.52650
H         -1.04470       -1.52130      -10.42340
H         -0.47350       -2.36450       -8.97940
