CTIC-4F.sdf
  xtb     12202114003D
 energy: -163.412801689479 gnorm: 0.000343765190 xtb: 6.4.1 (unknown)
 83 91  0     0  0            999 V2000
   -0.7106   -2.2141    8.6316 C   0  0  0  0  0  0  0  0  0  0  0  0
   -0.9969   -2.3707    7.4582 O   0  0  0  0  0  0  0  0  0  0  0  0
   -0.5254   -3.2862    9.6318 C   0  0  0  0  0  0  0  0  0  0  0  0
   -0.5992   -4.6524    9.4484 C   0  0  0  0  0  0  0  0  0  0  0  0
   -0.3657   -5.4614   10.5489 C   0  0  0  0  0  0  0  0  0  0  0  0
   -0.0688   -4.9015   11.7915 C   0  0  0  0  0  0  0  0  0  0  0  0
    0.0010   -3.5281   11.9754 C   0  0  0  0  0  0  0  0  0  0  0  0
   -0.2311   -2.7119   10.8797 C   0  0  0  0  0  0  0  0  0  0  0  0
   -0.2239   -1.2542   10.7376 C   0  0  0  0  0  0  0  0  0  0  0  0
   -0.0213   -0.3656   11.7613 C   0  0  0  0  0  0  0  0  0  0  0  0
    0.2213   -0.7433   13.0995 C   0  0  0  0  0  0  0  0  0  0  0  0
    0.4243   -0.9822   14.2035 N   0  0  0  0  0  0  0  0  0  0  0  0
   -0.0340    1.0408   11.6483 C   0  0  0  0  0  0  0  0  0  0  0  0
   -0.0323    2.1894   11.6459 N   0  0  0  0  0  0  0  0  0  0  0  0
   -0.4794   -0.9554    9.3431 C   0  0  0  0  0  0  0  0  0  0  0  0
   -0.4509    0.2945    8.7704 C   0  0  0  0  0  0  0  0  0  0  0  0
   -0.6112    0.6826    7.4364 C   0  0  0  0  0  0  0  0  0  0  0  0
   -0.4419    2.0088    7.0191 C   0  0  0  0  0  0  0  0  0  0  0  0
   -0.5700    2.1910    5.6606 C   0  0  0  0  0  0  0  0  0  0  0  0
   -0.8651    1.0078    4.9873 C   0  0  0  0  0  0  0  0  0  0  0  0
   -0.9762   -0.3419    6.0689 S   0  0  0  0  0  0  0  0  0  0  0  0
   -0.9384    1.1106    1.1586 C   0  0  0  0  0  0  0  0  0  0  0  0
   -1.4010   -0.1513    1.5448 C   0  0  0  0  0  0  0  0  0  0  0  0
   -1.6703   -1.0160    0.3322 C   0  0  0  0  0  0  0  0  0  0  0  0
   -3.1707   -1.3329    0.1697 C   0  0  0  0  0  0  0  0  0  0  0  0
   -3.7609   -2.2122    1.2635 C   0  0  0  0  0  0  0  0  0  0  0  0
   -0.7711   -2.2655    0.4142 C   0  0  0  0  0  0  0  0  0  0  0  0
   -0.8821   -3.2227   -0.7645 C   0  0  0  0  0  0  0  0  0  0  0  0
   -1.2516   -0.0714   -0.7749 C   0  0  0  0  0  0  0  0  0  0  0  0
   -0.8384    1.1564   -0.2464 C   0  0  0  0  0  0  0  0  0  0  0  0
   -0.3945    1.3833   -4.0432 C   0  0  0  0  0  0  0  0  0  0  0  0
   -0.7072    0.6135   -5.1630 C   0  0  0  0  0  0  0  0  0  0  0  0
   -0.2463    1.1739   -6.3332 C   0  0  0  0  0  0  0  0  0  0  0  0
    0.4430    2.3807   -6.1589 C   0  0  0  0  0  0  0  0  0  0  0  0
    0.4822    2.8148   -4.4683 S   0  0  0  0  0  0  0  0  0  0  0  0
    1.0188    3.0740   -7.2292 C   0  0  0  0  0  0  0  0  0  0  0  0
    1.7639    4.2296   -7.2408 C   0  0  0  0  0  0  0  0  0  0  0  0
    2.3535    4.8506   -8.4096 C   0  0  0  0  0  0  0  0  0  0  0  0
    2.2473    4.4486   -9.7157 C   0  0  0  0  0  0  0  0  0  0  0  0
    2.8572    5.1150  -10.8003 C   0  0  0  0  0  0  0  0  0  0  0  0
    3.3280    5.6059  -11.7247 N   0  0  0  0  0  0  0  0  0  0  0  0
    1.5223    3.3305  -10.1793 C   0  0  0  0  0  0  0  0  0  0  0  0
    0.9569    2.4431  -10.6401 N   0  0  0  0  0  0  0  0  0  0  0  0
    3.1034    6.0222   -7.9505 C   0  0  0  0  0  0  0  0  0  0  0  0
    3.8656    6.9524   -8.6395 C   0  0  0  0  0  0  0  0  0  0  0  0
    4.4680    7.9688   -7.9121 C   0  0  0  0  0  0  0  0  0  0  0  0
    4.3212    8.0682   -6.5284 C   0  0  0  0  0  0  0  0  0  0  0  0
    3.5614    7.1423   -5.8318 C   0  0  0  0  0  0  0  0  0  0  0  0
    2.9641    6.1307   -6.5568 C   0  0  0  0  0  0  0  0  0  0  0  0
    2.1187    5.0243   -6.0627 C   0  0  0  0  0  0  0  0  0  0  0  0
    1.7955    4.8321   -4.9048 O   0  0  0  0  0  0  0  0  0  0  0  0
   -0.3251    2.2661   -1.4448 S   0  0  0  0  0  0  0  0  0  0  0  0
   -0.6794    1.0854   -2.6893 C   0  0  0  0  0  0  0  0  0  0  0  0
   -1.1843   -0.0968   -2.1598 C   0  0  0  0  0  0  0  0  0  0  0  0
   -1.4203   -0.3075    2.9224 C   0  0  0  0  0  0  0  0  0  0  0  0
   -1.0114    0.8381    3.5923 C   0  0  0  0  0  0  0  0  0  0  0  0
   -0.5877    2.1333    2.4865 S   0  0  0  0  0  0  0  0  0  0  0  0
    5.2093    8.8747   -8.5592 F   0  0  0  0  0  0  0  0  0  0  0  0
    4.9207    9.0659   -5.8679 F   0  0  0  0  0  0  0  0  0  0  0  0
   -0.4223   -6.7923   10.4171 F   0  0  0  0  0  0  0  0  0  0  0  0
    0.1577   -5.7060   12.8357 F   0  0  0  0  0  0  0  0  0  0  0  0
   -0.8268   -5.0804    8.4853 H   0  0  0  0  0  0  0  0  0  0  0  0
    0.2356   -3.1479   12.9559 H   0  0  0  0  0  0  0  0  0  0  0  0
   -0.2352    1.1267    9.4293 H   0  0  0  0  0  0  0  0  0  0  0  0
   -0.2185    2.7970    7.7165 H   0  0  0  0  0  0  0  0  0  0  0  0
   -0.4617    3.1357    5.1574 H   0  0  0  0  0  0  0  0  0  0  0  0
   -3.7084   -0.3814    0.1492 H   0  0  0  0  0  0  0  0  0  0  0  0
   -3.3148   -1.8092   -0.8011 H   0  0  0  0  0  0  0  0  0  0  0  0
   -4.8187   -2.3709    1.0664 H   0  0  0  0  0  0  0  0  0  0  0  0
   -3.6663   -1.7377    2.2360 H   0  0  0  0  0  0  0  0  0  0  0  0
   -3.2754   -3.1834    1.2980 H   0  0  0  0  0  0  0  0  0  0  0  0
    0.2634   -1.9225    0.4970 H   0  0  0  0  0  0  0  0  0  0  0  0
   -1.0135   -2.7949    1.3365 H   0  0  0  0  0  0  0  0  0  0  0  0
   -0.2205   -4.0705   -0.6018 H   0  0  0  0  0  0  0  0  0  0  0  0
   -1.8942   -3.6019   -0.8752 H   0  0  0  0  0  0  0  0  0  0  0  0
   -0.5841   -2.7370   -1.6891 H   0  0  0  0  0  0  0  0  0  0  0  0
   -1.2550   -0.3100   -5.1135 H   0  0  0  0  0  0  0  0  0  0  0  0
   -0.3851    0.7375   -7.3070 H   0  0  0  0  0  0  0  0  0  0  0  0
    0.8517    2.5920   -8.1847 H   0  0  0  0  0  0  0  0  0  0  0  0
    4.0124    6.9222   -9.7065 H   0  0  0  0  0  0  0  0  0  0  0  0
    3.4450    7.2131   -4.7621 H   0  0  0  0  0  0  0  0  0  0  0  0
   -1.4698   -0.9253   -2.7809 H   0  0  0  0  0  0  0  0  0  0  0  0
   -1.6992   -1.1985    3.4554 H   0  0  0  0  0  0  0  0  0  0  0  0
  1  2  2  0  0  0  0
  1  3  1  0  0  0  0
  3  4  2  0  0  0  0
  4  5  1  0  0  0  0
  5  6  2  0  0  0  0
  6  7  1  0  0  0  0
  7  8  2  0  0  0  0
  3  8  1  0  0  0  0
  8  9  1  0  0  0  0
  9 10  2  0  0  0  0
 10 11  1  0  0  0  0
 11 12  3  0  0  0  0
 10 13  1  0  0  0  0
 13 14  3  0  0  0  0
  9 15  1  0  0  0  0
  1 15  1  0  0  0  0
 15 16  2  0  0  0  0
 16 17  1  0  0  0  0
 17 18  2  0  0  0  0
 18 19  1  0  0  0  0
 19 20  2  0  0  0  0
 20 21  1  0  0  0  0
 17 21  1  0  0  0  0
 22 23  2  0  0  0  0
 23 24  1  0  0  0  0
 24 25  1  0  0  0  0
 25 26  1  0  0  0  0
 24 27  1  0  0  0  0
 27 28  1  0  0  0  0
 24 29  1  0  0  0  0
 29 30  2  0  0  0  0
 22 30  1  0  0  0  0
 31 32  2  0  0  0  0
 32 33  1  0  0  0  0
 33 34  2  0  0  0  0
 34 35  1  0  0  0  0
 31 35  1  0  0  0  0
 34 36  1  0  0  0  0
 36 37  2  0  0  0  0
 37 38  1  0  0  0  0
 38 39  2  0  0  0  0
 39 40  1  0  0  0  0
 40 41  3  0  0  0  0
 39 42  1  0  0  0  0
 42 43  3  0  0  0  0
 38 44  1  0  0  0  0
 44 45  2  0  0  0  0
 45 46  1  0  0  0  0
 46 47  2  0  0  0  0
 47 48  1  0  0  0  0
 48 49  2  0  0  0  0
 44 49  1  0  0  0  0
 49 50  1  0  0  0  0
 37 50  1  0  0  0  0
 50 51  2  0  0  0  0
 30 52  1  0  0  0  0
 52 53  1  0  0  0  0
 53 54  2  0  0  0  0
 54 29  1  0  0  0  0
 23 55  1  0  0  0  0
 55 56  2  0  0  0  0
 56 57  1  0  0  0  0
 57 22  1  0  0  0  0
 56 20  1  0  0  0  0
 53 31  1  0  0  0  0
 46 58  1  0  0  0  0
 47 59  1  0  0  0  0
  5 60  1  0  0  0  0
  6 61  1  0  0  0  0
  4 62  1  0  0  0  0
  7 63  1  0  0  0  0
 16 64  1  0  0  0  0
 18 65  1  0  0  0  0
 19 66  1  0  0  0  0
 25 67  1  0  0  0  0
 25 68  1  0  0  0  0
 26 69  1  0  0  0  0
 26 70  1  0  0  0  0
 26 71  1  0  0  0  0
 27 72  1  0  0  0  0
 27 73  1  0  0  0  0
 28 74  1  0  0  0  0
 28 75  1  0  0  0  0
 28 76  1  0  0  0  0
 32 77  1  0  0  0  0
 33 78  1  0  0  0  0
 36 79  1  0  0  0  0
 45 80  1  0  0  0  0
 48 81  1  0  0  0  0
 54 82  1  0  0  0  0
 55 83  1  0  0  0  0
M  END
