72
Cz-RH.sdf
C          6.54020       -0.81070        1.81140
C          5.98310        0.45430        1.72340
C          4.73870        0.46970        1.10320
C          4.31140       -0.77690        0.69010
S          5.48570       -1.99110        1.08430
C          3.07570       -1.12880        0.03000
C          2.96180       -2.36540       -0.63270
C          1.79930       -2.74260       -1.26200
C          0.70860       -1.87920       -1.23200
C          0.81630       -0.63180       -0.56340
C          1.98990       -0.25290        0.06370
N         -0.37730        0.04070       -0.65810
C         -0.68310        1.31050       -0.05310
C         -1.23590        1.14450        1.36130
C         -1.26930       -0.75180       -1.33630
C         -0.62750       -1.95380       -1.73280
C         -1.33830       -2.90950       -2.45210
C         -2.65830       -2.67190       -2.75680
C         -3.30430       -1.48860       -2.34940
C         -2.59900       -0.52070       -1.63420
C         -4.70300       -1.27840       -2.63910
C         -5.51370       -1.93720       -3.54170
C         -6.82870       -1.48320       -3.54400
C         -7.06530       -0.46700       -2.63300
S         -5.60230       -0.07010       -1.77640
C         -8.29800        0.17040       -2.38700
C         -8.56340        1.14070       -1.47600
S         -7.43620        1.87890       -0.36390
C         -8.70600        2.88660        0.32910
N         -9.89170        2.64260       -0.27920
C         -9.90220        1.69870       -1.29510
S         -8.45550        3.94600        1.54370
C        -11.10530        3.34810        0.08500
C        -11.17820        4.71090       -0.59170
O        -10.89620        1.39280       -1.91510
C          7.77480       -1.13440        2.40970
C          8.33990       -2.35940        2.55140
C          9.62690       -2.54750        3.21970
N          9.96010       -3.89240        3.24060
C          9.08630       -4.75730        2.66950
S          7.69480       -3.89230        2.01780
S          9.27340       -6.37440        2.57140
C         11.17770       -4.33930        3.88930
C         10.90470       -4.79900        5.31610
O         10.32300       -1.67620        3.69160
H          6.47680        1.33020        2.10550
H          4.17500        1.37060        0.94080
H          3.81750       -3.02400       -0.64330
H          1.72940       -3.69420       -1.76580
H          2.06180        0.68290        0.59410
H          0.22940        1.91200       -0.03350
H         -1.41370        1.82560       -0.68250
H         -0.51110        0.63630        1.99320
H         -1.45720        2.11680        1.79270
H         -2.14970        0.55560        1.34180
H         -0.86050       -3.82740       -2.75830
H         -3.22040       -3.41710       -3.29640
H         -3.09890        0.38530       -1.32580
H         -5.15900       -2.71430       -4.19410
H         -7.60000       -1.87570       -4.18280
H         -9.14220       -0.15700       -2.98270
H        -11.93640        2.71620       -0.23740
H        -11.11810        3.46100        1.17190
H        -10.34580        5.33500       -0.27540
H        -12.10660        5.20260       -0.31670
H        -11.14840        4.59720       -1.67290
H          8.34490       -0.30820        2.81950
H         11.59670       -5.15710        3.29800
H         11.85900       -3.48490        3.88670
H         10.47850       -3.98570        5.89920
H         11.83460       -5.11290        5.78080
H         10.21350       -5.63870        5.31650
