154
CZTT-IC.mol
O         -9.66950        4.42110       -3.59250
C        -10.58020        3.99890       -2.90820
C        -10.54010        3.46470       -1.52820
C        -11.90650        3.17530       -1.12240
C        -12.77530        3.42190       -2.27230
C        -14.13900        3.25110       -2.45570
C        -14.69000        3.58690       -3.68560
C        -13.91020        4.08560       -4.71910
C        -12.54410        4.25680       -4.54750
C        -11.99330        3.92000       -3.32660
C        -12.34540        2.78470        0.11620
C        -11.55510        2.60430        1.27150
N        -11.00530        2.44650        2.26810
C        -13.69680        2.52640        0.43140
N        -14.77120        2.29550        0.76400
C         -9.44840        3.18750       -0.74660
C         -8.07070        3.36400       -0.96110
C         -7.34160        3.94210       -1.99010
C         -5.97650        3.85160       -1.77250
C         -5.61650        3.20960       -0.56760
S         -7.01030        2.72250        0.30720
C         -4.23690        3.09540       -0.41930
C         -3.56010        3.64920       -1.49350
C         -2.15030        3.44390       -1.36430
C         -1.11810        3.69490       -2.25360
C          0.13200        3.21190       -1.89570
C          0.34140        2.53140       -0.66500
C         -0.70300        2.33070        0.23690
C         -1.94660        2.77960       -0.12590
C         -3.26760        2.53940        0.58910
C         -3.38040        1.04300        0.80860
C         -2.86210        0.47410        1.96540
C         -2.84560       -0.89760        2.12520
C         -3.34210       -1.73790        1.13670
C         -3.24130       -3.22860        1.28580
C         -1.85860       -3.70970        0.83960
C         -3.87170       -1.16430       -0.01060
C         -3.88850        0.20890       -0.17650
C         -3.44860        3.31900        1.87740
C         -4.54380        3.03420        2.68500
C         -4.76970        3.75680        3.83930
C         -3.91070        4.78210        4.21690
C         -4.13280        5.53030        5.49960
C         -3.48280        4.78810        6.66920
C         -2.82090        5.06320        3.40490
C         -2.59270        4.34650        2.24310
C          1.68700        2.05730       -0.68920
C          2.23080        2.45550       -1.94070
N          1.29960        3.20340       -2.61900
C          1.46320        3.73510       -3.94650
C          1.07420        2.71800       -5.01840
C          3.48380        2.02820       -2.35480
C          4.16010        1.18310       -1.49030
C          5.37460        0.44800       -1.66800
C          5.63710       -0.33830       -0.55890
C          4.59180       -0.12730        0.50280
C          5.13040        0.59080        1.72920
C          6.32630        1.29310        1.69060
C          6.78140        1.96680        2.80910
C          6.05310        1.96390        3.99040
C          6.53070        2.73250        5.18840
C          6.02410        4.17520        5.13420
C          4.84980        1.27090        4.02000
C          4.39290        0.59260        2.90650
C          3.98670       -1.47030        0.86630
C          4.66640       -2.29960        1.75120
C          4.16160       -3.54340        2.07650
C          2.96780       -3.99410        1.52670
C          2.38870       -5.31990        1.92840
C          1.50700       -5.16310        3.16910
C          2.30120       -3.16840        0.63220
C          2.80630       -1.92490        0.29670
C          3.64340        0.81730       -0.21860
C          2.41550        1.26330        0.19660
C          6.74580       -1.15630       -0.75820
C          7.32510       -0.97530       -2.03280
C          8.39800       -1.81060       -2.29930
C          8.66840       -2.66130       -1.23760
C          9.60120       -3.69760       -1.05750
C         10.47340       -4.29950       -1.92630
C         11.32740       -5.41570       -1.55240
C         11.88780       -5.97820       -2.77950
C         11.49100       -5.17600       -3.86160
C         10.63810       -4.07140       -3.37990
O         10.18580       -3.18070       -4.07060
C         11.87820       -5.45690       -5.15710
C         12.67450       -6.57200       -5.37530
C         13.06350       -7.37570       -4.31330
C         12.68060       -7.09210       -3.00880
C         11.62040       -5.85060       -0.28630
C         11.16920       -5.27230        0.91960
N         10.87130       -4.86160        1.95030
C         12.46750       -6.94300       -0.00240
N         13.13890       -7.82230        0.30480
S          7.57370       -2.37080        0.12690
S          6.49130        0.23200       -2.97220
S         -4.58710        4.33110       -2.70720
H        -14.77160        2.86360       -1.67450
H        -15.75100        3.45510       -3.83650
H        -14.37050        4.33940       -5.66220
H        -11.91540        4.64030       -5.33640
H         -9.66110        2.71850        0.20710
H         -7.80210        4.39050       -2.85080
H         -1.30770        4.19140       -3.19240
H         -0.54020        1.80050        1.16200
H         -2.47090        1.11040        2.74620
H         -2.43560       -1.32370        3.03010
H         -3.39900       -3.50840        2.32950
H         -4.00690       -3.71790        0.68100
H         -1.69460       -3.46580       -0.20810
H         -1.76970       -4.78660        0.96500
H         -1.08260       -3.22380        1.42760
H         -4.26990       -1.79860       -0.78980
H         -4.29270        0.63090       -1.08560
H         -5.21810        2.23630        2.40840
H         -5.62740        3.52440        4.45370
H         -3.70390        6.53150        5.42500
H         -5.20350        5.62940        5.68830
H         -3.90620        3.79090        6.76620
H         -3.64580        5.32670        7.59980
H         -2.41150        4.69070        6.50700
H         -2.14170        5.85790        3.67980
H         -1.74240        4.58750        1.62170
H          2.50790        4.03190       -4.07120
H          0.84350        4.63120       -4.03630
H          0.03370        2.42480       -4.90060
H          1.69360        1.82800       -4.93690
H          1.20730        3.14790       -6.00730
H          3.90500        2.28930       -3.31300
H          6.91400        1.31450        0.78450
H          7.72060        2.49950        2.76250
H          7.62220        2.73570        5.21460
H          6.16820        2.25770        6.10220
H          4.93650        4.19390        5.11970
H          6.38580        4.66960        4.23530
H          6.37020        4.73320        6.00110
H          4.26510        1.25700        4.92890
H          3.46230        0.04620        2.95600
H          5.59280       -1.96380        2.19450
H          4.70410       -4.17340        2.76630
H          3.19360       -6.02430        2.14690
H          1.78980       -5.72580        1.11060
H          1.08740       -6.12260        3.46200
H          0.68990       -4.47390        2.96740
H          2.08940       -4.77040        3.99950
H          1.37490       -3.50240        0.18620
H          2.27170       -1.30660       -0.40950
H          1.99910        0.97720        1.14940
H          8.95580       -1.82640       -3.21710
H          9.57260       -4.11240       -0.05620
H         11.55960       -4.81850       -5.96690
H         12.99180       -6.81920       -6.37730
H         13.67790       -8.24350       -4.50110
H         12.99550       -7.73760       -2.20560
