106
DBD-4F.sdf
C         -1.77610      -10.15930        4.16000
O         -1.30950       -9.90360        3.06660
C         -1.42100      -11.34640        4.97140
C         -0.49700      -12.32950        4.67940
C         -0.32090      -13.34170        5.60880
C         -1.05830      -13.35410        6.79220
C         -1.99070      -12.36850        7.08160
C         -2.17230      -11.35280        6.15610
C         -3.05490      -10.18550        6.15160
C         -4.01560       -9.93400        7.09750
C         -4.94740       -8.87390        7.08250
N         -5.75800       -8.06280        7.15040
C         -4.23520      -10.74370        8.23210
N         -4.46330      -11.35260        9.17810
C         -2.75860       -9.41050        4.96140
F         -0.86290      -14.33980        7.67660
C         -3.25570       -8.14320        4.74760
F          0.56830      -14.31500        5.36960
C          5.07140        8.38410       -4.42030
O          4.71850        7.22780       -4.56090
C          6.35300        8.96130       -4.88240
C          7.39160        8.32940       -5.53530
C          8.50160        9.09160       -5.86340
C          8.55210       10.44700       -5.54080
C          7.50670       11.08090       -4.88460
C          6.39380       10.32550       -4.55120
C          5.15000       10.67920       -3.86200
C          4.85090       11.92860       -3.37850
C          3.67160       12.29150       -2.69620
N          2.74720       12.67300       -2.12980
C          5.70380       13.04620       -3.49400
N          6.34770       13.99490       -3.55160
C          4.34380        9.48140       -3.78230
F          9.63630       11.16000       -5.86970
C          3.10280        9.38990       -3.19060
F          9.53540        8.52030       -6.49550
C          2.26130        8.29350       -2.99620
S          2.57130        6.63020       -3.50660
C          1.11120        6.12900       -2.75460
C          0.40720        7.21020       -2.14920
C          1.05160        8.41940       -2.29460
C          0.37300        4.98130       -2.47890
C         -0.74590        5.38300       -1.71440
N         -0.73660        6.74330       -1.54840
S          0.39110        3.27500       -2.72600
C         -1.04590        3.10020       -1.73860
C         -1.54020        4.31520       -1.29770
C         -1.51390        1.78890       -1.37500
C         -0.99420        0.63010       -1.99680
C         -1.34510       -0.61900       -1.52440
C         -2.21300       -0.78890       -0.44030
C         -2.79240        0.36760        0.13130
C         -2.43460        1.61740       -0.33770
C         -2.44150       -2.09280        0.12280
S         -3.31130       -2.26460        1.63580
C         -2.96000       -3.95410        1.66520
C         -2.23880       -4.35420        0.51530
C         -1.95320       -3.29790       -0.34910
C         -3.10080       -5.08680        2.45980
C         -2.45800       -6.15340        1.76770
N         -1.96940       -5.69420        0.57020
S         -3.72230       -5.60240        3.97090
C         -3.07240       -7.23650        3.69900
C         -2.44620       -7.34990        2.46020
O         -0.14860        0.84390       -3.03240
C         -1.17040       -6.45530       -0.35590
C          0.29740       -6.49150        0.06390
C         -1.64370        7.51370       -0.73770
C         -1.18420        7.57850        0.71780
O         -3.64760        0.14440        1.15970
C         -4.33380        1.20540        1.79330
C         -5.50680        1.71810        0.96420
C          0.48530       -0.24310       -3.67790
C          1.39090        0.33240       -4.75470
H          0.07160      -12.31360        3.76330
H         -2.53190      -12.42440        8.01140
H         -3.86520       -7.74140        5.54840
H          7.34670        7.28070       -5.78190
H          7.59780       12.13050       -4.65870
H          2.70140       10.30780       -2.77870
H          0.71260        9.36600       -1.91300
H         -2.42980        4.41950       -0.70480
H         -0.91500       -1.49380       -1.97940
H         -2.83720        2.49730        0.13310
H         -1.40840       -3.40510       -1.26820
H         -2.00060       -8.26810        2.12670
H         -1.27240       -6.00040       -1.34450
H         -1.57060       -7.47190       -0.39650
H          0.39750       -6.96760        1.03600
H          0.87710       -7.05570       -0.66110
H          0.69910       -5.48260        0.12690
H         -2.63320        7.05280       -0.80090
H         -1.70370        8.52120       -1.15720
H         -0.20250        8.04130        0.78230
H         -1.12250        6.57800        1.13970
H         -1.88580        8.16440        1.30480
H         -3.64040        2.01640        2.04660
H         -4.70160        0.76410        2.72350
H         -6.19330        0.90130        0.75760
H         -6.03470        2.49020        1.51680
H         -5.16810        2.12900        0.01610
H          1.07390       -0.81980       -2.95160
H         -0.27100       -0.90150       -4.12730
H          1.89190       -0.47190       -5.28510
H          2.13380        0.98430       -4.30440
H          0.80430        0.91530       -5.45890
