111
DBS-2DPP.sdf
C          6.02190       -4.10680        2.99850
C          5.67620       -5.26080        2.31650
C          4.55210       -5.11240        1.51010
C          4.00090       -3.84800        1.55500
S          4.90540       -2.81950        2.61480
C          2.83770       -3.35130        0.85910
C          2.18680       -4.11540       -0.11580
C          1.07490       -3.63140       -0.77310
C          0.57730       -2.36760       -0.47340
C          1.22170       -1.58730        0.50480
C          2.33240       -2.07730        1.15030
Si         0.35090        0.07930        0.69810
C         -0.38660        0.35740        2.43520
C         -1.36800        1.52310        2.48680
C          1.42690        1.54230        0.10750
C          2.06660        1.28510       -1.25370
C         -0.90460       -0.46060       -0.61460
C         -0.58700       -1.74720       -1.09180
C         -1.37320       -2.31830       -2.08730
C         -2.46040       -1.63460       -2.58790
C         -2.79840       -0.36240       -2.11490
C         -1.98970        0.21410       -1.12560
C         -3.95460        0.32950       -2.62810
C         -4.55840        1.47540       -2.15550
C         -5.68750        1.85770       -2.87450
C         -5.98150        1.01690       -3.93380
S         -4.81300       -0.27670       -4.00930
C          7.08250       -3.80470        3.89400
N          8.05880       -4.65830        4.36540
C          8.96520       -3.99510        5.22060
C          8.50400       -2.63650        5.25430
C          7.34350       -2.55180        4.43840
C          8.19240       -6.07990        4.16810
C          7.17050       -6.86770        4.98460
O          9.90430       -4.55480        5.75610
C          8.79060       -1.37740        5.76520
N          7.82490       -0.51940        5.28170
C          6.89280       -1.19080        4.45920
O          5.94930       -0.62950        3.93060
C          7.62760        0.87910        5.56860
C          7.04690        1.10080        6.96330
C          9.89800       -1.06100        6.60440
C         10.35370        0.13190        7.12970
C         11.50970       -0.01300        7.90640
C         11.93380       -1.30740        7.97720
S         10.93920       -2.37950        7.09390
C         -7.09270        1.17630       -4.80140
N         -7.41350        0.40270       -5.89510
C         -8.60950        0.82870       -6.50590
C         -9.04460        1.94000       -5.70920
C         -8.09160        2.13960       -4.67170
C         -6.65420       -0.66590       -6.49490
C         -5.49860       -0.13740       -7.34070
O         -9.08450        0.29090       -7.48970
C        -10.06470        2.87330       -5.58070
N         -9.75330        3.65550       -4.48940
C         -8.54540        3.25050       -3.88110
O         -8.08350        3.81530       -2.90500
C        -10.50900        4.73090       -3.89800
C        -11.65970        4.21080       -3.03900
C        -11.19670        2.98390       -6.43920
C        -12.28490        3.83430       -6.43490
C        -13.17770        3.59370       -7.48620
C        -12.77630        2.56640       -8.28860
S        -11.30290        1.86620       -7.78190
H          6.20940       -6.18950        2.38340
H          4.15290       -5.91800        0.92050
H          2.56160       -5.09550       -0.36720
H          0.59840       -4.24600       -1.52250
H          2.82870       -1.47640        1.89900
H          0.42320        0.54090        3.14170
H         -0.89230       -0.54910        2.76960
H         -1.75140        1.66030        3.49640
H         -2.21190        1.34040        1.82640
H         -0.88500        2.44750        2.17970
H          0.82280        2.44870        0.05280
H          2.21110        1.73420        0.84060
H          1.30370        1.11380       -2.00990
H          2.70560        0.40610       -1.21370
H          2.67180        2.13510       -1.56340
H         -1.14380       -3.29960       -2.47490
H         -3.07180       -2.08810       -3.35570
H         -2.21320        1.20670       -0.76570
H         -4.20310        2.01910       -1.29930
H         -6.28840        2.71760       -2.63800
H          8.12610       -6.31550        3.10320
H          9.20080       -6.32730        4.51450
H          7.32270       -6.67570        6.04390
H          6.15430       -6.58020        4.72450
H          7.29330       -7.93210        4.80340
H          6.91150        1.23050        4.81880
H          8.56570        1.42250        5.43130
H          6.07350        0.62190        7.03480
H          6.92550        2.16480        7.14840
H          7.69460        0.68100        7.72960
H          9.89020        1.08600        6.97030
H         12.00520        0.80830        8.39300
H         12.78630       -1.68730        8.50520
H         -6.29360       -1.34910       -5.72230
H         -7.35980       -1.20030       -7.13860
H         -5.88370        0.50090       -8.13230
H         -4.80250        0.43810       -6.73530
H         -4.96300       -0.96830       -7.79080
H        -10.86000        5.40920       -4.67890
H         -9.80130        5.27100       -3.26090
H        -12.22100        5.04480       -2.62630
H        -11.26300        3.61860       -2.21800
H        -12.33230        3.58460       -3.62080
H        -12.45510        4.60540       -5.70930
H        -14.08030        4.15800       -7.63980
H        -13.27670        2.18120       -9.15530
