99
DBT-4F.sdf
C         -4.04730       -0.59190       -7.47390
O         -3.78140       -0.18670       -6.35760
C         -5.15040       -0.09750       -8.32960
C         -6.08220        0.88020       -8.04600
C         -7.03160        1.16390       -9.01460
C         -7.03380        0.47820      -10.22850
C         -6.09590       -0.50370      -10.51310
C         -5.14310       -0.79300       -9.54920
C         -4.03930       -1.75580       -9.53240
C         -3.70430       -2.57730      -10.57930
C         -4.39150       -2.60860      -11.81110
N         -4.90200       -2.68580      -12.83640
C         -2.63530       -3.49710      -10.60590
N         -1.78760       -4.26500      -10.71940
C         -3.38530       -1.64590       -8.24550
F         -7.96400        0.76990      -11.14560
C         -2.33870       -2.43930       -7.82920
F         -7.95630        2.10490       -8.78070
C          3.49440        3.53500        8.67030
O          2.59620        3.95860        7.96850
C          3.96350        4.18080        9.91690
C          3.50720        5.35110       10.48970
C          4.11050        5.76870       11.66450
C          5.14070        5.02250       12.23600
C          5.59570        3.84530       11.66050
C          4.99620        3.42040       10.48490
C          5.23180        2.24900        9.63890
C          6.14420        1.26460        9.92140
C          6.39570        0.09810        9.16740
N          6.67560       -0.88150        8.63620
C          6.98470        1.26980       11.05560
N          7.69900        1.20590       11.95190
C          4.32880        2.33260        8.50490
F          5.70930        5.45010       13.36980
C          4.33210        1.42130        7.47180
F          3.70190        6.89940       12.25550
C          3.57640        1.32900        6.29820
S          3.98730       -0.03300        5.22960
C          2.79040        0.46410        4.10940
C          2.10780        1.63190        4.55650
C          2.54720        2.10960        5.77760
C          2.23520        0.12410        2.88020
C          1.23320        1.08590        2.60900
N          1.17430        2.00350        3.62210
S          2.36360       -1.03360        1.60840
C          1.08280       -0.22940        0.72200
C          0.58720        0.87620        1.39140
C          0.66580       -0.71840       -0.56490
C          1.28060       -1.85060       -1.15280
C          0.88430       -2.27830       -2.40460
C         -0.12550       -1.63310       -3.12660
C         -0.75490       -0.51270       -2.53170
C         -0.35190       -0.08180       -1.28160
C         -0.52020       -2.08420       -4.43150
O          2.24650       -2.44850       -0.41730
C          0.23370        3.08580        3.75910
C         -1.01670        2.65010        4.52010
O         -1.70940        0.07630       -3.28330
C         -2.53870        1.10370       -2.77780
C         -3.59340        0.57540       -1.81220
C          2.94420       -3.57250       -0.92000
C          3.96520       -3.98180        0.12910
C          0.03870       -3.13230       -5.15720
C         -0.54840       -3.34560       -6.39140
C         -1.59980       -2.44110       -6.64510
S         -1.80980       -1.34090       -5.30090
C         -0.05670       -4.38310       -7.34950
C          0.91450       -3.77040       -8.36290
H         -6.07770        1.40740       -7.10550
H         -6.14340       -1.00430      -11.46590
H         -2.02720       -3.19850       -8.53390
H          2.71080        5.92360       10.04170
H          6.39480        3.30920       12.14460
H          5.06080        0.62460        7.55970
H          2.16880        2.97210        6.29350
H         -0.20080        1.50170        1.01630
H          1.36050       -3.13700       -2.84470
H         -0.82630        0.77820       -0.84210
H         -0.03340        3.43430        2.75810
H          0.72910        3.90130        4.29230
H         -1.51000        1.83030        4.00260
H         -0.75020        2.31910        5.52070
H         -1.71060        3.48170        4.60180
H         -1.93540        1.89550       -2.31710
H         -3.02210        1.50590       -3.67150
H         -3.13400        0.12240       -0.93640
H         -4.19750       -0.17660       -2.31280
H         -4.23780        1.38950       -1.49280
H          3.44750       -3.30950       -1.86020
H          2.24060       -4.39450       -1.10900
H          4.52530       -4.84490       -0.21810
H          4.65140       -3.16150        0.31890
H          3.46240       -4.23090        1.05900
H          0.86000       -3.73010       -4.80420
H          0.46000       -5.16330       -6.78770
H         -0.88580       -4.84870       -7.88390
H          1.27410       -4.53820       -9.04190
H          1.76560       -3.32540       -7.85220
H          0.42210       -2.99910       -8.94960
