114
DCI-2.sdf
C         10.55920       -0.06300       -7.12540
O         10.08640        0.21840       -6.03760
C         11.97250       -0.37570       -7.40690
C         13.03670       -0.43780       -6.52990
C         14.28630       -0.76440       -7.03850
C         14.44860       -1.01900       -8.39210
C         13.37940       -0.95560       -9.27730
C         12.12740       -0.63030       -8.78070
C         10.82590       -0.48850       -9.43620
C         10.60100       -0.63720      -10.78120
C         11.60210       -0.95580      -11.72240
N         12.36100       -1.21250      -12.54520
C          9.35910       -0.49300      -11.43330
N          8.39190       -0.39270      -12.04570
C          9.85780       -0.16110       -8.41010
C          8.50710        0.00150       -8.59860
C         -1.35760        1.11720        3.08900
S          0.33360        1.60220        3.20070
C          0.54410        1.32820        1.51170
C         -0.65640        0.89640        0.90570
C         -1.72000        0.77920        1.79930
C          1.50780        1.36670        0.50480
C          0.86500        0.96150       -0.68590
N         -0.44700        0.66630       -0.42790
S          3.17830        1.69530        0.23790
C          3.00910        1.27840       -1.46680
C          1.71370        0.92210       -1.79120
C          5.93880        0.75940       -5.78770
C         -1.44810        0.31450       -1.40080
C         -2.10600        1.55610       -1.99980
C          5.26790        0.62730       -7.00730
C          6.14910        0.36960       -8.04470
C          7.49260        0.28520       -7.67630
S          7.65860        0.55770       -5.96290
C         -8.63650       -2.77490        3.70270
O         -7.57560       -2.29010        3.34760
C         -9.50740       -3.64920        2.89540
C         -9.32600       -4.09550        1.60180
C        -10.29790       -4.91960        1.05110
C        -11.41550       -5.27730        1.79010
C        -11.60020       -4.82960        3.09250
C        -10.63640       -4.00660        3.65260
C        -10.53510       -3.38170        4.97310
C        -11.44510       -3.53550        5.98820
C        -12.62050       -4.30880        5.88930
N        -13.59430       -4.91750        5.88460
C        -11.35280       -2.96390        7.27380
N        -11.35250       -2.54370        8.34350
C         -9.30940       -2.61140        4.99510
C         -8.85850       -1.83830        6.03800
C         -7.68650       -1.08280        6.15950
S         -6.39940       -0.92550        4.99710
C         -5.50180        0.09640        6.07490
C         -6.17700        0.32440        7.28130
C         -7.38940       -0.34390        7.30800
C         -5.66320        1.20370        8.38150
C         -6.71590        1.56810        9.42240
C         -4.23320        0.56260        5.63950
C         -3.17540        1.12010        6.32710
C         -2.04380        1.39020        5.54610
C         -2.22430        1.04820        4.21400
S         -3.81730        0.38170        3.95710
C         -0.81830        2.02250        6.12670
C         -0.80040        3.52990        5.86600
C          3.78920        0.71680       -7.21580
C          3.12970       -0.65330       -7.04540
C          5.43520        1.01210       -4.48690
C          6.19070        1.30230       -3.36850
C          5.46410        1.46400       -2.18530
C          4.10110        1.28240       -2.37550
S          3.75090        0.93910       -4.05200
C          6.13000        1.82560       -0.89630
C          6.08930        3.33780       -0.66720
H         12.88570       -0.23690       -5.48040
H         15.13790       -0.82190       -6.37740
H         15.42700       -1.27310       -8.77160
H         13.53770       -1.16020      -10.32330
H          8.13640       -0.12200       -9.60910
H         -2.71510        0.46180        1.54520
H          1.42540        0.63880       -2.78740
H         -2.19880       -0.30870       -0.90800
H         -0.96780       -0.27360       -2.18730
H         -2.85350        1.26570       -2.73250
H         -1.36020        2.17930       -2.48770
H         -2.58890        2.13960       -1.21940
H          5.83630        0.23940       -9.06680
H         -8.44770       -3.80340        1.04690
H        -10.18440       -5.28500        0.04150
H        -12.16260       -5.91870        1.34700
H        -12.48000       -5.12510        3.64010
H         -9.48740       -1.79110        6.91880
H         -8.07480       -0.31600        8.13580
H         -4.83230        0.69480        8.88050
H         -5.26890        2.12030        7.93400
H         -7.57460        2.04030        8.95110
H         -7.05180        0.68750        9.96370
H         -6.29340        2.26560       10.14190
H         -3.18930        1.30270        7.38500
H          0.07900        1.56860        5.70330
H         -0.80980        1.84440        7.20380
H         -1.67840        3.99960        6.30410
H         -0.79730        3.73330        4.79840
H          0.08860        3.97550        6.30440
H          3.60010        1.08100       -8.22750
H          3.34950        1.42490       -6.51170
H          3.53130       -1.35720       -7.77050
H          3.31270       -1.04410       -6.04760
H          2.05600       -0.57410       -7.19480
H          7.26200        1.39210       -3.41680
H          5.64690        1.31600       -0.06110
H          7.17000        1.49710       -0.93910
H          6.58660        3.58870        0.26590
H          5.06210        3.69010       -0.61590
H          6.59230        3.85540       -1.48100
