106
DF-PCIC.sdf
C          8.67060       -3.97430        2.43610
O          7.77070       -3.17300        2.62140
C          9.39140       -4.73230        3.47440
C          9.20180       -4.72220        4.84180
C         10.00990       -5.53920        5.62050
C         10.97740       -6.33820        5.02960
C         11.17100       -6.34920        3.65370
C         10.36980       -5.53800        2.86610
C         10.31830       -5.33010        1.41780
C         11.13970       -5.94020        0.50480
C         12.15420       -6.86110        0.84130
N         12.99580       -7.61710        1.03740
C         11.10880       -5.75000       -0.89220
N         11.15290       -5.65380       -2.03650
C          9.25610       -4.38030        1.15440
C          8.84190       -3.95780       -0.08540
C        -10.69420        0.87070       -0.96110
O         -9.63050        0.60150       -1.49240
C        -11.94890        0.10680       -1.08230
C        -12.18930       -1.05720       -1.78460
C        -13.46740       -1.59700       -1.73870
C        -14.46650       -0.97490       -1.00500
C        -14.22740        0.19730       -0.29830
C        -12.95520        0.74520       -0.33640
C        -12.39030        1.94140        0.29100
C        -13.08640        2.82040        1.08070
C        -12.56210        3.98050        1.68720
N        -12.21710        4.94060        2.21620
C        -14.45390        2.68760        1.40100
N        -15.56020        2.64520        1.70550
C        -10.99130        2.00490       -0.08050
C        -10.08640        2.94570        0.34760
C         -8.71550        3.07080        0.09750
S         -7.73170        2.02350       -0.91700
C         -6.34620        2.92590       -0.48850
C         -6.61060        3.99950        0.38150
C         -7.94400        4.07560        0.70630
C         -4.94920        2.84880       -0.68290
C         -4.31870        3.84200        0.06330
C         -5.33550        4.72000        0.75500
S         -3.83570        1.83580       -1.50220
C         -2.49930        2.72540       -0.79790
C         -2.93060        3.76750       -0.00040
C         -1.15700        2.25660       -1.03470
C         -0.84870        1.50020       -2.17000
C          0.40400        0.96310       -2.34820
C          1.42860        1.10380       -1.40180
C          1.12830        1.88210       -0.27930
C         -0.11360        2.44870       -0.11820
C          2.69400        0.42170       -1.51220
S          3.54700       -0.00740       -0.04470
C          4.72830       -0.83080       -0.97130
C          4.49760       -0.75270       -2.34550
C          3.33700       -0.04040       -2.64360
C          5.87310       -1.61620       -0.71710
C          6.39610       -2.02940       -1.95240
C          5.58620       -1.47500       -3.10800
S          6.71320       -2.24130        0.63290
C          7.80270       -3.09580       -0.45300
C          7.48650       -2.85190       -1.80040
C          6.49180       -0.47980       -3.86790
C          5.84290        0.23640       -5.04350
C          5.08780       -2.64170       -3.99100
C          3.73470       -2.44360       -4.66360
C         -5.12130        4.77140        2.27500
C         -5.03310        3.38520        2.90290
C         -5.26420        6.12560        0.11690
C         -6.34820        7.09130        0.57560
F         -0.32720        3.17380        0.99800
F          0.61710        0.23490       -3.46280
H          8.44150       -4.09280        5.27830
H          9.88480       -5.55470        6.69270
H         11.59700       -6.96880        5.64960
H         11.93060       -6.98200        3.22530
H          9.37310       -4.36320       -0.93810
H        -11.39550       -1.52360       -2.34750
H        -13.68630       -2.50730       -2.27630
H        -15.45500       -1.40840       -0.97890
H        -15.02450        0.65570        0.26330
H        -10.46480        3.71450        1.01050
H         -8.38750        4.79210        1.37500
H         -2.26020        4.43420        0.50900
H         -1.60480        1.32000       -2.91840
H          1.87490        2.03620        0.48430
H          2.96180        0.14290       -3.63230
H          8.05030       -3.29700       -2.60120
H          6.84170        0.26480       -3.14770
H          7.36600       -1.03090       -4.22170
H          5.57200       -0.46310       -5.82890
H          4.95680        0.78000       -4.72830
H          6.54800        0.95230       -5.46070
H          5.01940       -3.53270       -3.36190
H          5.84840       -2.83700       -4.74930
H          2.94290       -2.35910       -3.92410
H          3.51980       -3.30680       -5.29010
H          3.71820       -1.55850       -5.29110
H         -4.20030        5.32110        2.47840
H         -5.95100        5.31490        2.72770
H         -5.93590        2.81290        2.70110
H         -4.91580        3.47230        3.98020
H         -4.18140        2.83500        2.50990
H         -4.28220        6.54630        0.34350
H         -5.33250        6.00680       -0.96760
H         -6.29340        7.26990        1.64580
H         -7.33530        6.70850        0.33220
H         -6.22000        8.04470        0.06810
