102
di-PBI.sdf
C          3.68480       -5.81710       -2.33960
C          2.58890       -6.27550       -1.38860
N          1.61010       -5.22380       -1.11680
C          0.42700       -5.25620       -1.83620
C         -0.59180       -4.25930       -1.46700
C         -0.32140       -3.29330       -0.47950
C          0.91920       -3.29140        0.18500
C          1.95370       -4.27750       -0.16810
O          3.05160       -4.28400        0.35220
O          0.24130       -6.07870       -2.70920
C         -1.83330       -4.28710       -2.07390
C         -2.82870       -3.39730       -1.69220
C         -2.59660       -2.42680       -0.72660
C         -1.30450       -2.33000       -0.14910
C         -0.97460       -1.29940        0.76830
C          0.19600       -1.41590        1.50800
C          1.13430       -2.39700        1.21770
C         -3.62600       -1.51410       -0.26040
C         -3.22790       -0.36610        0.47720
C         -1.88130       -0.16860        0.87540
C         -4.97220       -1.68910       -0.55260
C         -5.92620       -0.75310       -0.17360
C         -5.54630        0.41980        0.45040
C         -4.19020        0.63450        0.75770
C         -3.77770        1.85860        1.31580
C         -2.43290        2.10580        1.49600
C         -1.47170        1.11790        1.25780
C         -6.55640        1.43810        0.78520
N         -6.08520        2.61380        1.34710
C         -4.76340        2.90770        1.63200
C         -7.07850        3.62890        1.68710
C         -7.60750        3.42300        3.10050
O         -4.44490        3.97720        2.10870
O         -7.74140        1.27400        0.58190
C          3.95540        5.75950        4.83510
C          3.86670        4.28650        5.21180
N          3.45880        3.47640        4.06710
C          2.10020        3.28490        3.88670
C          1.70210        2.49430        2.70820
C          2.67620        1.97620        1.83460
C          4.04370        2.17020        2.10270
C          4.46750        2.98880        3.25150
O          5.63320        3.22800        3.48850
O          1.29140        3.74080        4.66800
C          0.37170        2.19320        2.50260
C         -0.04870        1.49100        1.36810
C          0.89230        1.12560        0.39480
C          2.27210        1.22890        0.70210
C          3.25730        0.54100       -0.05700
C          4.59720        0.75110        0.24060
C          4.98840        1.58270        1.28290
C          0.52760        0.53260       -0.87920
C          1.45700       -0.35200       -1.48260
C          2.81090       -0.40720       -1.06370
C         -0.68450        0.76460       -1.51780
C         -1.09400       -0.02710       -2.58180
C         -0.29360       -1.06060       -3.03450
C          1.01360       -1.19280       -2.53000
C          1.88650       -2.15570       -3.06940
C          3.19060       -2.22450       -2.61700
C          3.65050       -1.35060       -1.64050
C         -0.80260       -2.00800       -4.03810
N          0.08330       -2.97480       -4.47710
C          1.41020       -3.09030       -4.10080
C         -0.40530       -3.95680       -5.44250
C         -0.00990       -3.58170       -6.86420
O          2.12560       -3.94130       -4.58870
O         -1.94740       -1.96890       -4.44500
H          3.25110       -5.43940       -3.26270
H          4.33040       -6.65850       -2.57530
H          4.28190       -5.04000       -1.86910
H          3.02190       -6.56820       -0.42910
H          2.03770       -7.11160       -1.82180
H         -2.02220       -5.03220       -2.83170
H         -3.78890       -3.46530       -2.17600
H          0.39050       -0.72990        2.31740
H          2.05630       -2.45970        1.77550
H         -5.29880       -2.56840       -1.08360
H         -6.97190       -0.90970       -0.39080
H         -2.13110        3.09190        1.81670
H         -6.59200        4.60190        1.60070
H         -7.89030        3.54700        0.96220
H         -8.34080        4.19040        3.33110
H         -6.79440        3.48880        3.81980
H         -8.08280        2.44840        3.18540
H          2.98690        6.12000        4.49600
H          4.26040        6.33970        5.70110
H          4.68760        5.90130        4.04350
H          4.84010        3.91900        5.54120
H          3.12240        4.13890        5.99620
H         -0.34590        2.50390        3.24760
H          5.36230        0.26480       -0.34260
H          6.03370        1.75250        1.49220
H         -1.33210        1.55460       -1.17110
H         -2.05920        0.12290       -3.04130
H          3.85100       -2.95870       -3.05150
H          4.67750       -1.43080       -1.32400
H          0.02150       -4.92380       -5.16730
H         -1.49140       -3.98420       -5.34510
H         -0.41560       -2.60620       -7.12380
H          1.07260       -3.55600       -6.95910
H         -0.40340       -4.32000       -7.55690
