98
DPP-FN-DPP.sdf
C          4.91630       -5.24840        2.62280
C          5.22570       -4.91210        1.31600
C          4.37760       -3.95050        0.77510
C          3.40520       -3.51720        1.65300
S          3.53660       -4.33300        3.17500
C          2.37650       -2.52930        1.42620
C          1.63020       -2.03160        2.50050
C          0.63930       -1.07860        2.32860
C          0.37900       -0.61400        1.05270
C          1.11510       -1.11810       -0.03830
C          2.10310       -2.05770        0.13080
C          0.63210       -0.48540       -1.29470
O          1.02680       -0.67620       -2.42060
C         -0.44840        0.43610       -0.85010
C         -0.58270        0.35680        0.55080
C         -1.52430        1.13780        1.19450
C         -2.32080        1.98430        0.43980
C         -2.19940        2.06670       -0.95220
C         -1.24060        1.26940       -1.60040
C         -3.04530        2.95060       -1.71670
C         -3.84500        3.98410       -1.27660
C         -4.53530        4.63440       -2.29510
C         -4.29010        4.11060       -3.55300
S         -3.16220        2.78620       -3.43890
C          5.48980       -6.17800        3.53280
N          6.61000       -6.96020        3.34970
C          6.85860       -7.78770        4.46550
C          5.79660       -7.48830        5.38920
C          4.98190       -6.48940        4.78800
C          7.55110       -6.94930        2.25740
C          8.43400       -5.70400        2.27740
O          7.80300       -8.55470        4.51470
C          5.25090       -7.81200        6.62900
N          4.12580       -7.03610        6.79410
C          3.90920       -6.18660        5.69100
O          2.97780       -5.40430        5.62260
C          3.24470       -6.95250        7.93250
C          3.81610       -6.05930        9.03040
C          5.76450       -8.78640        7.52980
C          6.90390       -9.53310        7.30650
C          7.19170      -10.43110        8.34280
C          6.28270      -10.37750        9.35620
S          5.05190       -9.22580        9.06410
C         -4.88320        4.58740       -4.75180
N         -4.70530        4.09200       -6.02300
C         -5.46930        4.79690       -6.97330
C         -6.16660        5.79800       -6.21040
C         -5.78740        5.64320       -4.84610
C         -3.83370        3.03010       -6.46230
C         -2.39520        3.50860       -6.63960
O         -5.46630        4.51530       -8.15800
C         -7.06540        6.85700       -6.30580
N         -7.24260        7.35350       -5.03550
C         -6.48380        6.64390       -4.08390
O         -6.49420        6.92130       -2.89750
C         -8.13020        8.39940       -4.59100
C         -9.56460        7.89990       -4.43970
C         -7.65830        7.33700       -7.50720
C         -7.44960        6.78910       -8.75680
C         -8.14120        7.45410       -9.77790
C         -8.87610        8.50610       -9.32050
S         -8.73770        8.70690       -7.62720
H          6.03040       -5.34320        0.75230
H          4.48940       -3.57540       -0.22610
H          1.84060       -2.40570        3.49200
H          0.08460       -0.71260        3.17920
H          2.64100       -2.43000       -0.72640
H         -1.64590        1.09220        2.26610
H         -3.06520        2.58480        0.93910
H         -1.12240        1.31470       -2.67330
H         -3.91630        4.27860       -0.24550
H         -5.19780        5.46650       -2.13600
H          8.17360       -7.83790        2.40200
H          7.02060       -7.05210        1.30770
H          9.12800       -5.73000        1.44170
H          7.83700       -4.79730        2.21140
H          9.00500       -5.67410        3.20210
H          2.31730       -6.51110        7.55460
H          3.02990       -7.95350        8.31300
H          3.96850       -5.05430        8.64420
H          4.76710       -6.44320        9.39130
H          3.12100       -6.01240        9.86360
H          7.50120       -9.42700        6.41860
H          8.03940      -11.09210        8.34080
H          6.25750      -10.94940       10.26280
H         -3.88570        2.19240       -5.76320
H         -4.22770        2.70670       -7.43070
H         -2.35890        4.29650       -7.38810
H         -1.99280        3.89520       -5.70640
H         -1.77300        2.68230       -6.97050
H         -8.07980        9.24930       -5.27510
H         -7.75130        8.71050       -3.61250
H        -10.20000        8.70900       -4.09170
H         -9.95340        7.53440       -5.38700
H         -9.59750        7.09130       -3.71350
H         -6.81480        5.93590       -8.91640
H         -8.09840        7.16570      -10.81260
H         -9.49320        9.18350       -9.87730
