76
DTC-T-C.sdf
C         -2.88040        7.09220        0.28530
O         -2.44370        5.96050        0.38570
C         -2.19600        8.34040        0.64440
C         -3.05730        9.44900        0.36090
C         -4.30630        8.95170       -0.18380
C         -5.34900        9.75250       -0.57350
C         -6.57600        9.32380       -1.11400
N         -7.59800        9.04770       -1.56080
C         -5.26990       11.15620       -0.46250
N         -5.22380       12.29950       -0.37270
C         -4.20300        7.50270       -0.22240
C         -5.19440        6.66080       -0.65800
C         -5.23760        5.26200       -0.74010
C         -6.35840        4.57410       -1.20920
C         -6.21350        3.20030       -1.20810
C         -4.97270        2.78640       -0.74330
S         -3.98320        4.13430       -0.30050
C         -4.48230        1.43600       -0.61190
C         -5.35900        0.33730       -0.71940
C         -4.91040       -0.95560       -0.59030
C         -3.55750       -1.18060       -0.35450
C         -2.66810       -0.07850       -0.24760
C         -3.12440        1.22070       -0.36800
N         -1.39360       -0.54000       -0.03300
C         -0.22980        0.28080        0.17970
C         -0.07140        0.66310        1.65000
C         -1.43260       -1.91030        0.03110
C         -2.76610       -2.35450       -0.17380
C         -3.04900       -3.71720       -0.16480
C         -2.02520       -4.61020        0.04490
C         -0.69940       -4.17660        0.24860
C         -0.40630       -2.81120        0.24350
C          0.36760       -5.12720        0.44610
C          0.26610       -6.49360        0.66950
C          1.49470       -7.11210        0.79870
C          2.58140       -6.24390        0.67610
S          2.01960       -4.61650        0.40400
C          3.91040       -6.68370        0.75250
C          5.08980       -5.98990        0.65490
C          6.41130       -6.58970        0.73130
C          6.75230       -7.90900        0.88530
C          5.86350       -8.99350        1.00970
N          5.19870       -9.92540        1.10930
C          8.10330       -8.31080        0.93280
N          9.19750       -8.65480        0.97450
C          7.37240       -5.51100        0.60120
C          6.66860       -4.27380        0.44370
C          5.22400       -4.53270        0.46930
O          4.33020       -3.71310        0.36330
C         -0.99780        8.71120        1.16080
S         -0.90280       10.42770        1.30970
C         -2.49010       10.64650        0.67060
C          8.72370       -5.35100        0.58640
S          9.14380       -3.69030        0.38110
C          7.49020       -3.20240        0.31300
H         -6.11130        7.13020       -0.99580
H         -7.24470        5.08790       -1.53880
H         -6.97870        2.52780       -1.55110
H         -6.40820        0.51680       -0.88930
H         -5.59520       -1.78600       -0.66860
H         -2.45740        2.06490       -0.28350
H          0.64880       -0.27240       -0.16160
H         -0.32540        1.18100       -0.43310
H          0.02570       -0.22960        2.26360
H         -0.93790        1.22560        1.98960
H          0.81590        1.27580        1.78170
H         -4.05830       -4.06490       -0.32340
H         -2.23800       -5.66680        0.03920
H          0.60860       -2.48360        0.40900
H         -0.66790       -7.01970        0.74870
H          1.62500       -8.16550        0.97650
H          3.99170       -7.75320        0.90970
H         -0.17220        8.09840        1.46180
H         -2.88490       11.63770        0.57210
H          9.50130       -6.08200        0.68120
H          7.23870       -2.16910        0.18250
