DTC-T-F.sdf
  xtb     12202113073D
 energy: -146.516202116547 gnorm: 0.000386205965 xtb: 6.4.1 (unknown)
 83 91  0     0  0            999 V2000
   -2.3697   -6.3052   -3.7517 C   0  0  0  0  0  0  0  0  0  0  0  0
   -2.2351   -5.3481   -3.0120 O   0  0  0  0  0  0  0  0  0  0  0  0
   -3.5912   -6.7148   -4.4541 C   0  0  0  0  0  0  0  0  0  0  0  0
   -3.3253   -7.9014   -5.2105 C   0  0  0  0  0  0  0  0  0  0  0  0
   -1.9395   -8.2850   -5.0189 C   0  0  0  0  0  0  0  0  0  0  0  0
   -1.3569   -9.3801   -5.6029 C   0  0  0  0  0  0  0  0  0  0  0  0
   -0.0197   -9.7944   -5.4554 C   0  0  0  0  0  0  0  0  0  0  0  0
    1.0566  -10.1902   -5.3839 N   0  0  0  0  0  0  0  0  0  0  0  0
   -2.0951  -10.2319   -6.4507 C   0  0  0  0  0  0  0  0  0  0  0  0
   -2.6802  -10.9360   -7.1430 N   0  0  0  0  0  0  0  0  0  0  0  0
   -1.3476   -7.3009   -4.1275 C   0  0  0  0  0  0  0  0  0  0  0  0
   -0.0399   -7.3067   -3.7142 C   0  0  0  0  0  0  0  0  0  0  0  0
    0.6634   -6.4116   -2.8944 C   0  0  0  0  0  0  0  0  0  0  0  0
    2.0197   -6.5672   -2.6011 C   0  0  0  0  0  0  0  0  0  0  0  0
    2.5409   -5.5607   -1.8103 C   0  0  0  0  0  0  0  0  0  0  0  0
    1.5982   -4.6029   -1.4641 C   0  0  0  0  0  0  0  0  0  0  0  0
    0.0461   -4.9717   -2.1317 S   0  0  0  0  0  0  0  0  0  0  0  0
    1.7886   -3.4025   -0.6872 C   0  0  0  0  0  0  0  0  0  0  0  0
    3.0707   -2.9114   -0.4059 C   0  0  0  0  0  0  0  0  0  0  0  0
    3.2436   -1.7191    0.2659 C   0  0  0  0  0  0  0  0  0  0  0  0
    2.1243   -1.0139    0.6867 C   0  0  0  0  0  0  0  0  0  0  0  0
    0.8318   -1.5196    0.4599 C   0  0  0  0  0  0  0  0  0  0  0  0
    0.6657   -2.6878   -0.2418 C   0  0  0  0  0  0  0  0  0  0  0  0
   -0.2202   -0.5743    1.0037 C   0  0  0  0  0  0  0  0  0  0  0  0
   -1.1290   -0.1509   -0.1694 C   0  0  0  0  0  0  0  0  0  0  0  0
   -2.2416    0.8376    0.1557 C   0  0  0  0  0  0  0  0  0  0  0  0
   -0.9831   -1.1785    2.2022 C   0  0  0  0  0  0  0  0  0  0  0  0
   -1.8442   -2.3970    1.8969 C   0  0  0  0  0  0  0  0  0  0  0  0
    0.6429    0.5577    1.5255 C   0  0  0  0  0  0  0  0  0  0  0  0
    2.0072    0.2716    1.3363 C   0  0  0  0  0  0  0  0  0  0  0  0
    2.9824    1.1740    1.7389 C   0  0  0  0  0  0  0  0  0  0  0  0
    2.5910    2.3602    2.3213 C   0  0  0  0  0  0  0  0  0  0  0  0
    1.2383    2.6517    2.5403 C   0  0  0  0  0  0  0  0  0  0  0  0
    0.2625    1.7199    2.1520 C   0  0  0  0  0  0  0  0  0  0  0  0
    0.8530    3.9088    3.1341 C   0  0  0  0  0  0  0  0  0  0  0  0
   -0.3961    4.2989    3.5902 C   0  0  0  0  0  0  0  0  0  0  0  0
   -0.4433    5.5982    4.0746 C   0  0  0  0  0  0  0  0  0  0  0  0
    0.7742    6.2582    4.0022 C   0  0  0  0  0  0  0  0  0  0  0  0
    1.9919    5.1942    3.3230 S   0  0  0  0  0  0  0  0  0  0  0  0
    1.1991    7.5590    4.3322 C   0  0  0  0  0  0  0  0  0  0  0  0
    0.5349    8.6433    4.8421 C   0  0  0  0  0  0  0  0  0  0  0  0
    1.1895    9.9257    5.0726 C   0  0  0  0  0  0  0  0  0  0  0  0
    2.4917   10.2877    4.8402 C   0  0  0  0  0  0  0  0  0  0  0  0
    2.9436   11.5934    5.1263 C   0  0  0  0  0  0  0  0  0  0  0  0
    3.3329   12.6488    5.3538 N   0  0  0  0  0  0  0  0  0  0  0  0
    3.5213    9.4844    4.3128 C   0  0  0  0  0  0  0  0  0  0  0  0
    4.4165    8.9021    3.8882 N   0  0  0  0  0  0  0  0  0  0  0  0
    0.1911   10.8279    5.6110 C   0  0  0  0  0  0  0  0  0  0  0  0
   -1.0554   10.1341    5.7144 C   0  0  0  0  0  0  0  0  0  0  0  0
   -0.8934    8.7520    5.2440 C   0  0  0  0  0  0  0  0  0  0  0  0
   -1.7581    7.9019    5.2081 O   0  0  0  0  0  0  0  0  0  0  0  0
   -4.8692   -6.2763   -4.5754 C   0  0  0  0  0  0  0  0  0  0  0  0
   -5.7715   -7.3105   -5.6207 S   0  0  0  0  0  0  0  0  0  0  0  0
   -4.4158   -8.3413   -5.8956 C   0  0  0  0  0  0  0  0  0  0  0  0
    0.1082   12.1199    6.0327 C   0  0  0  0  0  0  0  0  0  0  0  0
   -1.4915   12.4934    6.5576 S   0  0  0  0  0  0  0  0  0  0  0  0
   -2.0584   10.9018    6.2091 C   0  0  0  0  0  0  0  0  0  0  0  0
    0.5782   -8.1195   -4.0784 H   0  0  0  0  0  0  0  0  0  0  0  0
    2.5902   -7.4009   -2.9720 H   0  0  0  0  0  0  0  0  0  0  0  0
    3.5659   -5.5354   -1.4871 H   0  0  0  0  0  0  0  0  0  0  0  0
    3.9362   -3.4546   -0.7513 H   0  0  0  0  0  0  0  0  0  0  0  0
    4.2358   -1.3342    0.4472 H   0  0  0  0  0  0  0  0  0  0  0  0
   -0.3163   -3.0694   -0.4751 H   0  0  0  0  0  0  0  0  0  0  0  0
   -1.5724   -1.0543   -0.5904 H   0  0  0  0  0  0  0  0  0  0  0  0
   -0.4869    0.2832   -0.9406 H   0  0  0  0  0  0  0  0  0  0  0  0
   -2.8663    0.9723   -0.7249 H   0  0  0  0  0  0  0  0  0  0  0  0
   -2.8734    0.4756    0.9623 H   0  0  0  0  0  0  0  0  0  0  0  0
   -1.8383    1.8089    0.4275 H   0  0  0  0  0  0  0  0  0  0  0  0
   -1.6100   -0.3960    2.6332 H   0  0  0  0  0  0  0  0  0  0  0  0
   -0.2420   -1.4512    2.9588 H   0  0  0  0  0  0  0  0  0  0  0  0
   -2.5754   -2.1845    1.1220 H   0  0  0  0  0  0  0  0  0  0  0  0
   -2.3818   -2.6901    2.7965 H   0  0  0  0  0  0  0  0  0  0  0  0
   -1.2331   -3.2384    1.5834 H   0  0  0  0  0  0  0  0  0  0  0  0
    4.0293    0.9554    1.5942 H   0  0  0  0  0  0  0  0  0  0  0  0
    3.3359    3.0803    2.6277 H   0  0  0  0  0  0  0  0  0  0  0  0
   -0.7771    1.9319    2.3371 H   0  0  0  0  0  0  0  0  0  0  0  0
   -1.2545    3.6518    3.5834 H   0  0  0  0  0  0  0  0  0  0  0  0
   -1.3280    6.0632    4.4680 H   0  0  0  0  0  0  0  0  0  0  0  0
    2.2514    7.7165    4.1245 H   0  0  0  0  0  0  0  0  0  0  0  0
   -5.3367   -5.4231   -4.1265 H   0  0  0  0  0  0  0  0  0  0  0  0
   -4.5237   -9.1909   -6.5395 H   0  0  0  0  0  0  0  0  0  0  0  0
    0.8642   12.8779    6.0745 H   0  0  0  0  0  0  0  0  0  0  0  0
   -3.0822   10.6424    6.3898 H   0  0  0  0  0  0  0  0  0  0  0  0
  1  2  2  0  0  0  0
  1  3  1  0  0  0  0
  3  4  1  0  0  0  0
  4  5  1  0  0  0  0
  5  6  2  0  0  0  0
  6  7  1  0  0  0  0
  7  8  3  0  0  0  0
  6  9  1  0  0  0  0
  9 10  3  0  0  0  0
  5 11  1  0  0  0  0
  1 11  1  0  0  0  0
 11 12  2  0  0  0  0
 12 13  1  0  0  0  0
 13 14  2  0  0  0  0
 14 15  1  0  0  0  0
 15 16  2  0  0  0  0
 16 17  1  0  0  0  0
 13 17  1  0  0  0  0
 16 18  1  0  0  0  0
 18 19  2  0  0  0  0
 19 20  1  0  0  0  0
 20 21  2  0  0  0  0
 21 22  1  0  0  0  0
 22 23  2  0  0  0  0
 18 23  1  0  0  0  0
 22 24  1  0  0  0  0
 24 25  1  0  0  0  0
 25 26  1  0  0  0  0
 24 27  1  0  0  0  0
 27 28  1  0  0  0  0
 24 29  1  0  0  0  0
 29 30  2  0  0  0  0
 21 30  1  0  0  0  0
 30 31  1  0  0  0  0
 31 32  2  0  0  0  0
 32 33  1  0  0  0  0
 33 34  2  0  0  0  0
 29 34  1  0  0  0  0
 33 35  1  0  0  0  0
 35 36  2  0  0  0  0
 36 37  1  0  0  0  0
 37 38  2  0  0  0  0
 38 39  1  0  0  0  0
 35 39  1  0  0  0  0
 38 40  1  0  0  0  0
 40 41  2  0  0  0  0
 41 42  1  0  0  0  0
 42 43  2  0  0  0  0
 43 44  1  0  0  0  0
 44 45  3  0  0  0  0
 43 46  1  0  0  0  0
 46 47  3  0  0  0  0
 42 48  1  0  0  0  0
 48 49  1  0  0  0  0
 49 50  1  0  0  0  0
 41 50  1  0  0  0  0
 50 51  2  0  0  0  0
  3 52  2  0  0  0  0
 52 53  1  0  0  0  0
 53 54  1  0  0  0  0
 54  4  2  0  0  0  0
 48 55  2  0  0  0  0
 55 56  1  0  0  0  0
 56 57  1  0  0  0  0
 57 49  2  0  0  0  0
 12 58  1  0  0  0  0
 14 59  1  0  0  0  0
 15 60  1  0  0  0  0
 19 61  1  0  0  0  0
 20 62  1  0  0  0  0
 23 63  1  0  0  0  0
 25 64  1  0  0  0  0
 25 65  1  0  0  0  0
 26 66  1  0  0  0  0
 26 67  1  0  0  0  0
 26 68  1  0  0  0  0
 27 69  1  0  0  0  0
 27 70  1  0  0  0  0
 28 71  1  0  0  0  0
 28 72  1  0  0  0  0
 28 73  1  0  0  0  0
 31 74  1  0  0  0  0
 32 75  1  0  0  0  0
 34 76  1  0  0  0  0
 36 77  1  0  0  0  0
 37 78  1  0  0  0  0
 40 79  1  0  0  0  0
 52 80  1  0  0  0  0
 54 81  1  0  0  0  0
 55 82  1  0  0  0  0
 57 83  1  0  0  0  0
M  END
