154
DTCC-BC.sdf
C          3.56370       -3.16320       -7.63510
C          4.53080       -4.12200       -7.77930
C          5.35760       -4.71310       -6.70710
C          6.21150       -5.70080       -7.37330
C          5.93130       -5.70130       -8.72460
C          4.90100       -4.74340       -9.04010
O          5.33760       -4.44240       -5.51950
C          4.41340       -4.51770      -10.30320
C          4.90640       -5.23910      -11.41080
C          3.41160       -3.59380      -10.65370
N          5.29980       -5.81000      -12.32540
N          2.59920       -2.86350      -11.01000
C         -1.44060        2.59860        7.83720
C         -0.83490        2.19950        8.99910
C          0.34470        1.31920        9.12360
C          0.58920        1.19620       10.56320
C         -0.35350        1.93690       11.24650
C         -1.26440        2.58260       10.33400
O          0.98470        0.80270        8.22490
C         -2.30780        3.38660       10.71990
C         -2.56380        3.63830       12.08410
C         -3.21710        4.03430        9.86320
N         -2.78430        3.85300       13.18980
N         -3.99180        4.59420        9.22550
C         -1.13800        2.30730        6.49970
C         -1.89720        2.81520        5.43670
C         -1.43300        2.39720        4.20820
C         -0.31020        1.57600        4.31270
S          0.18140        1.29820        5.92490
C         -1.79730        2.61570        2.76130
C         -0.72120        1.79360        2.06730
C          0.13440        1.17200        3.01590
C         -1.73640        4.10400        2.47850
C         -3.13740        2.01930        2.37100
C         -0.55700        1.57870        0.72320
C          0.47620        0.72850        0.32770
C          1.32280        0.10340        1.28480
C          1.16830        0.32710        2.64440
C         -0.62110        4.69810        1.90760
C         -0.58560        6.06600        1.70100
C         -1.65500        6.87250        2.06340
C         -2.76300        6.27400        2.65110
C         -2.80390        4.90950        2.85860
C         -3.77570        2.44560        1.21300
C         -4.96000        1.86050        0.80730
C         -5.53890        0.83550        1.54360
C         -4.89530        0.41020        2.69790
C         -3.70800        0.98950        3.10570
C         -1.59950        8.36110        1.87370
C         -1.05050        9.04100        3.12950
C         -6.79890        0.16590        1.07560
C         -6.46600       -1.07210        0.24010
C          0.90880        0.27240       -0.95310
C          1.99100       -0.62060       -0.71830
N          2.21660       -0.70990        0.63300
C          3.26400       -1.47280        1.25940
C          4.54770       -0.65660        1.40150
C          0.46060        0.54000       -2.24710
C          1.09370       -0.09980       -3.28120
C          2.15260       -1.01460       -3.03590
C          2.62750       -1.27730       -1.76070
C          0.78080       -0.01430       -4.76750
C          1.74370       -1.03580       -5.31870
C          2.53710       -1.56210       -4.29910
C         -0.68090       -0.36390       -4.96140
C          1.13420        1.32170       -5.39590
C         -1.08770       -1.68020       -5.12530
C         -2.43120       -1.99230       -5.22810
C         -3.40110       -1.00180       -5.16480
C         -2.98920        0.31410       -4.99590
C         -1.64870        0.63090       -4.89280
C          1.92190        2.25710       -4.74210
C          2.27040        3.43990       -5.37020
C          1.85360        3.71240       -6.66530
C          1.06960        2.76880       -7.31800
C          0.71710        1.58800       -6.69510
C         -4.86280       -1.34200       -5.21890
C         -5.43570       -1.44910       -3.80410
C          2.20010        5.01330       -7.33040
C          1.10720        6.05330       -7.07520
C          2.06310       -1.55200       -6.55590
C          3.09720       -2.49570       -6.49410
S          3.67620       -2.71080       -4.84880
C          1.51340        0.54180       11.41500
C          1.22030        0.82720       12.76880
S         -0.17090        1.88010       12.95770
C          2.59510       -0.28550       11.10580
C          3.35350       -0.80280       12.13080
C          3.05490       -0.51190       13.46340
C          1.98970        0.30170       13.79460
C          7.21720       -6.63080       -7.00960
C          7.67750       -7.32750       -8.15120
S          6.87170       -6.82640       -9.62700
C          7.76670       -6.92300       -5.75940
C          8.74570       -7.88560       -5.66930
C          9.19120       -8.56640       -6.80410
C          8.66410       -8.29540       -8.05090
H          3.05250       -2.85620       -8.54050
H         -2.30190        3.24850        7.94220
H         -2.74600        3.45540        5.59870
H         -1.20250        2.03840       -0.00870
H          1.79870       -0.12950        3.39100
H          0.22430        4.09110        1.61770
H          0.28870        6.51180        1.24780
H         -3.60450        6.88430        2.94660
H         -3.67760        4.45990        3.30820
H         -3.34860        3.24920        0.63040
H         -5.44350        2.20760       -0.09500
H         -5.32850       -0.38590        3.28690
H         -3.22420        0.63610        4.00470
H         -0.95820        8.60290        1.02360
H         -2.60070        8.74470        1.66670
H         -1.68470        8.82290        3.98580
H         -1.01050       10.11920        2.99220
H         -0.04750        8.68040        3.34690
H         -7.40190       -0.13230        1.93570
H         -7.38550        0.86090        0.47170
H         -5.90570       -1.79020        0.83460
H         -7.37670       -1.54910       -0.11440
H         -5.86040       -0.79680       -0.62040
H          3.45090       -2.36410        0.65520
H          2.91450       -1.79700        2.24300
H          5.32010       -1.25430        1.87750
H          4.90310       -0.33970        0.42380
H          4.36680        0.22830        2.00720
H         -0.35820        1.22130       -2.41750
H          3.44150       -1.96880       -1.61040
H         -0.35120       -2.46920       -5.17260
H         -2.72910       -3.02300       -5.35910
H         -3.72830        1.10130       -4.94580
H         -1.34940        1.66180       -4.76810
H          2.26600        2.06460       -3.73630
H          2.88240        4.15950       -4.84470
H          0.73650        2.95920       -8.32830
H          0.10440        0.86690       -7.21660
H         -5.00490       -2.29090       -5.73920
H         -5.40330       -0.56730       -5.76720
H         -4.91660       -2.22340       -3.24340
H         -5.31380       -0.50580       -3.27610
H         -6.49460       -1.69470       -3.83790
H          3.14990        5.38660       -6.94200
H          2.30690        4.86120       -8.40630
H          0.99430        6.22900       -6.00760
H          1.35730        6.99500       -7.55810
H          0.15430        5.70420       -7.46680
H          1.58630       -1.29150       -7.48400
H          2.81230       -0.49990       10.07110
H          4.19310       -1.44320       11.90640
H          3.66690       -0.93000       14.24820
H          1.75710        0.52720       14.82350
H          7.41150       -6.38800       -4.89260
H          9.17900       -8.12170       -4.70920
H          9.96020       -9.31740       -6.70510
H          9.00640       -8.82010       -8.92920
