103
DTDfBT_TDPP2.sdf
C          0.38680        0.70610       -0.26900
C         -0.31680       -0.33880        0.31820
C         -0.18100       -1.67490       -0.07080
C          0.66730       -2.11940       -1.07970
C          1.40640       -1.07980       -1.71310
C          1.26100        0.29530       -1.31200
N          2.28320       -1.20740       -2.70570
S          2.86330        0.24120       -3.09520
N          2.03340        1.10730       -2.02520
C          0.79280       -3.49530       -1.44860
C          0.27450        2.08120        0.10650
C          0.83950        5.91750        0.08300
C          1.67500        6.49790       -0.85270
C          1.76040        7.87980       -0.73990
C          0.99280        8.40450        0.29010
S          0.15530        7.12280        1.12800
C          0.90360        9.78210        0.61110
C          1.56740       10.81670       -0.04810
C          1.22580       12.04320        0.58380
C          0.32510       11.75340        1.66330
N          0.17210       10.35390        1.62950
C          2.47440       11.12530       -1.12060
N          2.63310       12.52710       -1.06600
C          1.88790       13.08690       -0.05080
C         -0.72860        9.72230        2.56170
C         -2.10690        9.48340        1.95080
O         -0.22880       12.46620        2.48000
O          3.04480       10.43220       -1.94400
C          1.80960       14.45950        0.32060
S          0.73470       14.88030        1.63700
C          1.16400       16.52730        1.50180
C          2.07940       16.75750        0.51640
C          2.44760       15.58780       -0.15770
C          3.42870       13.18380       -2.07310
C          2.56090       13.85890       -3.13270
C          0.22880       -7.33120       -1.45500
S         -0.98340       -7.75420       -0.29030
C         -0.82560       -9.45190       -0.65640
C          0.13420       -9.64050       -1.64070
C          0.71800       -8.46120       -2.08620
C         -1.55570      -10.49030       -0.02520
C         -1.38590      -11.85710       -0.24020
C         -2.27750      -12.56670        0.61290
C         -3.02710      -11.59610        1.36610
N         -2.53430      -10.35080        0.93340
C         -0.62720      -12.82710       -0.98280
N         -1.09800      -14.07420       -0.52480
C         -2.08240      -13.93280        0.42510
C         -3.12600       -9.14020        1.44830
C         -4.16220       -8.55870        0.49040
O         -3.90040      -11.70080        2.20830
O          0.24380      -12.72290       -1.82800
C         -2.76310      -14.96980        1.12210
S         -2.45170      -16.68150        0.95040
C         -3.64910      -17.06100        2.11190
C         -4.25800      -15.94830        2.60920
C         -3.76050      -14.76230        2.05390
C         -0.58800      -15.28510       -1.11890
C         -1.52290      -15.82810       -2.19630
C         -0.49190        2.64440        1.11100
C         -0.36140        4.02480        1.19640
C          0.50600        4.55150        0.25870
S          1.17800        3.30040       -0.74620
S         -0.13680       -4.73800       -0.66230
C          0.59390       -5.97130       -1.63580
C          1.50790       -5.42690       -2.52010
C          1.61650       -4.04410       -2.41500
F         -1.18800       -0.10490        1.31650
F         -0.93810       -2.56300        0.60190
H          2.19660        5.91700       -1.59230
H          2.35830        8.50190       -1.38230
H         -0.82250       10.42120        3.39870
H         -0.29360        8.78960        2.92760
H         -2.54350       10.43200        1.64800
H         -2.75750        9.01770        2.68530
H         -2.04260        8.83430        1.08100
H          0.71900       17.24750        2.16010
H          2.47540       17.72910        0.28040
H          3.16020       15.59260       -0.95940
H          4.11460       13.89140       -1.60150
H          4.01940       12.38980       -2.54090
H          1.89290       14.59110       -2.68490
H          1.95940       13.11160       -3.64420
H          3.19110       14.35750       -3.86410
H          0.39300      -10.61760       -2.00910
H          1.47860       -8.42310       -2.84430
H         -2.34690       -8.40890        1.67480
H         -3.61890       -9.42900        2.38180
H         -4.96350       -9.27680        0.33380
H         -3.71580       -8.31850       -0.47140
H         -4.58240       -7.65120        0.91390
H         -3.82860      -18.08860        2.35960
H         -5.03750      -15.97890        3.34880
H         -4.10890      -13.78060        2.32070
H          0.36760      -15.00880       -1.57500
H         -0.40570      -16.03320       -0.34410
H         -1.64520      -15.08900       -2.98430
H         -1.10050      -16.73160       -2.62630
H         -2.50070      -16.06330       -1.78340
H         -1.12640        2.07720        1.76480
H         -0.88050        4.63450        1.91500
H          2.07350       -6.01800       -3.21700
H          2.27090       -3.43890       -3.01410
