84
DTI.sdf
C          0.62900       -1.09670        1.16550
C          0.00550        0.12510        1.30560
C         -0.47050        0.81840        0.13040
C         -0.60720        0.12720       -1.05470
C         -0.09230       -1.21690       -1.16360
C          0.62010       -1.76260       -0.11540
C         -0.71500        2.20080        1.93160
C         -1.03980        3.30300        2.70890
C         -1.39630        4.49210        2.04840
C         -1.37830        4.51850        0.66480
C         -1.08500        3.38180       -0.10600
C         -0.80310        2.18570        0.52220
C         -0.27080        0.97050        2.46450
C         -0.28720        0.83470        3.83780
C         -0.64950        1.92920        4.64010
C         -0.99620        3.15830        4.10700
C         -1.35790        4.31900        4.93680
N         -1.72700        5.46920        4.24590
C         -1.75150        5.66180        2.86790
C         -2.09080        6.62500        5.06300
C         -0.87430        7.49000        5.36530
O         -2.06040        6.73490        2.39390
O         -1.35110        4.29480        6.14970
C          1.82080       -3.04080        1.35320
C          2.64480       -4.03430        1.86380
C          3.05270       -3.93010        3.20560
C          2.67910       -2.81300        3.93100
C          1.88380       -1.79280        3.38460
C          1.40450       -1.91360        2.09620
C          1.41630       -2.98110        0.00090
C          1.92510       -3.93730       -0.85440
C          2.72400       -4.97350       -0.34500
C          3.07370       -5.05040        0.99110
C          3.92280       -6.12310        1.53410
N          4.23990       -6.02320        2.88500
C          3.90230       -4.99650        3.76100
C          5.07680       -7.09030        3.42970
C          6.55600       -6.77840        3.24430
O          4.28860       -5.00470        4.91090
O          4.32620       -7.05190        0.86620
C         -1.16110       -0.69360       -3.11760
C         -1.75840       -0.82090       -4.36440
C         -1.65330       -2.05810       -5.02490
C         -1.02490       -3.10770       -4.37930
C         -0.46230       -2.97430       -3.09990
C         -0.48170       -1.74800       -2.46710
C         -1.29020        0.45450       -2.30450
C         -2.07390        1.48450       -2.78300
C         -2.64400        1.39080       -4.06250
C         -2.49360        0.27070       -4.86000
C         -3.12060        0.14620       -6.18600
N         -2.93760       -1.07130       -6.83360
C         -2.27620       -2.19610       -6.35150
C         -3.56700       -1.20640       -8.14550
C         -4.98440       -1.75010       -8.02030
O         -2.22610       -3.21750       -7.00420
O         -3.75950        1.03850       -6.70300
H         -1.61280        5.44970        0.17020
H         -1.05530        3.48410       -1.17850
H         -0.06470       -0.10240        4.32130
H         -0.65530        1.82050        5.71480
H         -2.52630        6.24570        5.98890
H         -2.83370        7.19820        4.50570
H         -0.43410        7.85480        4.44020
H         -0.13130        6.91540        5.91360
H         -1.17330        8.34170        5.96950
H          3.03380       -2.72330        4.94730
H          1.69840       -0.91650        3.98230
H          1.76410       -3.89430       -1.91870
H          3.09980       -5.73330       -1.01460
H          4.83820       -7.18210        4.49050
H          4.81560       -8.01080        2.90470
H          6.78880       -6.67980        2.18660
H          7.15400       -7.58420        3.66010
H          6.81180       -5.85310        3.75530
H         -0.99110       -4.06550       -4.87750
H         -0.06580       -3.85550       -2.62400
H         -2.30050        2.35290       -2.18830
H         -3.24360        2.20700       -4.43810
H         -3.57940       -0.21680       -8.60490
H         -2.95100       -1.88710       -8.73540
H         -4.96920       -2.73480       -7.55930
H         -5.59140       -1.08070       -7.41520
H         -5.43260       -1.83260       -9.00630
