110
DTNR.sdf
C          0.02610       -7.01690       -1.48500
C         -0.51830       -7.27390       -2.73850
C         -0.34910       -8.48110       -3.40630
C          0.41490       -9.51790       -2.89050
C          0.92010       -9.33450       -1.57950
C          0.73130       -8.09380       -0.87670
N          1.55510      -10.23850       -0.83770
S          1.92210       -9.58180        0.57860
N          1.26940       -8.13150        0.34080
C          0.65070      -10.72600       -3.63330
C         -1.37240        6.63090       -0.03600
C         -1.78850        7.77510       -0.71130
C         -1.53330        9.05760       -0.24100
C         -0.87200        9.31160        0.95490
C         -0.38120        8.17870        1.64970
C         -0.64240        6.85340        1.16250
N          0.39000        8.16430        2.73470
S          0.70410        6.64220        3.13150
N         -0.08690        5.92100        1.93110
C         -0.64930       10.65430        1.41090
C         -0.09090       -5.74290       -0.85120
C         -0.61200       11.06490        2.69870
C         -1.05820       10.34030        3.89290
N         -0.79250       11.09400        5.02750
C         -0.28310       12.33790        4.85490
S         -0.08410       12.67970        3.14240
S          0.09550       13.38610        6.04620
C         -1.12570       10.57830        6.34090
C         -2.49120       11.07350        6.80040
O         -1.63730        9.27890        3.93820
C          1.80420      -11.42970       -3.62470
C          3.10780      -10.99750       -3.10850
N          4.03010      -12.02510       -3.23690
C          3.62460      -13.16540       -3.84680
S          1.95020      -13.01540       -4.36250
S          4.54540      -14.48780       -4.09920
C          5.37090      -11.86540       -2.70990
C          5.46650      -12.42070       -1.29450
O          3.41000       -9.89940       -2.69930
C          0.35890       -5.36920        0.40240
C          0.14560       -4.02040        0.66670
C         -0.49770       -3.35980       -0.37040
S         -0.82850       -4.39340       -1.69770
C          0.39240       -3.06900        1.80970
C         -0.12270       -1.76950        1.21200
C         -0.67100       -1.97620       -0.05730
C         -0.47680       -3.54150        2.99630
C          1.88600       -2.91620        2.15070
C         -0.43030       -2.66490        4.24050
C          2.55180       -4.15850        2.72820
C         -0.04830       -0.48230        1.73740
C         -0.53970        0.57660        1.01120
C         -1.13370        0.38850       -0.24980
C         -1.22040       -0.91590       -0.81330
C         -1.64810        1.45470       -1.02170
C         -2.27060        1.23800       -2.25410
C         -2.33620       -0.04730       -2.78530
C         -1.81230       -1.10190       -2.07550
C         -1.62850        2.86570       -0.79450
C         -2.22690        3.53430       -1.85520
C         -2.73740        2.54580       -2.87400
C         -4.27710        2.66030       -2.90180
C         -2.07200        2.70920       -4.25340
C         -4.99970        1.68710       -3.82350
C         -2.38780        4.01000       -4.97970
S         -1.03040        3.93310        0.40770
C         -1.60570        5.30470       -0.50930
C         -2.23500        4.91230       -1.68230
H         -1.08270       -6.48990       -3.22250
H         -0.78070       -8.59580       -4.39000
H         -0.16770      -11.09250       -4.24090
H         -2.33370        7.67040       -1.63600
H         -1.89900        9.89860       -0.81260
H         -0.48500       11.39930        0.64140
H         -0.34820       10.90220        7.03690
H         -1.12450        9.48940        6.25470
H         -2.71620       10.66270        7.78020
H         -2.49610       12.15880        6.86780
H         -3.26100       10.75570        6.10100
H          6.06350      -12.38610       -3.37490
H          5.57900      -10.79260       -2.71540
H          4.75180      -11.91830       -0.64620
H          5.25760      -13.48780       -1.29390
H          6.46800      -12.26060       -0.90620
H          0.81760       -6.08200        1.06120
H         -0.16660       -4.55540        3.25480
H         -1.51050       -3.59740        2.64400
H          1.99520       -2.09050        2.85540
H          2.40460       -2.62930        1.23190
H         -0.83370       -1.67720        4.03570
H         -1.03550       -3.11970        5.02220
H          0.58370       -2.56200        4.61730
H          2.08190       -4.46420        3.65900
H          3.59830       -3.94280        2.93390
H          2.51070       -4.98570        2.02610
H          0.40980       -0.30420        2.69780
H         -0.47390        1.57880        1.40720
H         -2.77440       -0.22260       -3.75550
H         -1.85110       -2.09940       -2.48720
H         -4.63470        2.50900       -1.87980
H         -4.53200        3.68280       -3.18620
H         -2.37000        1.86790       -4.88060
H         -0.99100        2.63810       -4.10670
H         -4.65990        1.78450       -4.85110
H         -4.85280        0.66140       -3.49770
H         -6.06720        1.89710       -3.80070
H         -1.88710        4.01500       -5.94570
H         -2.03270        4.86630       -4.41390
H         -3.45500        4.11950       -5.15290
H         -2.67350        5.61480       -2.36680
