DTNR.sdf
  xtb     12202113143D
 energy: -184.554672504720 gnorm: 0.000143476151 xtb: 6.4.1 (unknown)
110121  0     0  0            999 V2000
    0.0261   -7.0169   -1.4850 C   0  0  0  0  0  0  0  0  0  0  0  0
   -0.5183   -7.2739   -2.7385 C   0  0  0  0  0  0  0  0  0  0  0  0
   -0.3491   -8.4811   -3.4063 C   0  0  0  0  0  0  0  0  0  0  0  0
    0.4149   -9.5179   -2.8905 C   0  0  0  0  0  0  0  0  0  0  0  0
    0.9201   -9.3345   -1.5795 C   0  0  0  0  0  0  0  0  0  0  0  0
    0.7313   -8.0938   -0.8767 C   0  0  0  0  0  0  0  0  0  0  0  0
    1.5551  -10.2385   -0.8377 N   0  0  0  0  0  0  0  0  0  0  0  0
    1.9221   -9.5818    0.5786 S   0  0  0  0  0  0  0  0  0  0  0  0
    1.2694   -8.1315    0.3408 N   0  0  0  0  0  0  0  0  0  0  0  0
    0.6507  -10.7260   -3.6333 C   0  0  0  0  0  0  0  0  0  0  0  0
   -1.3724    6.6309   -0.0360 C   0  0  0  0  0  0  0  0  0  0  0  0
   -1.7885    7.7751   -0.7113 C   0  0  0  0  0  0  0  0  0  0  0  0
   -1.5333    9.0576   -0.2410 C   0  0  0  0  0  0  0  0  0  0  0  0
   -0.8720    9.3116    0.9549 C   0  0  0  0  0  0  0  0  0  0  0  0
   -0.3812    8.1787    1.6497 C   0  0  0  0  0  0  0  0  0  0  0  0
   -0.6424    6.8534    1.1625 C   0  0  0  0  0  0  0  0  0  0  0  0
    0.3900    8.1643    2.7347 N   0  0  0  0  0  0  0  0  0  0  0  0
    0.7041    6.6422    3.1315 S   0  0  0  0  0  0  0  0  0  0  0  0
   -0.0869    5.9210    1.9311 N   0  0  0  0  0  0  0  0  0  0  0  0
   -0.6493   10.6543    1.4109 C   0  0  0  0  0  0  0  0  0  0  0  0
   -0.0909   -5.7429   -0.8512 C   0  0  0  0  0  0  0  0  0  0  0  0
   -0.6120   11.0649    2.6987 C   0  0  0  0  0  0  0  0  0  0  0  0
   -1.0582   10.3403    3.8929 C   0  0  0  0  0  0  0  0  0  0  0  0
   -0.7925   11.0940    5.0275 N   0  0  0  0  0  0  0  0  0  0  0  0
   -0.2831   12.3379    4.8549 C   0  0  0  0  0  0  0  0  0  0  0  0
   -0.0841   12.6797    3.1424 S   0  0  0  0  0  0  0  0  0  0  0  0
    0.0955   13.3861    6.0462 S   0  0  0  0  0  0  0  0  0  0  0  0
   -1.1257   10.5783    6.3409 C   0  0  0  0  0  0  0  0  0  0  0  0
   -2.4912   11.0735    6.8004 C   0  0  0  0  0  0  0  0  0  0  0  0
   -1.6373    9.2789    3.9382 O   0  0  0  0  0  0  0  0  0  0  0  0
    1.8042  -11.4297   -3.6247 C   0  0  0  0  0  0  0  0  0  0  0  0
    3.1078  -10.9975   -3.1085 C   0  0  0  0  0  0  0  0  0  0  0  0
    4.0301  -12.0251   -3.2369 N   0  0  0  0  0  0  0  0  0  0  0  0
    3.6246  -13.1654   -3.8468 C   0  0  0  0  0  0  0  0  0  0  0  0
    1.9502  -13.0154   -4.3625 S   0  0  0  0  0  0  0  0  0  0  0  0
    4.5454  -14.4878   -4.0992 S   0  0  0  0  0  0  0  0  0  0  0  0
    5.3709  -11.8654   -2.7099 C   0  0  0  0  0  0  0  0  0  0  0  0
    5.4665  -12.4207   -1.2945 C   0  0  0  0  0  0  0  0  0  0  0  0
    3.4100   -9.8994   -2.6993 O   0  0  0  0  0  0  0  0  0  0  0  0
    0.3589   -5.3692    0.4024 C   0  0  0  0  0  0  0  0  0  0  0  0
    0.1456   -4.0204    0.6667 C   0  0  0  0  0  0  0  0  0  0  0  0
   -0.4977   -3.3598   -0.3704 C   0  0  0  0  0  0  0  0  0  0  0  0
   -0.8285   -4.3934   -1.6977 S   0  0  0  0  0  0  0  0  0  0  0  0
    0.3924   -3.0690    1.8097 C   0  0  0  0  0  0  0  0  0  0  0  0
   -0.1227   -1.7695    1.2120 C   0  0  0  0  0  0  0  0  0  0  0  0
   -0.6710   -1.9762   -0.0573 C   0  0  0  0  0  0  0  0  0  0  0  0
   -0.4768   -3.5415    2.9963 C   0  0  0  0  0  0  0  0  0  0  0  0
    1.8860   -2.9162    2.1507 C   0  0  0  0  0  0  0  0  0  0  0  0
   -0.4303   -2.6649    4.2405 C   0  0  0  0  0  0  0  0  0  0  0  0
    2.5518   -4.1585    2.7282 C   0  0  0  0  0  0  0  0  0  0  0  0
   -0.0483   -0.4823    1.7374 C   0  0  0  0  0  0  0  0  0  0  0  0
   -0.5397    0.5766    1.0112 C   0  0  0  0  0  0  0  0  0  0  0  0
   -1.1337    0.3885   -0.2498 C   0  0  0  0  0  0  0  0  0  0  0  0
   -1.2204   -0.9159   -0.8133 C   0  0  0  0  0  0  0  0  0  0  0  0
   -1.6481    1.4547   -1.0217 C   0  0  0  0  0  0  0  0  0  0  0  0
   -2.2706    1.2380   -2.2541 C   0  0  0  0  0  0  0  0  0  0  0  0
   -2.3362   -0.0473   -2.7853 C   0  0  0  0  0  0  0  0  0  0  0  0
   -1.8123   -1.1019   -2.0755 C   0  0  0  0  0  0  0  0  0  0  0  0
   -1.6285    2.8657   -0.7945 C   0  0  0  0  0  0  0  0  0  0  0  0
   -2.2269    3.5343   -1.8552 C   0  0  0  0  0  0  0  0  0  0  0  0
   -2.7374    2.5458   -2.8740 C   0  0  0  0  0  0  0  0  0  0  0  0
   -4.2771    2.6603   -2.9018 C   0  0  0  0  0  0  0  0  0  0  0  0
   -2.0720    2.7092   -4.2534 C   0  0  0  0  0  0  0  0  0  0  0  0
   -4.9997    1.6871   -3.8235 C   0  0  0  0  0  0  0  0  0  0  0  0
   -2.3878    4.0100   -4.9797 C   0  0  0  0  0  0  0  0  0  0  0  0
   -1.0304    3.9331    0.4077 S   0  0  0  0  0  0  0  0  0  0  0  0
   -1.6057    5.3047   -0.5093 C   0  0  0  0  0  0  0  0  0  0  0  0
   -2.2350    4.9123   -1.6823 C   0  0  0  0  0  0  0  0  0  0  0  0
   -1.0827   -6.4899   -3.2225 H   0  0  0  0  0  0  0  0  0  0  0  0
   -0.7807   -8.5958   -4.3900 H   0  0  0  0  0  0  0  0  0  0  0  0
   -0.1677  -11.0925   -4.2409 H   0  0  0  0  0  0  0  0  0  0  0  0
   -2.3337    7.6704   -1.6360 H   0  0  0  0  0  0  0  0  0  0  0  0
   -1.8990    9.8986   -0.8126 H   0  0  0  0  0  0  0  0  0  0  0  0
   -0.4850   11.3993    0.6414 H   0  0  0  0  0  0  0  0  0  0  0  0
   -0.3482   10.9022    7.0369 H   0  0  0  0  0  0  0  0  0  0  0  0
   -1.1245    9.4894    6.2547 H   0  0  0  0  0  0  0  0  0  0  0  0
   -2.7162   10.6627    7.7802 H   0  0  0  0  0  0  0  0  0  0  0  0
   -2.4961   12.1588    6.8678 H   0  0  0  0  0  0  0  0  0  0  0  0
   -3.2610   10.7557    6.1010 H   0  0  0  0  0  0  0  0  0  0  0  0
    6.0635  -12.3861   -3.3749 H   0  0  0  0  0  0  0  0  0  0  0  0
    5.5790  -10.7926   -2.7154 H   0  0  0  0  0  0  0  0  0  0  0  0
    4.7518  -11.9183   -0.6462 H   0  0  0  0  0  0  0  0  0  0  0  0
    5.2576  -13.4878   -1.2939 H   0  0  0  0  0  0  0  0  0  0  0  0
    6.4680  -12.2606   -0.9062 H   0  0  0  0  0  0  0  0  0  0  0  0
    0.8176   -6.0820    1.0612 H   0  0  0  0  0  0  0  0  0  0  0  0
   -0.1666   -4.5554    3.2548 H   0  0  0  0  0  0  0  0  0  0  0  0
   -1.5105   -3.5974    2.6440 H   0  0  0  0  0  0  0  0  0  0  0  0
    1.9952   -2.0905    2.8554 H   0  0  0  0  0  0  0  0  0  0  0  0
    2.4046   -2.6293    1.2319 H   0  0  0  0  0  0  0  0  0  0  0  0
   -0.8337   -1.6772    4.0357 H   0  0  0  0  0  0  0  0  0  0  0  0
   -1.0355   -3.1197    5.0222 H   0  0  0  0  0  0  0  0  0  0  0  0
    0.5837   -2.5620    4.6173 H   0  0  0  0  0  0  0  0  0  0  0  0
    2.0819   -4.4642    3.6590 H   0  0  0  0  0  0  0  0  0  0  0  0
    3.5983   -3.9428    2.9339 H   0  0  0  0  0  0  0  0  0  0  0  0
    2.5107   -4.9857    2.0261 H   0  0  0  0  0  0  0  0  0  0  0  0
    0.4098   -0.3042    2.6978 H   0  0  0  0  0  0  0  0  0  0  0  0
   -0.4739    1.5788    1.4072 H   0  0  0  0  0  0  0  0  0  0  0  0
   -2.7744   -0.2226   -3.7555 H   0  0  0  0  0  0  0  0  0  0  0  0
   -1.8511   -2.0994   -2.4872 H   0  0  0  0  0  0  0  0  0  0  0  0
   -4.6347    2.5090   -1.8798 H   0  0  0  0  0  0  0  0  0  0  0  0
   -4.5320    3.6828   -3.1862 H   0  0  0  0  0  0  0  0  0  0  0  0
   -2.3700    1.8679   -4.8806 H   0  0  0  0  0  0  0  0  0  0  0  0
   -0.9910    2.6381   -4.1067 H   0  0  0  0  0  0  0  0  0  0  0  0
   -4.6599    1.7845   -4.8511 H   0  0  0  0  0  0  0  0  0  0  0  0
   -4.8528    0.6614   -3.4977 H   0  0  0  0  0  0  0  0  0  0  0  0
   -6.0672    1.8971   -3.8007 H   0  0  0  0  0  0  0  0  0  0  0  0
   -1.8871    4.0150   -5.9457 H   0  0  0  0  0  0  0  0  0  0  0  0
   -2.0327    4.8663   -4.4139 H   0  0  0  0  0  0  0  0  0  0  0  0
   -3.4550    4.1195   -5.1529 H   0  0  0  0  0  0  0  0  0  0  0  0
   -2.6735    5.6148   -2.3668 H   0  0  0  0  0  0  0  0  0  0  0  0
  1  2  2  0  0  0  0
  2  3  1  0  0  0  0
  3  4  2  0  0  0  0
  4  5  1  0  0  0  0
  5  6  1  0  0  0  0
  6  1  1  0  0  0  0
  5  7  2  0  0  0  0
  7  8  1  0  0  0  0
  8  9  1  0  0  0  0
  9  6  2  0  0  0  0
  4 10  1  0  0  0  0
 11 12  2  0  0  0  0
 12 13  1  0  0  0  0
 13 14  2  0  0  0  0
 14 15  1  0  0  0  0
 15 16  1  0  0  0  0
 16 11  1  0  0  0  0
 15 17  2  0  0  0  0
 17 18  1  0  0  0  0
 18 19  1  0  0  0  0
 19 16  2  0  0  0  0
 14 20  1  0  0  0  0
  1 21  1  0  0  0  0
 20 22  2  0  0  0  0
 22 23  1  0  0  0  0
 23 24  1  0  0  0  0
 24 25  1  0  0  0  0
 25 26  1  0  0  0  0
 26 22  1  0  0  0  0
 25 27  2  0  0  0  0
 24 28  1  0  0  0  0
 28 29  1  0  0  0  0
 23 30  2  0  0  0  0
 10 31  2  0  0  0  0
 31 32  1  0  0  0  0
 32 33  1  0  0  0  0
 33 34  1  0  0  0  0
 34 35  1  0  0  0  0
 35 31  1  0  0  0  0
 34 36  2  0  0  0  0
 33 37  1  0  0  0  0
 37 38  1  0  0  0  0
 32 39  2  0  0  0  0
 21 40  2  0  0  0  0
 40 41  1  0  0  0  0
 41 42  2  0  0  0  0
 42 43  1  0  0  0  0
 43 21  1  0  0  0  0
 41 44  1  0  0  0  0
 44 45  1  0  0  0  0
 45 46  2  0  0  0  0
 46 42  1  0  0  0  0
 44 47  1  0  0  0  0
 44 48  1  0  0  0  0
 47 49  1  0  0  0  0
 48 50  1  0  0  0  0
 45 51  1  0  0  0  0
 51 52  2  0  0  0  0
 52 53  1  0  0  0  0
 53 54  2  0  0  0  0
 54 46  1  0  0  0  0
 53 55  1  0  0  0  0
 55 56  2  0  0  0  0
 56 57  1  0  0  0  0
 57 58  2  0  0  0  0
 58 54  1  0  0  0  0
 55 59  1  0  0  0  0
 59 60  2  0  0  0  0
 60 61  1  0  0  0  0
 61 56  1  0  0  0  0
 61 62  1  0  0  0  0
 61 63  1  0  0  0  0
 62 64  1  0  0  0  0
 63 65  1  0  0  0  0
 59 66  1  0  0  0  0
 66 67  1  0  0  0  0
 67 68  2  0  0  0  0
 68 60  1  0  0  0  0
 67 11  1  0  0  0  0
  2 69  1  0  0  0  0
  3 70  1  0  0  0  0
 10 71  1  0  0  0  0
 12 72  1  0  0  0  0
 13 73  1  0  0  0  0
 20 74  1  0  0  0  0
 28 75  1  0  0  0  0
 28 76  1  0  0  0  0
 29 77  1  0  0  0  0
 29 78  1  0  0  0  0
 29 79  1  0  0  0  0
 37 80  1  0  0  0  0
 37 81  1  0  0  0  0
 38 82  1  0  0  0  0
 38 83  1  0  0  0  0
 38 84  1  0  0  0  0
 40 85  1  0  0  0  0
 47 86  1  0  0  0  0
 47 87  1  0  0  0  0
 48 88  1  0  0  0  0
 48 89  1  0  0  0  0
 49 90  1  0  0  0  0
 49 91  1  0  0  0  0
 49 92  1  0  0  0  0
 50 93  1  0  0  0  0
 50 94  1  0  0  0  0
 50 95  1  0  0  0  0
 51 96  1  0  0  0  0
 52 97  1  0  0  0  0
 57 98  1  0  0  0  0
 58 99  1  0  0  0  0
 62100  1  0  0  0  0
 62101  1  0  0  0  0
 63102  1  0  0  0  0
 63103  1  0  0  0  0
 64104  1  0  0  0  0
 64105  1  0  0  0  0
 64106  1  0  0  0  0
 65107  1  0  0  0  0
 65108  1  0  0  0  0
 65109  1  0  0  0  0
 68110  1  0  0  0  0
M  END
