DTP-in-F.sdf
  xtb     12202113173D
 energy: -269.264266926817 gnorm: 0.000555390964 xtb: 6.4.1 (unknown)
148162  0     0  0            999 V2000
    3.0490   -2.5997   -3.7394 C   0  0  0  0  0  0  0  0  0  0  0  0
    3.3389   -3.2910   -2.5607 C   0  0  0  0  0  0  0  0  0  0  0  0
    2.2381   -1.1129   -3.4217 S   0  0  0  0  0  0  0  0  0  0  0  0
    2.3056   -1.3992   -1.7060 C   0  0  0  0  0  0  0  0  0  0  0  0
    2.9314   -2.5967   -1.4177 C   0  0  0  0  0  0  0  0  0  0  0  0
    1.7231   -0.4832   -0.7618 C   0  0  0  0  0  0  0  0  0  0  0  0
    1.8512   -0.6780    0.6200 C   0  0  0  0  0  0  0  0  0  0  0  0
    1.2508    0.1706    1.5182 C   0  0  0  0  0  0  0  0  0  0  0  0
    0.4685    1.2711    1.1342 C   0  0  0  0  0  0  0  0  0  0  0  0
    0.3683    1.4853   -0.2469 C   0  0  0  0  0  0  0  0  0  0  0  0
    0.9763    0.6421   -1.1449 C   0  0  0  0  0  0  0  0  0  0  0  0
   -0.2129    2.1197    2.0752 C   0  0  0  0  0  0  0  0  0  0  0  0
    0.0136    1.9506    3.7927 S   0  0  0  0  0  0  0  0  0  0  0  0
   -1.1216    3.2089    4.1031 C   0  0  0  0  0  0  0  0  0  0  0  0
   -1.6617    3.7197    2.9210 C   0  0  0  0  0  0  0  0  0  0  0  0
   -1.1298    3.1104    1.7807 C   0  0  0  0  0  0  0  0  0  0  0  0
    0.8228    0.9209   -2.4539 F   0  0  0  0  0  0  0  0  0  0  0  0
    1.4217   -0.0958    2.8276 F   0  0  0  0  0  0  0  0  0  0  0  0
   -3.9478    6.3936    9.5165 C   0  0  0  0  0  0  0  0  0  0  0  0
   -4.5647    6.4829    8.4747 O   0  0  0  0  0  0  0  0  0  0  0  0
   -4.4340    6.8679   10.8325 C   0  0  0  0  0  0  0  0  0  0  0  0
   -5.6467    7.4591   11.1257 C   0  0  0  0  0  0  0  0  0  0  0  0
   -5.8885    7.8085   12.4441 C   0  0  0  0  0  0  0  0  0  0  0  0
   -4.9322    7.5643   13.4299 C   0  0  0  0  0  0  0  0  0  0  0  0
   -3.7127    6.9740   13.1331 C   0  0  0  0  0  0  0  0  0  0  0  0
   -3.4630    6.6237   11.8152 C   0  0  0  0  0  0  0  0  0  0  0  0
   -2.3021    6.0030   11.1771 C   0  0  0  0  0  0  0  0  0  0  0  0
   -1.1142    5.7395   11.8087 C   0  0  0  0  0  0  0  0  0  0  0  0
    0.0576    5.2339   11.2053 C   0  0  0  0  0  0  0  0  0  0  0  0
    1.0619    4.8473   10.8037 N   0  0  0  0  0  0  0  0  0  0  0  0
   -0.8805    5.9793   13.1799 C   0  0  0  0  0  0  0  0  0  0  0  0
   -0.6247    6.1438   14.2866 N   0  0  0  0  0  0  0  0  0  0  0  0
   -2.6233    5.7968    9.7762 C   0  0  0  0  0  0  0  0  0  0  0  0
   -1.8336    5.0614    8.9233 C   0  0  0  0  0  0  0  0  0  0  0  0
   -7.0516    8.3833   12.7760 F   0  0  0  0  0  0  0  0  0  0  0  0
   -5.1950    7.9048   14.6968 F   0  0  0  0  0  0  0  0  0  0  0  0
    5.3970   -6.1961   -9.1112 C   0  0  0  0  0  0  0  0  0  0  0  0
    5.1899   -6.8271   -8.0945 O   0  0  0  0  0  0  0  0  0  0  0  0
    5.8112   -6.7866  -10.4040 C   0  0  0  0  0  0  0  0  0  0  0  0
    6.0360   -8.1174  -10.6949 C   0  0  0  0  0  0  0  0  0  0  0  0
    6.4080   -8.4374  -11.9902 C   0  0  0  0  0  0  0  0  0  0  0  0
    6.5448   -7.4400  -12.9558 C   0  0  0  0  0  0  0  0  0  0  0  0
    6.3209   -6.1032  -12.6612 C   0  0  0  0  0  0  0  0  0  0  0  0
    5.9501   -5.7753  -11.3662 C   0  0  0  0  0  0  0  0  0  0  0  0
    5.6520   -4.4889  -10.7356 C   0  0  0  0  0  0  0  0  0  0  0  0
    5.7839   -3.2715  -11.3524 C   0  0  0  0  0  0  0  0  0  0  0  0
    6.1702   -3.1076  -12.7001 C   0  0  0  0  0  0  0  0  0  0  0  0
    6.4731   -2.8998  -13.7875 N   0  0  0  0  0  0  0  0  0  0  0  0
    5.5918   -2.0063  -10.7568 C   0  0  0  0  0  0  0  0  0  0  0  0
    5.4798   -0.9340  -10.3607 N   0  0  0  0  0  0  0  0  0  0  0  0
    5.2657   -4.7477   -9.3604 C   0  0  0  0  0  0  0  0  0  0  0  0
    4.7663   -3.7789   -8.5203 C   0  0  0  0  0  0  0  0  0  0  0  0
    6.8995   -7.7775  -14.2010 F   0  0  0  0  0  0  0  0  0  0  0  0
    6.6366   -9.7153  -12.3189 F   0  0  0  0  0  0  0  0  0  0  0  0
    3.9881   -4.4631   -2.5258 O   0  0  0  0  0  0  0  0  0  0  0  0
    3.9303   -5.2798   -3.7160 C   0  0  0  0  0  0  0  0  0  0  0  0
    4.0474   -4.4258   -4.9567 C   0  0  0  0  0  0  0  0  0  0  0  0
    3.5114   -3.1355   -4.9564 C   0  0  0  0  0  0  0  0  0  0  0  0
    4.5539   -4.8031   -6.1863 C   0  0  0  0  0  0  0  0  0  0  0  0
    4.4037   -3.8269   -7.1683 C   0  0  0  0  0  0  0  0  0  0  0  0
    3.6345   -2.3888   -6.4973 S   0  0  0  0  0  0  0  0  0  0  0  0
   -1.5072    3.8002    5.3209 C   0  0  0  0  0  0  0  0  0  0  0  0
   -2.5699    4.7087    5.3204 C   0  0  0  0  0  0  0  0  0  0  0  0
   -3.3677    4.9196    4.0570 C   0  0  0  0  0  0  0  0  0  0  0  0
   -2.5414    4.7283    2.8851 O   0  0  0  0  0  0  0  0  0  0  0  0
   -0.7976    3.6397    6.8752 S   0  0  0  0  0  0  0  0  0  0  0  0
   -1.9528    4.7861    7.5547 C   0  0  0  0  0  0  0  0  0  0  0  0
   -2.8115    5.2592    6.5660 C   0  0  0  0  0  0  0  0  0  0  0  0
    5.1141   -6.2264   -3.6220 C   0  0  0  0  0  0  0  0  0  0  0  0
    2.5885   -6.0039   -3.7743 C   0  0  0  0  0  0  0  0  0  0  0  0
    2.1714   -6.6131   -4.9525 C   0  0  0  0  0  0  0  0  0  0  0  0
    0.9494   -7.2544   -5.0114 C   0  0  0  0  0  0  0  0  0  0  0  0
    0.1101   -7.3008   -3.9048 C   0  0  0  0  0  0  0  0  0  0  0  0
    0.5396   -6.7040   -2.7282 C   0  0  0  0  0  0  0  0  0  0  0  0
    1.7644   -6.0649   -2.6600 C   0  0  0  0  0  0  0  0  0  0  0  0
   -1.2016   -8.0282   -3.9663 C   0  0  0  0  0  0  0  0  0  0  0  0
   -1.0119   -9.5025   -3.6035 C   0  0  0  0  0  0  0  0  0  0  0  0
    6.3917   -5.6794   -3.6355 C   0  0  0  0  0  0  0  0  0  0  0  0
    7.5027   -6.4960   -3.5677 C   0  0  0  0  0  0  0  0  0  0  0  0
    7.3655   -7.8763   -3.4855 C   0  0  0  0  0  0  0  0  0  0  0  0
    6.0859   -8.4136   -3.4611 C   0  0  0  0  0  0  0  0  0  0  0  0
    4.9682   -7.6009   -3.5234 C   0  0  0  0  0  0  0  0  0  0  0  0
    8.5734   -8.7671   -3.4822 C   0  0  0  0  0  0  0  0  0  0  0  0
    8.9726   -9.1171   -4.9174 C   0  0  0  0  0  0  0  0  0  0  0  0
   -4.5217    3.9242    3.9662 C   0  0  0  0  0  0  0  0  0  0  0  0
   -3.8866    6.3461    4.0139 C   0  0  0  0  0  0  0  0  0  0  0  0
   -5.0915    6.6722    4.6226 C   0  0  0  0  0  0  0  0  0  0  0  0
   -5.5385    7.9792    4.6189 C   0  0  0  0  0  0  0  0  0  0  0  0
   -4.8017    8.9858    4.0070 C   0  0  0  0  0  0  0  0  0  0  0  0
   -3.5973    8.6504    3.4038 C   0  0  0  0  0  0  0  0  0  0  0  0
   -3.1392    7.3458    3.4100 C   0  0  0  0  0  0  0  0  0  0  0  0
   -4.9658    3.1797    5.0486 C   0  0  0  0  0  0  0  0  0  0  0  0
   -6.0200    2.2963    4.8987 C   0  0  0  0  0  0  0  0  0  0  0  0
   -6.6502    2.1338    3.6727 C   0  0  0  0  0  0  0  0  0  0  0  0
   -6.1991    2.8832    2.5931 C   0  0  0  0  0  0  0  0  0  0  0  0
   -5.1515    3.7712    2.7372 C   0  0  0  0  0  0  0  0  0  0  0  0
   -7.7614    1.1383    3.5056 C   0  0  0  0  0  0  0  0  0  0  0  0
   -7.2000   -0.2245    3.0947 C   0  0  0  0  0  0  0  0  0  0  0  0
   -5.2750   10.4100    4.0467 C   0  0  0  0  0  0  0  0  0  0  0  0
   -4.8115   11.0880    5.3377 C   0  0  0  0  0  0  0  0  0  0  0  0
    3.0889   -2.9818   -0.4286 H   0  0  0  0  0  0  0  0  0  0  0  0
    2.4264   -1.5015    1.0077 H   0  0  0  0  0  0  0  0  0  0  0  0
   -0.1896    2.3210   -0.6337 H   0  0  0  0  0  0  0  0  0  0  0  0
   -1.4328    3.3880    0.7896 H   0  0  0  0  0  0  0  0  0  0  0  0
   -6.3825    7.6429   10.3593 H   0  0  0  0  0  0  0  0  0  0  0  0
   -3.0105    6.8056   13.9326 H   0  0  0  0  0  0  0  0  0  0  0  0
   -0.9720    4.5856    9.3768 H   0  0  0  0  0  0  0  0  0  0  0  0
    5.9272   -8.8834   -9.9437 H   0  0  0  0  0  0  0  0  0  0  0  0
    6.4385   -5.3738  -13.4452 H   0  0  0  0  0  0  0  0  0  0  0  0
    4.6052   -2.8059   -8.9691 H   0  0  0  0  0  0  0  0  0  0  0  0
    5.0229   -5.7496   -6.3809 H   0  0  0  0  0  0  0  0  0  0  0  0
   -3.5883    5.9724    6.7704 H   0  0  0  0  0  0  0  0  0  0  0  0
    2.8064   -6.5955   -5.8253 H   0  0  0  0  0  0  0  0  0  0  0  0
    0.6409   -7.7229   -5.9347 H   0  0  0  0  0  0  0  0  0  0  0  0
   -0.0905   -6.7372   -1.8508 H   0  0  0  0  0  0  0  0  0  0  0  0
    2.0830   -5.6202   -1.7294 H   0  0  0  0  0  0  0  0  0  0  0  0
   -1.6170   -7.9564   -4.9734 H   0  0  0  0  0  0  0  0  0  0  0  0
   -1.9099   -7.5743   -3.2704 H   0  0  0  0  0  0  0  0  0  0  0  0
   -0.3188   -9.9760   -4.2951 H   0  0  0  0  0  0  0  0  0  0  0  0
   -0.6089   -9.5959   -2.5976 H   0  0  0  0  0  0  0  0  0  0  0  0
   -1.9618  -10.0298   -3.6478 H   0  0  0  0  0  0  0  0  0  0  0  0
    6.5122   -4.6074   -3.6988 H   0  0  0  0  0  0  0  0  0  0  0  0
    8.4901   -6.0573   -3.5811 H   0  0  0  0  0  0  0  0  0  0  0  0
    5.9594   -9.4843   -3.3908 H   0  0  0  0  0  0  0  0  0  0  0  0
    3.9832   -8.0415   -3.5000 H   0  0  0  0  0  0  0  0  0  0  0  0
    8.3562   -9.6860   -2.9344 H   0  0  0  0  0  0  0  0  0  0  0  0
    9.4066   -8.2626   -2.9891 H   0  0  0  0  0  0  0  0  0  0  0  0
    9.2081   -8.2136   -5.4753 H   0  0  0  0  0  0  0  0  0  0  0  0
    9.8444   -9.7668   -4.9227 H   0  0  0  0  0  0  0  0  0  0  0  0
    8.1551   -9.6259   -5.4229 H   0  0  0  0  0  0  0  0  0  0  0  0
   -5.6811    5.9041    5.1001 H   0  0  0  0  0  0  0  0  0  0  0  0
   -6.4764    8.2203    5.0972 H   0  0  0  0  0  0  0  0  0  0  0  0
   -3.0079    9.4188    2.9243 H   0  0  0  0  0  0  0  0  0  0  0  0
   -2.2010    7.0993    2.9365 H   0  0  0  0  0  0  0  0  0  0  0  0
   -4.5023    3.2922    6.0176 H   0  0  0  0  0  0  0  0  0  0  0  0
   -6.3585    1.7266    5.7522 H   0  0  0  0  0  0  0  0  0  0  0  0
   -6.6791    2.7760    1.6310 H   0  0  0  0  0  0  0  0  0  0  0  0
   -4.8115    4.3565    1.8957 H   0  0  0  0  0  0  0  0  0  0  0  0
   -8.4575    1.4861    2.7399 H   0  0  0  0  0  0  0  0  0  0  0  0
   -8.3089    1.0335    4.4441 H   0  0  0  0  0  0  0  0  0  0  0  0
   -8.0045   -0.9461    2.9746 H   0  0  0  0  0  0  0  0  0  0  0  0
   -6.6616   -0.1442    2.1529 H   0  0  0  0  0  0  0  0  0  0  0  0
   -6.5116   -0.5941    3.8514 H   0  0  0  0  0  0  0  0  0  0  0  0
   -4.8793   10.9577    3.1893 H   0  0  0  0  0  0  0  0  0  0  0  0
   -6.3653   10.4384    3.9978 H   0  0  0  0  0  0  0  0  0  0  0  0
   -5.1989   10.5562    6.2037 H   0  0  0  0  0  0  0  0  0  0  0  0
   -5.1623   12.1166    5.3745 H   0  0  0  0  0  0  0  0  0  0  0  0
   -3.7253   11.0886    5.3957 H   0  0  0  0  0  0  0  0  0  0  0  0
  1  2  2  0  0  0  0
  1  3  1  0  0  0  0
  3  4  1  0  0  0  0
  4  5  2  0  0  0  0
  5  2  1  0  0  0  0
  4  6  1  0  0  0  0
  7  8  2  0  0  0  0
  8  9  1  0  0  0  0
  9 10  2  0  0  0  0
 10 11  1  0  0  0  0
 11  6  2  0  0  0  0
  9 12  1  0  0  0  0
 12 13  1  0  0  0  0
 13 14  1  0  0  0  0
 14 15  2  0  0  0  0
 15 16  1  0  0  0  0
 16 12  2  0  0  0  0
  6  7  1  0  0  0  0
 11 17  1  0  0  0  0
  8 18  1  0  0  0  0
 19 20  2  0  0  0  0
 19 21  1  0  0  0  0
 21 22  2  0  0  0  0
 22 23  1  0  0  0  0
 23 24  2  0  0  0  0
 24 25  1  0  0  0  0
 25 26  2  0  0  0  0
 21 26  1  0  0  0  0
 26 27  1  0  0  0  0
 27 28  2  0  0  0  0
 28 29  1  0  0  0  0
 29 30  3  0  0  0  0
 28 31  1  0  0  0  0
 31 32  3  0  0  0  0
 27 33  1  0  0  0  0
 19 33  1  0  0  0  0
 33 34  2  0  0  0  0
 23 35  1  0  0  0  0
 24 36  1  0  0  0  0
 37 38  2  0  0  0  0
 37 39  1  0  0  0  0
 39 40  2  0  0  0  0
 40 41  1  0  0  0  0
 41 42  2  0  0  0  0
 42 43  1  0  0  0  0
 43 44  2  0  0  0  0
 39 44  1  0  0  0  0
 44 45  1  0  0  0  0
 45 46  2  0  0  0  0
 46 47  1  0  0  0  0
 47 48  3  0  0  0  0
 46 49  1  0  0  0  0
 49 50  3  0  0  0  0
 45 51  1  0  0  0  0
 37 51  1  0  0  0  0
 51 52  2  0  0  0  0
 42 53  1  0  0  0  0
 41 54  1  0  0  0  0
  2 55  1  0  0  0  0
 55 56  1  0  0  0  0
 56 57  1  0  0  0  0
 57 58  2  0  0  0  0
 58  1  1  0  0  0  0
 57 59  1  0  0  0  0
 59 60  2  0  0  0  0
 60 61  1  0  0  0  0
 61 58  1  0  0  0  0
 60 52  1  0  0  0  0
 14 62  1  0  0  0  0
 62 63  2  0  0  0  0
 63 64  1  0  0  0  0
 64 65  1  0  0  0  0
 65 15  1  0  0  0  0
 62 66  1  0  0  0  0
 66 67  1  0  0  0  0
 67 68  2  0  0  0  0
 68 63  1  0  0  0  0
 67 34  1  0  0  0  0
 70 71  2  0  0  0  0
 71 72  1  0  0  0  0
 72 73  2  0  0  0  0
 73 74  1  0  0  0  0
 74 75  2  0  0  0  0
 75 70  1  0  0  0  0
 73 76  1  0  0  0  0
 76 77  1  0  0  0  0
 69 78  2  0  0  0  0
 78 79  1  0  0  0  0
 79 80  2  0  0  0  0
 80 81  1  0  0  0  0
 81 82  2  0  0  0  0
 82 69  1  0  0  0  0
 80 83  1  0  0  0  0
 83 84  1  0  0  0  0
 86 87  2  0  0  0  0
 87 88  1  0  0  0  0
 88 89  2  0  0  0  0
 89 90  1  0  0  0  0
 90 91  2  0  0  0  0
 91 86  1  0  0  0  0
 85 92  2  0  0  0  0
 92 93  1  0  0  0  0
 93 94  2  0  0  0  0
 94 95  1  0  0  0  0
 95 96  2  0  0  0  0
 96 85  1  0  0  0  0
 94 97  1  0  0  0  0
 97 98  1  0  0  0  0
 89 99  1  0  0  0  0
 99100  1  0  0  0  0
 56 70  1  0  0  0  0
 56 69  1  0  0  0  0
 64 86  1  0  0  0  0
 64 85  1  0  0  0  0
  5101  1  0  0  0  0
  7102  1  0  0  0  0
 10103  1  0  0  0  0
 16104  1  0  0  0  0
 22105  1  0  0  0  0
 25106  1  0  0  0  0
 34107  1  0  0  0  0
 40108  1  0  0  0  0
 43109  1  0  0  0  0
 52110  1  0  0  0  0
 59111  1  0  0  0  0
 68112  1  0  0  0  0
 71113  1  0  0  0  0
 72114  1  0  0  0  0
 74115  1  0  0  0  0
 75116  1  0  0  0  0
 76117  1  0  0  0  0
 76118  1  0  0  0  0
 77119  1  0  0  0  0
 77120  1  0  0  0  0
 77121  1  0  0  0  0
 78122  1  0  0  0  0
 79123  1  0  0  0  0
 81124  1  0  0  0  0
 82125  1  0  0  0  0
 83126  1  0  0  0  0
 83127  1  0  0  0  0
 84128  1  0  0  0  0
 84129  1  0  0  0  0
 84130  1  0  0  0  0
 87131  1  0  0  0  0
 88132  1  0  0  0  0
 90133  1  0  0  0  0
 91134  1  0  0  0  0
 92135  1  0  0  0  0
 93136  1  0  0  0  0
 95137  1  0  0  0  0
 96138  1  0  0  0  0
 97139  1  0  0  0  0
 97140  1  0  0  0  0
 98141  1  0  0  0  0
 98142  1  0  0  0  0
 98143  1  0  0  0  0
 99144  1  0  0  0  0
 99145  1  0  0  0  0
100146  1  0  0  0  0
100147  1  0  0  0  0
100148  1  0  0  0  0
M  END
