DTPC-DFIC.sdf
  xtb     12202113223D
 energy: -268.910575113213 gnorm: 0.000403746923 xtb: 6.4.1 (unknown)
158175  0     0  0            999 V2000
   -5.2567    6.9942    2.6001 C   0  0  0  0  0  0  0  0  0  0  0  0
   -6.5335    7.4341    2.8587 C   0  0  0  0  0  0  0  0  0  0  0  0
   -7.8123    6.7265    2.6542 C   0  0  0  0  0  0  0  0  0  0  0  0
   -8.8466    7.5898    3.2696 C   0  0  0  0  0  0  0  0  0  0  0  0
   -8.2549    8.7606    3.7663 C   0  0  0  0  0  0  0  0  0  0  0  0
   -6.8195    8.7119    3.4863 C   0  0  0  0  0  0  0  0  0  0  0  0
   -8.0308    5.6656    2.1065 O   0  0  0  0  0  0  0  0  0  0  0  0
   -5.9435    9.7346    3.7468 C   0  0  0  0  0  0  0  0  0  0  0  0
   -6.3114   10.9523    4.3583 C   0  0  0  0  0  0  0  0  0  0  0  0
   -4.5676    9.7648    3.4334 C   0  0  0  0  0  0  0  0  0  0  0  0
   -6.5359   11.9630    4.8541 N   0  0  0  0  0  0  0  0  0  0  0  0
   -3.4477    9.8936    3.2113 N   0  0  0  0  0  0  0  0  0  0  0  0
  -10.2008    7.3447    3.3785 C   0  0  0  0  0  0  0  0  0  0  0  0
  -10.9782    8.3022    4.0091 C   0  0  0  0  0  0  0  0  0  0  0  0
  -10.3993    9.4680    4.5101 C   0  0  0  0  0  0  0  0  0  0  0  0
   -9.0392    9.7147    4.3961 C   0  0  0  0  0  0  0  0  0  0  0  0
    8.1719   -1.9707   -1.3609 C   0  0  0  0  0  0  0  0  0  0  0  0
    9.0329   -2.9394   -1.8233 C   0  0  0  0  0  0  0  0  0  0  0  0
    8.7660   -4.3699   -2.0650 C   0  0  0  0  0  0  0  0  0  0  0  0
   10.0612   -4.9526   -2.4826 C   0  0  0  0  0  0  0  0  0  0  0  0
   11.0474   -3.9555   -2.5009 C   0  0  0  0  0  0  0  0  0  0  0  0
   10.4330   -2.6852   -2.1119 C   0  0  0  0  0  0  0  0  0  0  0  0
    7.7327   -4.9966   -1.9443 O   0  0  0  0  0  0  0  0  0  0  0  0
   11.0956   -1.4845   -2.0770 C   0  0  0  0  0  0  0  0  0  0  0  0
   12.4668   -1.3309   -2.3749 C   0  0  0  0  0  0  0  0  0  0  0  0
   10.5448   -0.2228   -1.7662 C   0  0  0  0  0  0  0  0  0  0  0  0
   13.5747   -1.1298   -2.5979 N   0  0  0  0  0  0  0  0  0  0  0  0
   10.1968    0.8490   -1.5413 N   0  0  0  0  0  0  0  0  0  0  0  0
   10.3315   -6.2653   -2.8139 C   0  0  0  0  0  0  0  0  0  0  0  0
   11.6315   -6.5820   -3.1723 C   0  0  0  0  0  0  0  0  0  0  0  0
   12.6207   -5.5991   -3.1911 C   0  0  0  0  0  0  0  0  0  0  0  0
   12.3468   -4.2805   -2.8589 C   0  0  0  0  0  0  0  0  0  0  0  0
    6.7990   -1.9988   -1.0825 C   0  0  0  0  0  0  0  0  0  0  0  0
    5.8238   -2.9791   -1.2097 C   0  0  0  0  0  0  0  0  0  0  0  0
    4.5510   -2.5603   -0.8463 C   0  0  0  0  0  0  0  0  0  0  0  0
    4.5158   -1.2268   -0.4403 C   0  0  0  0  0  0  0  0  0  0  0  0
    6.0841   -0.5068   -0.4871 S   0  0  0  0  0  0  0  0  0  0  0  0
    3.3376   -3.4575   -0.7924 C   0  0  0  0  0  0  0  0  0  0  0  0
    2.0688   -2.6334   -0.7574 C   0  0  0  0  0  0  0  0  0  0  0  0
    2.1119   -1.2807   -0.3939 C   0  0  0  0  0  0  0  0  0  0  0  0
    3.3156   -0.5221   -0.1374 C   0  0  0  0  0  0  0  0  0  0  0  0
    0.8840   -0.6099   -0.2672 C   0  0  0  0  0  0  0  0  0  0  0  0
    0.9752    0.7049    0.1543 C   0  0  0  0  0  0  0  0  0  0  0  0
    2.1097    1.4625    0.4688 C   0  0  0  0  0  0  0  0  0  0  0  0
    3.3304    0.8098    0.2929 C   0  0  0  0  0  0  0  0  0  0  0  0
    0.8229   -3.1999   -1.0007 C   0  0  0  0  0  0  0  0  0  0  0  0
   -0.3793   -2.5039   -0.8887 C   0  0  0  0  0  0  0  0  0  0  0  0
   -0.4009   -1.1682   -0.4991 C   0  0  0  0  0  0  0  0  0  0  0  0
   -1.5881   -0.3300   -0.2993 C   0  0  0  0  0  0  0  0  0  0  0  0
   -1.4220    1.0076    0.1460 C   0  0  0  0  0  0  0  0  0  0  0  0
   -0.1414    1.4847    0.3636 C   0  0  0  0  0  0  0  0  0  0  0  0
   -2.4524    1.9286    0.4023 C   0  0  0  0  0  0  0  0  0  0  0  0
   -2.0721    3.2290    0.9055 C   0  0  0  0  0  0  0  0  0  0  0  0
   -0.7497    3.6410    1.1081 C   0  0  0  0  0  0  0  0  0  0  0  0
    0.2763    2.7409    0.8191 C   0  0  0  0  0  0  0  0  0  0  0  0
   -2.9146   -0.7048   -0.4917 C   0  0  0  0  0  0  0  0  0  0  0  0
   -3.9532    0.1947   -0.2665 C   0  0  0  0  0  0  0  0  0  0  0  0
   -3.7659    1.5011    0.1734 C   0  0  0  0  0  0  0  0  0  0  0  0
   -4.9343    2.4534    0.3246 C   0  0  0  0  0  0  0  0  0  0  0  0
   -4.5087    3.7335    1.0043 C   0  0  0  0  0  0  0  0  0  0  0  0
   -3.1744    4.0698    1.2317 C   0  0  0  0  0  0  0  0  0  0  0  0
   -5.3915    4.7115    1.4440 C   0  0  0  0  0  0  0  0  0  0  0  0
   -4.7736    5.8115    2.0232 C   0  0  0  0  0  0  0  0  0  0  0  0
   -3.0277    5.6118    1.9938 S   0  0  0  0  0  0  0  0  0  0  0  0
    1.6618    2.7072    0.8879 N   0  0  0  0  0  0  0  0  0  0  0  0
    2.5060    3.8231    1.2328 C   0  0  0  0  0  0  0  0  0  0  0  0
    2.8646    4.6564    0.0036 C   0  0  0  0  0  0  0  0  0  0  0  0
    3.2907   -4.3799   -1.9987 C   0  0  0  0  0  0  0  0  0  0  0  0
    3.5055   -4.2263    0.5231 C   0  0  0  0  0  0  0  0  0  0  0  0
    4.4805   -5.2133    0.6237 C   0  0  0  0  0  0  0  0  0  0  0  0
    4.6800   -5.8882    1.8120 C   0  0  0  0  0  0  0  0  0  0  0  0
    3.9198   -5.5962    2.9377 C   0  0  0  0  0  0  0  0  0  0  0  0
    2.9584   -4.6015    2.8371 C   0  0  0  0  0  0  0  0  0  0  0  0
    2.7536   -3.9220    1.6490 C   0  0  0  0  0  0  0  0  0  0  0  0
    3.6253   -3.8824   -3.2517 C   0  0  0  0  0  0  0  0  0  0  0  0
    3.5570   -4.6887   -4.3718 C   0  0  0  0  0  0  0  0  0  0  0  0
    3.1431   -6.0104   -4.2742 C   0  0  0  0  0  0  0  0  0  0  0  0
    2.7828   -6.4962   -3.0247 C   0  0  0  0  0  0  0  0  0  0  0  0
    2.8511   -5.6935   -1.9011 C   0  0  0  0  0  0  0  0  0  0  0  0
    3.0311   -6.8766   -5.4953 C   0  0  0  0  0  0  0  0  0  0  0  0
    1.6231   -6.7857   -6.0870 C   0  0  0  0  0  0  0  0  0  0  0  0
    4.1685   -6.3012    4.2396 C   0  0  0  0  0  0  0  0  0  0  0  0
    5.2265   -5.5573    5.0572 C   0  0  0  0  0  0  0  0  0  0  0  0
   -5.3670    2.7501   -1.1118 C   0  0  0  0  0  0  0  0  0  0  0  0
   -6.0481    1.8657    1.1789 C   0  0  0  0  0  0  0  0  0  0  0  0
   -5.7416    0.9885    2.2106 C   0  0  0  0  0  0  0  0  0  0  0  0
   -6.7358    0.4979    3.0371 C   0  0  0  0  0  0  0  0  0  0  0  0
   -8.0585    0.8833    2.8685 C   0  0  0  0  0  0  0  0  0  0  0  0
   -8.3582    1.7765    1.8482 C   0  0  0  0  0  0  0  0  0  0  0  0
   -7.3692    2.2661    1.0172 C   0  0  0  0  0  0  0  0  0  0  0  0
   -4.7776    3.7898   -1.8192 C   0  0  0  0  0  0  0  0  0  0  0  0
   -5.1167    4.0297   -3.1376 C   0  0  0  0  0  0  0  0  0  0  0  0
   -6.0450    3.2327   -3.7928 C   0  0  0  0  0  0  0  0  0  0  0  0
   -6.6194    2.1830   -3.0887 C   0  0  0  0  0  0  0  0  0  0  0  0
   -6.2816    1.9384   -1.7710 C   0  0  0  0  0  0  0  0  0  0  0  0
   -6.4506    3.5282   -5.2074 C   0  0  0  0  0  0  0  0  0  0  0  0
   -7.6089    4.5277   -5.2315 C   0  0  0  0  0  0  0  0  0  0  0  0
   -9.1456    0.3178    3.7359 C   0  0  0  0  0  0  0  0  0  0  0  0
   -9.7517   -0.9290    3.0880 C   0  0  0  0  0  0  0  0  0  0  0  0
  -11.1724   10.3748    5.1193 F   0  0  0  0  0  0  0  0  0  0  0  0
  -12.2966    8.1057    4.1409 F   0  0  0  0  0  0  0  0  0  0  0  0
   13.8696   -5.9324   -3.5383 F   0  0  0  0  0  0  0  0  0  0  0  0
   11.9413   -7.8424   -3.5030 F   0  0  0  0  0  0  0  0  0  0  0  0
   -4.4629    7.6608    2.9160 H   0  0  0  0  0  0  0  0  0  0  0  0
  -10.6417    6.4409    2.9894 H   0  0  0  0  0  0  0  0  0  0  0  0
   -8.6439   10.6310    4.8021 H   0  0  0  0  0  0  0  0  0  0  0  0
    8.6174   -1.0003   -1.1787 H   0  0  0  0  0  0  0  0  0  0  0  0
    9.5608   -7.0193   -2.7965 H   0  0  0  0  0  0  0  0  0  0  0  0
   13.1494   -3.5626   -2.8897 H   0  0  0  0  0  0  0  0  0  0  0  0
    6.0550   -3.9600   -1.5791 H   0  0  0  0  0  0  0  0  0  0  0  0
    4.2844    1.2881    0.4629 H   0  0  0  0  0  0  0  0  0  0  0  0
    0.7814   -4.2417   -1.2836 H   0  0  0  0  0  0  0  0  0  0  0  0
   -1.2982   -3.0308   -1.0968 H   0  0  0  0  0  0  0  0  0  0  0  0
   -0.5702    4.6370    1.4870 H   0  0  0  0  0  0  0  0  0  0  0  0
   -3.1614   -1.7013   -0.8256 H   0  0  0  0  0  0  0  0  0  0  0  0
   -4.9631   -0.1475   -0.4364 H   0  0  0  0  0  0  0  0  0  0  0  0
   -6.4594    4.6413    1.3626 H   0  0  0  0  0  0  0  0  0  0  0  0
    3.4152    3.4353    1.7003 H   0  0  0  0  0  0  0  0  0  0  0  0
    1.9772    4.4415    1.9632 H   0  0  0  0  0  0  0  0  0  0  0  0
    3.5013    5.4882    0.2910 H   0  0  0  0  0  0  0  0  0  0  0  0
    1.9641    5.0503   -0.4620 H   0  0  0  0  0  0  0  0  0  0  0  0
    3.3939    4.0469   -0.7252 H   0  0  0  0  0  0  0  0  0  0  0  0
    5.0844   -5.4679   -0.2334 H   0  0  0  0  0  0  0  0  0  0  0  0
    5.4387   -6.6557    1.8644 H   0  0  0  0  0  0  0  0  0  0  0  0
    2.3560   -4.3517    3.6991 H   0  0  0  0  0  0  0  0  0  0  0  0
    1.9953   -3.1543    1.6095 H   0  0  0  0  0  0  0  0  0  0  0  0
    3.9443   -2.8546   -3.3531 H   0  0  0  0  0  0  0  0  0  0  0  0
    3.8317   -4.2854   -5.3361 H   0  0  0  0  0  0  0  0  0  0  0  0
    2.4472   -7.5190   -2.9269 H   0  0  0  0  0  0  0  0  0  0  0  0
    2.5669   -6.0984   -0.9405 H   0  0  0  0  0  0  0  0  0  0  0  0
    3.2444   -7.9148   -5.2332 H   0  0  0  0  0  0  0  0  0  0  0  0
    3.7580   -6.5568   -6.2443 H   0  0  0  0  0  0  0  0  0  0  0  0
    1.5412   -7.4107   -6.9732 H   0  0  0  0  0  0  0  0  0  0  0  0
    1.3946   -5.7587   -6.3633 H   0  0  0  0  0  0  0  0  0  0  0  0
    0.8847   -7.1159   -5.3596 H   0  0  0  0  0  0  0  0  0  0  0  0
    4.5127   -7.3196    4.0489 H   0  0  0  0  0  0  0  0  0  0  0  0
    3.2419   -6.3549    4.8147 H   0  0  0  0  0  0  0  0  0  0  0  0
    6.1617   -5.5020    4.5045 H   0  0  0  0  0  0  0  0  0  0  0  0
    4.8956   -4.5434    5.2710 H   0  0  0  0  0  0  0  0  0  0  0  0
    5.4091   -6.0694    5.9990 H   0  0  0  0  0  0  0  0  0  0  0  0
   -4.7168    0.6846    2.3720 H   0  0  0  0  0  0  0  0  0  0  0  0
   -6.4762   -0.1882    3.8309 H   0  0  0  0  0  0  0  0  0  0  0  0
   -9.3782    2.1024    1.7061 H   0  0  0  0  0  0  0  0  0  0  0  0
   -7.6335    2.9634    0.2362 H   0  0  0  0  0  0  0  0  0  0  0  0
   -4.0432    4.4227   -1.3430 H   0  0  0  0  0  0  0  0  0  0  0  0
   -4.6477    4.8475   -3.6660 H   0  0  0  0  0  0  0  0  0  0  0  0
   -7.3399    1.5437   -3.5789 H   0  0  0  0  0  0  0  0  0  0  0  0
   -6.7475    1.1138   -1.2526 H   0  0  0  0  0  0  0  0  0  0  0  0
   -6.7592    2.6069   -5.7053 H   0  0  0  0  0  0  0  0  0  0  0  0
   -5.6037    3.9462   -5.7556 H   0  0  0  0  0  0  0  0  0  0  0  0
   -7.9039    4.7442   -6.2555 H   0  0  0  0  0  0  0  0  0  0  0  0
   -7.3158    5.4579   -4.7499 H   0  0  0  0  0  0  0  0  0  0  0  0
   -8.4678    4.1240   -4.7000 H   0  0  0  0  0  0  0  0  0  0  0  0
   -9.9289    1.0646    3.8798 H   0  0  0  0  0  0  0  0  0  0  0  0
   -8.7402    0.0540    4.7147 H   0  0  0  0  0  0  0  0  0  0  0  0
   -8.9878   -1.6903    2.9454 H   0  0  0  0  0  0  0  0  0  0  0  0
  -10.1748   -0.6828    2.1166 H   0  0  0  0  0  0  0  0  0  0  0  0
  -10.5389   -1.3400    3.7156 H   0  0  0  0  0  0  0  0  0  0  0  0
  1  2  2  0  0  0  0
  2  3  1  0  0  0  0
  3  4  1  0  0  0  0
  4  5  2  0  0  0  0
  5  6  1  0  0  0  0
  6  2  1  0  0  0  0
  3  7  2  0  0  0  0
  6  8  2  0  0  0  0
  8  9  1  0  0  0  0
  8 10  1  0  0  0  0
  9 11  3  0  0  0  0
 10 12  3  0  0  0  0
  4 13  1  0  0  0  0
 13 14  2  0  0  0  0
 14 15  1  0  0  0  0
 15 16  2  0  0  0  0
 16  5  1  0  0  0  0
 17 18  2  0  0  0  0
 18 19  1  0  0  0  0
 19 20  1  0  0  0  0
 20 21  2  0  0  0  0
 21 22  1  0  0  0  0
 22 18  1  0  0  0  0
 19 23  2  0  0  0  0
 22 24  2  0  0  0  0
 24 25  1  0  0  0  0
 24 26  1  0  0  0  0
 25 27  3  0  0  0  0
 26 28  3  0  0  0  0
 20 29  1  0  0  0  0
 29 30  2  0  0  0  0
 31 32  2  0  0  0  0
 32 21  1  0  0  0  0
 31 30  1  0  0  0  0
 17 33  1  0  0  0  0
 33 34  2  0  0  0  0
 34 35  1  0  0  0  0
 35 36  2  0  0  0  0
 36 37  1  0  0  0  0
 37 33  1  0  0  0  0
 35 38  1  0  0  0  0
 38 39  1  0  0  0  0
 39 40  1  0  0  0  0
 40 41  2  0  0  0  0
 41 36  1  0  0  0  0
 40 42  1  0  0  0  0
 42 43  2  0  0  0  0
 43 44  1  0  0  0  0
 44 45  2  0  0  0  0
 45 41  1  0  0  0  0
 39 46  2  0  0  0  0
 46 47  1  0  0  0  0
 47 48  2  0  0  0  0
 48 42  1  0  0  0  0
 48 49  1  0  0  0  0
 49 50  1  0  0  0  0
 50 51  2  0  0  0  0
 51 43  1  0  0  0  0
 50 52  1  0  0  0  0
 52 53  2  0  0  0  0
 53 54  1  0  0  0  0
 54 55  2  0  0  0  0
 55 51  1  0  0  0  0
 49 56  2  0  0  0  0
 56 57  1  0  0  0  0
 57 58  2  0  0  0  0
 58 52  1  0  0  0  0
 58 59  1  0  0  0  0
 59 60  1  0  0  0  0
 60 61  2  0  0  0  0
 61 53  1  0  0  0  0
 60 62  1  0  0  0  0
 62 63  2  0  0  0  0
 63 64  1  0  0  0  0
 64 61  1  0  0  0  0
 44 65  1  0  0  0  0
 65 55  1  0  0  0  0
 65 66  1  0  0  0  0
 66 67  1  0  0  0  0
 38 68  1  0  0  0  0
 38 69  1  0  0  0  0
 69 70  2  0  0  0  0
 70 71  1  0  0  0  0
 71 72  2  0  0  0  0
 72 73  1  0  0  0  0
 73 74  2  0  0  0  0
 74 69  1  0  0  0  0
 68 75  2  0  0  0  0
 75 76  1  0  0  0  0
 76 77  2  0  0  0  0
 77 78  1  0  0  0  0
 78 79  2  0  0  0  0
 79 68  1  0  0  0  0
 77 80  1  0  0  0  0
 80 81  1  0  0  0  0
 72 82  1  0  0  0  0
 82 83  1  0  0  0  0
 59 84  1  0  0  0  0
 59 85  1  0  0  0  0
 85 86  2  0  0  0  0
 86 87  1  0  0  0  0
 87 88  2  0  0  0  0
 88 89  1  0  0  0  0
 89 90  2  0  0  0  0
 90 85  1  0  0  0  0
 84 91  2  0  0  0  0
 91 92  1  0  0  0  0
 92 93  2  0  0  0  0
 93 94  1  0  0  0  0
 94 95  2  0  0  0  0
 95 84  1  0  0  0  0
 93 96  1  0  0  0  0
 96 97  1  0  0  0  0
 88 98  1  0  0  0  0
 98 99  1  0  0  0  0
 63  1  1  0  0  0  0
 15100  1  0  0  0  0
 14101  1  0  0  0  0
 31102  1  0  0  0  0
 30103  1  0  0  0  0
  1104  1  0  0  0  0
 13105  1  0  0  0  0
 16106  1  0  0  0  0
 17107  1  0  0  0  0
 29108  1  0  0  0  0
 32109  1  0  0  0  0
 34110  1  0  0  0  0
 45111  1  0  0  0  0
 46112  1  0  0  0  0
 47113  1  0  0  0  0
 54114  1  0  0  0  0
 56115  1  0  0  0  0
 57116  1  0  0  0  0
 62117  1  0  0  0  0
 66118  1  0  0  0  0
 66119  1  0  0  0  0
 67120  1  0  0  0  0
 67121  1  0  0  0  0
 67122  1  0  0  0  0
 70123  1  0  0  0  0
 71124  1  0  0  0  0
 73125  1  0  0  0  0
 74126  1  0  0  0  0
 75127  1  0  0  0  0
 76128  1  0  0  0  0
 78129  1  0  0  0  0
 79130  1  0  0  0  0
 80131  1  0  0  0  0
 80132  1  0  0  0  0
 81133  1  0  0  0  0
 81134  1  0  0  0  0
 81135  1  0  0  0  0
 82136  1  0  0  0  0
 82137  1  0  0  0  0
 83138  1  0  0  0  0
 83139  1  0  0  0  0
 83140  1  0  0  0  0
 86141  1  0  0  0  0
 87142  1  0  0  0  0
 89143  1  0  0  0  0
 90144  1  0  0  0  0
 91145  1  0  0  0  0
 92146  1  0  0  0  0
 94147  1  0  0  0  0
 95148  1  0  0  0  0
 96149  1  0  0  0  0
 96150  1  0  0  0  0
 97151  1  0  0  0  0
 97152  1  0  0  0  0
 97153  1  0  0  0  0
 98154  1  0  0  0  0
 98155  1  0  0  0  0
 99156  1  0  0  0  0
 99157  1  0  0  0  0
 99158  1  0  0  0  0
M  END
