158
DTPC-IC.sdf
C          0.15720       -8.31610        2.11470
C          1.32130       -9.02240        2.29730
C          2.68110       -8.48250        2.18680
C          3.59150       -9.62020        2.41620
C          2.83510      -10.77810        2.66650
C          1.41340      -10.43260        2.61300
O          3.01200       -7.33300        1.95190
C          0.38210      -11.30790        2.84270
C         -0.99270      -10.99620        2.81030
C          0.55510      -12.67080        3.16160
N         -2.13070      -10.83490        2.80680
N          0.61660      -13.78700        3.42480
C          4.97170       -9.64070        2.40260
C          5.61150      -10.84880        2.64350
C          4.87360      -11.99690        2.88920
C          3.48430      -11.97890        2.90450
C          4.33780        7.68030       -0.93150
C          5.64020        7.82980       -0.52020
C          6.53720        6.74860       -0.09800
C          7.82470        7.39000        0.22760
C          7.71880        8.77650        0.02250
C          6.36370        9.08160       -0.44070
O          6.29050        5.55670       -0.02880
C          5.89220       10.33910       -0.72180
C          4.58530       10.66000       -1.14280
C          6.66290       11.51570       -0.61810
N          3.54770       11.01810       -1.48400
N          7.23140       12.51190       -0.56020
C          8.99430        6.80590        0.67070
C         10.08510        7.62850        0.91610
C          9.99000        8.99770        0.71780
C          8.81400        9.58800        0.27130
C          3.53450        6.53670       -1.00580
C          2.20440        6.58710       -1.43020
C          1.54550        5.37030       -1.39040
C          2.37860        4.34830       -0.93350
S          3.97230        4.90580       -0.56340
C          0.10880        5.15430       -1.80650
C         -0.37410        3.77940       -1.38830
C          0.52990        2.79890       -0.95990
C          1.94360        3.00460       -0.74360
C          0.00860        1.52510       -0.67340
C          0.94090        0.58840       -0.26280
C          2.31810        0.73420       -0.06120
C          2.82730        2.00860       -0.31260
C         -1.71690        3.42820       -1.47260
C         -2.21070        2.16550       -1.15300
C         -1.35840        1.14710       -0.73830
C         -1.74240       -0.21340       -0.34470
C         -0.73360       -1.12170        0.07250
C          0.58270       -0.69510        0.09060
C         -0.94090       -2.43120        0.53880
C          0.22240       -3.19370        0.93020
C          1.52820       -2.69090        0.93010
C          1.73090       -1.37480        0.51280
C         -3.03190       -0.73290       -0.29330
C         -3.26780       -2.02400        0.17570
C         -2.26560       -2.88370        0.60940
C         -2.58920       -4.22520        1.23470
C         -1.34350       -5.07120        1.36310
C         -0.05390       -4.54500        1.28940
C         -1.32780       -6.42460        1.65520
C         -0.04930       -6.96470        1.81420
S          1.16600       -5.73190        1.58920
N          2.78800       -0.48060        0.41810
C          4.17030       -0.79780        0.66970
C          4.85810       -1.33250       -0.58570
C          0.00200        5.15640       -3.33120
C         -0.69460        6.26670       -1.15050
C         -0.85240        7.50400       -1.76380
C         -1.51870        8.52920       -1.11990
C         -2.03940        8.35340        0.15560
C         -1.86420        7.12260        0.77270
C         -1.19650        6.09460        0.13270
C          1.07940        4.76320       -4.11430
C          0.97500        4.72410       -5.49230
C         -0.20890        5.06770       -6.12980
C         -1.29220        5.43640       -5.34360
C         -1.19180        5.47720       -3.96590
C         -0.32820        4.99230       -7.62450
C         -0.74180        3.58470       -8.05860
C         -2.71850        9.48780        0.86660
C         -1.68470       10.37110        1.56810
C         -3.63240       -4.92190        0.37800
C         -3.04780       -4.02500        2.68210
C         -3.70060       -5.05050        3.35710
C         -4.06640       -4.90540        4.68110
C         -3.77970       -3.73870        5.37790
C         -3.11650       -2.72210        4.70610
C         -2.75010       -2.86230        3.37960
C         -3.23040       -5.63840       -0.74230
C         -4.16010       -6.25920       -1.55490
C         -5.51810       -6.17460       -1.27860
C         -5.91910       -5.43010       -0.17760
C         -4.99220       -4.80820        0.63830
C         -6.53130       -6.82580       -2.17490
C         -7.00110       -5.84780       -3.25360
C         -4.21690       -3.56300        6.80330
C         -5.60940       -2.93150        6.86010
H         -0.76830       -8.87150        2.20770
H          5.52460       -8.73450        2.20760
H          6.69010      -10.89670        2.63930
H          5.38630      -12.92920        3.07320
H          2.93950      -12.88840        3.09710
H          3.81860        8.57890       -1.24250
H          9.04360        5.73800        0.81840
H         11.01370        7.20130        1.26400
H         10.84730        9.62400        0.91420
H          8.77240       10.65490        0.12700
H          1.75100        7.51040       -1.74440
H          3.86680        2.26670       -0.17220
H         -2.42490        4.18010       -1.78810
H         -3.27360        1.99440       -1.23450
H          2.33030       -3.33800        1.25370
H         -3.87810       -0.13530       -0.59730
H         -4.29130       -2.36670        0.21880
H         -2.20790       -7.03680        1.74280
H          4.21270       -1.54560        1.46630
H          4.67460        0.10880        1.01540
H          5.89840       -1.56110       -0.37260
H          4.36410       -2.23860       -0.92910
H          4.81840       -0.59200       -1.38140
H         -0.45790        7.66970       -2.75610
H         -1.63350        9.48230       -1.61600
H         -2.25190        6.96500        1.76930
H         -1.06460        5.14820        0.63770
H          2.01430        4.48580       -3.65030
H          1.83060        4.42500       -6.08110
H         -2.22790        5.70090       -5.81550
H         -2.05070        5.77880       -3.38510
H         -1.07330        5.71000       -7.97340
H          0.62970        5.24330       -8.08470
H         -1.70330        3.32180       -7.62320
H         -0.00650        2.85520       -7.72660
H         -0.82320        3.52870       -9.14160
H         -3.27880       10.09160        0.14960
H         -3.42000        9.09600        1.60600
H         -0.98230       10.77970        0.84520
H         -2.17390       11.19540        2.08190
H         -1.12400        9.79030        2.29730
H         -3.93820       -5.96980        2.84360
H         -4.57770       -5.71490        5.18220
H         -2.87590       -1.80610        5.22700
H         -2.22890       -2.05210        2.89190
H         -2.17880       -5.71490       -0.98010
H         -3.82470       -6.82160       -2.41480
H         -6.97210       -5.33920        0.04930
H         -5.33350       -4.23990        1.49180
H         -7.39120       -7.15060       -1.58540
H         -6.09280       -7.70450       -2.65180
H         -6.15900       -5.51950       -3.85890
H         -7.73340       -6.32100       -3.90360
H         -7.45610       -4.97120       -2.79760
H         -3.50900       -2.92020        7.33070
H         -4.24000       -4.53180        7.30610
H         -5.60390       -1.96010        6.37050
H         -6.33300       -3.56590        6.35300
H         -5.92610       -2.79920        7.89200
