102
DTSiC-TC.sdf
C         -2.85200        6.27980       -4.91220
O         -2.14510        5.31440       -4.68670
C         -2.90190        7.06690       -6.15140
C         -3.85770        8.12250       -6.00040
C         -4.44280        8.04430       -4.67490
C         -5.39300        8.91480       -4.20260
C         -5.87680        9.96890       -5.00380
N         -6.28510       10.83080       -5.64310
C         -5.98880        8.89170       -2.92820
N         -6.51640        8.93430       -1.90780
C         -3.83250        6.90830       -4.00940
C         -4.14750        6.48920       -2.73890
C         -3.66980        5.41510       -1.98060
C         -4.15050        5.13320       -0.69430
C         -3.57440        4.02350       -0.11220
C         -2.62490        3.44080       -0.95570
S         -2.44980        4.24940       -2.45370
C         -1.93840        2.27060       -0.49560
C         -2.34290        1.84930        0.79960
Si        -3.64870        3.03610        1.49550
C         -2.99630        4.04740        2.97810
C         -1.62370        4.65960        2.71350
C         -5.33800        2.21780        1.82640
C         -6.41480        3.22530        2.21400
C         -1.76900        0.73300        1.36180
C         -0.79900        0.03390        0.64520
C         -0.40460        0.47250       -0.64800
C         -0.97070        1.59620       -1.22720
N          0.54970       -0.37850       -1.14490
C          1.23480       -0.23190       -2.40260
C          2.50170        0.60940       -2.25830
C          0.80920       -1.34250       -0.20450
C         -0.02250       -1.13140        0.92830
C          0.03810       -1.99760        2.01890
C          0.92020       -3.05320        1.98910
C          1.74930       -3.24350        0.84980
C          1.70440       -2.39860       -0.25020
C          2.61520       -4.37980        0.95700
C          2.55040       -5.15200        2.11860
Si         1.23900       -4.42390        3.26320
C         -0.26880       -5.57890        3.46090
C         -0.76280       -6.13320        2.12770
C          1.94770       -3.82550        4.92850
C          0.94960       -2.99780        5.73040
C          3.43730       -6.20660        2.07180
C          4.19520       -6.26080        0.89370
S          3.76360       -4.94440       -0.17950
C          5.15600       -7.25170        0.66630
C          6.00440       -7.46020       -0.39470
C          6.96940       -8.54110       -0.47500
C          7.21240       -9.55130        0.42180
C          6.54980       -9.76150        1.64500
N          6.05230       -9.99880        2.65350
C          8.20440      -10.52160        0.17350
N          9.00950      -11.31890       -0.01010
C          7.68010       -8.38160       -1.72990
C          7.16150       -7.23760       -2.41740
C          6.09700       -6.62940       -1.60820
O          5.43650       -5.64590       -1.88900
C         -3.96160        8.89900       -7.11250
S         -2.89420        8.34580       -8.35060
C         -2.29980        7.05830       -7.36630
C          7.76720       -7.00730       -3.60850
S          8.98760       -8.19030       -3.91080
C          8.67680       -9.00030       -2.41890
H         -4.90100        7.06910       -2.21810
H         -4.90450        5.74500       -0.22980
H         -3.70110        4.84410        3.21750
H         -2.94000        3.40800        3.85980
H         -1.27840        5.22240        3.57860
H         -0.89430        3.88300        2.49520
H         -1.66390        5.33380        1.86140
H         -5.66130        1.67110        0.93990
H         -5.23460        1.48210        2.62430
H         -6.13880        3.75170        3.12410
H         -6.55470        3.95900        1.42430
H         -7.36620        2.72560        2.38630
H         -2.06210        0.39870        2.34570
H         -0.68560        1.95320       -2.20530
H          1.48620       -1.22770       -2.77690
H          0.55150        0.23730       -3.11480
H          2.99830        0.70340       -3.21990
H          2.25490        1.60360       -1.89310
H          3.18700        0.14210       -1.55490
H         -0.60480       -1.83810        2.87170
H          2.35130       -2.57710       -1.09590
H         -0.01300       -6.40790        4.12160
H         -1.08210       -5.03690        3.94440
H          0.01810       -6.71420        1.64280
H         -1.62770       -6.77740        2.27370
H         -1.04630       -5.32410        1.45850
H          2.25280       -4.68760        5.52210
H          2.84600       -3.23200        4.75590
H          0.05370       -3.57570        5.94300
H          0.66090       -2.10760        5.17730
H          1.38310       -2.68330        6.67790
H          3.55990       -6.93570        2.85390
H          5.23110       -7.95950        1.48400
H         -4.58360        9.75150       -7.29790
H         -1.55500        6.38930       -7.74800
H          7.58200       -6.23070       -4.32310
H          9.25100       -9.86790       -2.16330
