108
DTSiC-IC.sdf
C          9.84580        0.29470        1.82420
O          9.46670        0.75920        0.76690
C         11.24570        0.28010        2.29320
C         12.36440        0.79180        1.66560
C         13.58920        0.66720        2.30530
C         13.67430        0.04460        3.54220
C         12.55090       -0.47230        4.17450
C         11.32240       -0.35520        3.54260
C          9.98040       -0.78880        3.92980
C          9.69350       -1.50780        5.06180
C         10.65630       -1.90160        6.01580
N         11.37340       -2.25140        6.84170
C          8.42940       -1.99210        5.46010
N          7.45400       -2.44280        5.86830
C          9.05730       -0.35410        2.89410
C          7.69730       -0.51200        2.98480
C          6.64950       -0.17850        2.11090
C          6.60320        0.38620        0.84080
C          5.31770        0.52450        0.34260
C          4.34790        0.06590        1.23070
S          5.02030       -0.54180        2.68220
C          2.96890        0.15620        0.85180
C          2.78200        0.71720       -0.44000
Si         4.45620        1.18330       -1.20280
C          4.89160        0.21980       -2.78780
C          6.30940        0.50550       -3.27180
C          4.66360        3.07280       -1.37970
C          4.23890        3.83210       -0.12600
C          1.50810        0.87700       -0.93300
C          0.42220        0.48430       -0.15230
C          0.62950       -0.07640        1.13680
C          1.90630       -0.24840        1.64700
N         -0.58380       -0.36320        1.70850
C         -0.77940       -0.99320        2.98830
C         -0.77670       -2.51630        2.87240
C         -1.57530       -0.02840        0.82170
C         -0.99200        0.51610       -0.35400
C         -1.79820        0.95330       -1.40390
C         -3.16460        0.85320       -1.28800
C         -3.72870        0.30250       -0.10610
C         -2.94980       -0.14460        0.95160
C         -5.16100        0.27000       -0.12980
C         -5.82180        0.75830       -1.25410
Si        -4.53630        1.36000       -2.49770
C         -4.61590        3.24940       -2.75890
C         -5.84580        3.69180       -3.54570
C         -4.54420        0.35170       -4.12110
C         -5.95100        0.01850       -4.61270
C         -7.20000        0.68040       -1.13700
C         -7.62540        0.13790        0.07080
S         -6.23930       -0.29200        1.07430
C         -8.89060       -0.12270        0.62200
C        -10.16120        0.11740        0.16240
C        -11.35790       -0.23490        0.90920
C        -11.43750       -0.93260        2.08720
C        -10.36440       -1.47820        2.82350
N         -9.56930       -1.96540        3.49560
C        -12.64680       -1.23430        2.74950
N        -13.58250       -1.51510        3.35310
C        -12.51270        0.26550        0.16430
C        -13.87240        0.23430        0.43370
C        -14.74450        0.80090       -0.48670
C        -14.28480        1.38830       -1.65640
C        -12.92610        1.42700       -1.93470
C        -12.05690        0.86640       -1.01960
C        -10.58390        0.79150       -1.08400
O         -9.90120        1.21760       -1.99510
H         12.27180        1.27330        0.70410
H         14.48220        1.05700        1.84020
H         14.63430       -0.04250        4.02860
H         12.65070       -0.94810        5.13590
H          7.34360       -0.97180        3.90010
H          7.49360        0.68230        0.31840
H          4.78240       -0.85060       -2.60970
H          4.18530        0.47720       -3.57740
H          6.53460       -0.07320       -4.16570
H          7.03620        0.24650       -2.50640
H          6.42770        1.55920       -3.51140
H          4.07890        3.42670       -2.22950
H          5.70560        3.30530       -1.60040
H          3.19450        3.63550        0.10610
H          4.36470        4.90430       -0.26300
H          4.83840        3.52480        0.72760
H          1.34600        1.30340       -1.91150
H          2.08890       -0.67560        2.62190
H          0.01860       -0.66600        3.65990
H         -1.73160       -0.64930        3.40000
H         -1.57560       -2.84620        2.21240
H         -0.92390       -2.96490        3.85080
H          0.17140       -2.86250        2.46770
H         -1.35100        1.36680       -2.29510
H         -3.41680       -0.56170        1.83140
H         -3.71880        3.58100       -3.28340
H         -4.61190        3.75170       -1.79010
H         -6.75730        3.37400       -3.04610
H         -5.83590        3.26440       -4.54510
H         -5.87040        4.77570       -3.64260
H         -4.02000        0.91400       -4.89460
H         -3.98960       -0.57770       -3.98310
H         -6.48120       -0.58150       -3.87780
H         -6.52720        0.92270       -4.78730
H         -5.90720       -0.54270       -5.54450
H         -7.89410        1.00250       -1.89060
H         -8.83020       -0.58860        1.59840
H        -14.26180       -0.21280        1.33320
H        -15.80470        0.78140       -0.28280
H        -14.98970        1.81840       -2.35200
H        -12.54310        1.87930       -2.83670
