DTSiC-TC.sdf
  xtb     12202113253D
 energy: -169.234491961603 gnorm: 0.000885933708 xtb: 6.4.1 (unknown)
102112  0     0  0            999 V2000
   -2.8520    6.2798   -4.9122 C   0  0  0  0  0  0  0  0  0  0  0  0
   -2.1451    5.3144   -4.6867 O   0  0  0  0  0  0  0  0  0  0  0  0
   -2.9019    7.0669   -6.1514 C   0  0  0  0  0  0  0  0  0  0  0  0
   -3.8577    8.1225   -6.0004 C   0  0  0  0  0  0  0  0  0  0  0  0
   -4.4428    8.0443   -4.6749 C   0  0  0  0  0  0  0  0  0  0  0  0
   -5.3930    8.9148   -4.2026 C   0  0  0  0  0  0  0  0  0  0  0  0
   -5.8768    9.9689   -5.0038 C   0  0  0  0  0  0  0  0  0  0  0  0
   -6.2851   10.8308   -5.6431 N   0  0  0  0  0  0  0  0  0  0  0  0
   -5.9888    8.8917   -2.9282 C   0  0  0  0  0  0  0  0  0  0  0  0
   -6.5164    8.9343   -1.9078 N   0  0  0  0  0  0  0  0  0  0  0  0
   -3.8325    6.9083   -4.0094 C   0  0  0  0  0  0  0  0  0  0  0  0
   -4.1475    6.4892   -2.7389 C   0  0  0  0  0  0  0  0  0  0  0  0
   -3.6698    5.4151   -1.9806 C   0  0  0  0  0  0  0  0  0  0  0  0
   -4.1505    5.1332   -0.6943 C   0  0  0  0  0  0  0  0  0  0  0  0
   -3.5744    4.0235   -0.1122 C   0  0  0  0  0  0  0  0  0  0  0  0
   -2.6249    3.4408   -0.9557 C   0  0  0  0  0  0  0  0  0  0  0  0
   -2.4498    4.2494   -2.4537 S   0  0  0  0  0  0  0  0  0  0  0  0
   -1.9384    2.2706   -0.4956 C   0  0  0  0  0  0  0  0  0  0  0  0
   -2.3429    1.8493    0.7996 C   0  0  0  0  0  0  0  0  0  0  0  0
   -3.6487    3.0361    1.4955 Si  0  0  0  0  0  4  0  0  0  0  0  0
   -2.9963    4.0474    2.9781 C   0  0  0  0  0  0  0  0  0  0  0  0
   -1.6237    4.6596    2.7135 C   0  0  0  0  0  0  0  0  0  0  0  0
   -5.3380    2.2178    1.8264 C   0  0  0  0  0  0  0  0  0  0  0  0
   -6.4148    3.2253    2.2140 C   0  0  0  0  0  0  0  0  0  0  0  0
   -1.7690    0.7330    1.3618 C   0  0  0  0  0  0  0  0  0  0  0  0
   -0.7990    0.0339    0.6452 C   0  0  0  0  0  0  0  0  0  0  0  0
   -0.4046    0.4725   -0.6480 C   0  0  0  0  0  0  0  0  0  0  0  0
   -0.9707    1.5962   -1.2272 C   0  0  0  0  0  0  0  0  0  0  0  0
    0.5497   -0.3785   -1.1449 N   0  0  0  0  0  0  0  0  0  0  0  0
    1.2348   -0.2319   -2.4026 C   0  0  0  0  0  0  0  0  0  0  0  0
    2.5017    0.6094   -2.2583 C   0  0  0  0  0  0  0  0  0  0  0  0
    0.8092   -1.3425   -0.2045 C   0  0  0  0  0  0  0  0  0  0  0  0
   -0.0225   -1.1314    0.9283 C   0  0  0  0  0  0  0  0  0  0  0  0
    0.0381   -1.9976    2.0189 C   0  0  0  0  0  0  0  0  0  0  0  0
    0.9202   -3.0532    1.9891 C   0  0  0  0  0  0  0  0  0  0  0  0
    1.7493   -3.2435    0.8498 C   0  0  0  0  0  0  0  0  0  0  0  0
    1.7044   -2.3986   -0.2502 C   0  0  0  0  0  0  0  0  0  0  0  0
    2.6152   -4.3798    0.9570 C   0  0  0  0  0  0  0  0  0  0  0  0
    2.5504   -5.1520    2.1186 C   0  0  0  0  0  0  0  0  0  0  0  0
    1.2390   -4.4239    3.2632 Si  0  0  0  0  0  4  0  0  0  0  0  0
   -0.2688   -5.5789    3.4609 C   0  0  0  0  0  0  0  0  0  0  0  0
   -0.7628   -6.1332    2.1277 C   0  0  0  0  0  0  0  0  0  0  0  0
    1.9477   -3.8255    4.9285 C   0  0  0  0  0  0  0  0  0  0  0  0
    0.9496   -2.9978    5.7304 C   0  0  0  0  0  0  0  0  0  0  0  0
    3.4373   -6.2066    2.0718 C   0  0  0  0  0  0  0  0  0  0  0  0
    4.1952   -6.2608    0.8937 C   0  0  0  0  0  0  0  0  0  0  0  0
    3.7636   -4.9444   -0.1795 S   0  0  0  0  0  0  0  0  0  0  0  0
    5.1560   -7.2517    0.6663 C   0  0  0  0  0  0  0  0  0  0  0  0
    6.0044   -7.4602   -0.3947 C   0  0  0  0  0  0  0  0  0  0  0  0
    6.9694   -8.5411   -0.4750 C   0  0  0  0  0  0  0  0  0  0  0  0
    7.2124   -9.5513    0.4218 C   0  0  0  0  0  0  0  0  0  0  0  0
    6.5498   -9.7615    1.6450 C   0  0  0  0  0  0  0  0  0  0  0  0
    6.0523   -9.9988    2.6535 N   0  0  0  0  0  0  0  0  0  0  0  0
    8.2044  -10.5216    0.1735 C   0  0  0  0  0  0  0  0  0  0  0  0
    9.0095  -11.3189   -0.0101 N   0  0  0  0  0  0  0  0  0  0  0  0
    7.6801   -8.3816   -1.7299 C   0  0  0  0  0  0  0  0  0  0  0  0
    7.1615   -7.2376   -2.4174 C   0  0  0  0  0  0  0  0  0  0  0  0
    6.0970   -6.6294   -1.6082 C   0  0  0  0  0  0  0  0  0  0  0  0
    5.4365   -5.6459   -1.8890 O   0  0  0  0  0  0  0  0  0  0  0  0
   -3.9616    8.8990   -7.1125 C   0  0  0  0  0  0  0  0  0  0  0  0
   -2.8942    8.3458   -8.3506 S   0  0  0  0  0  0  0  0  0  0  0  0
   -2.2998    7.0583   -7.3663 C   0  0  0  0  0  0  0  0  0  0  0  0
    7.7672   -7.0073   -3.6085 C   0  0  0  0  0  0  0  0  0  0  0  0
    8.9876   -8.1903   -3.9108 S   0  0  0  0  0  0  0  0  0  0  0  0
    8.6768   -9.0003   -2.4189 C   0  0  0  0  0  0  0  0  0  0  0  0
   -4.9010    7.0691   -2.2181 H   0  0  0  0  0  0  0  0  0  0  0  0
   -4.9045    5.7450   -0.2298 H   0  0  0  0  0  0  0  0  0  0  0  0
   -3.7011    4.8441    3.2175 H   0  0  0  0  0  0  0  0  0  0  0  0
   -2.9400    3.4080    3.8598 H   0  0  0  0  0  0  0  0  0  0  0  0
   -1.2784    5.2224    3.5786 H   0  0  0  0  0  0  0  0  0  0  0  0
   -0.8943    3.8830    2.4952 H   0  0  0  0  0  0  0  0  0  0  0  0
   -1.6639    5.3338    1.8614 H   0  0  0  0  0  0  0  0  0  0  0  0
   -5.6613    1.6711    0.9399 H   0  0  0  0  0  0  0  0  0  0  0  0
   -5.2346    1.4821    2.6243 H   0  0  0  0  0  0  0  0  0  0  0  0
   -6.1388    3.7517    3.1241 H   0  0  0  0  0  0  0  0  0  0  0  0
   -6.5547    3.9590    1.4243 H   0  0  0  0  0  0  0  0  0  0  0  0
   -7.3662    2.7256    2.3863 H   0  0  0  0  0  0  0  0  0  0  0  0
   -2.0621    0.3987    2.3457 H   0  0  0  0  0  0  0  0  0  0  0  0
   -0.6856    1.9532   -2.2053 H   0  0  0  0  0  0  0  0  0  0  0  0
    1.4862   -1.2277   -2.7769 H   0  0  0  0  0  0  0  0  0  0  0  0
    0.5515    0.2373   -3.1148 H   0  0  0  0  0  0  0  0  0  0  0  0
    2.9983    0.7034   -3.2199 H   0  0  0  0  0  0  0  0  0  0  0  0
    2.2549    1.6036   -1.8931 H   0  0  0  0  0  0  0  0  0  0  0  0
    3.1870    0.1421   -1.5549 H   0  0  0  0  0  0  0  0  0  0  0  0
   -0.6048   -1.8381    2.8717 H   0  0  0  0  0  0  0  0  0  0  0  0
    2.3513   -2.5771   -1.0959 H   0  0  0  0  0  0  0  0  0  0  0  0
   -0.0130   -6.4079    4.1216 H   0  0  0  0  0  0  0  0  0  0  0  0
   -1.0821   -5.0369    3.9444 H   0  0  0  0  0  0  0  0  0  0  0  0
    0.0181   -6.7142    1.6428 H   0  0  0  0  0  0  0  0  0  0  0  0
   -1.6277   -6.7774    2.2737 H   0  0  0  0  0  0  0  0  0  0  0  0
   -1.0463   -5.3241    1.4585 H   0  0  0  0  0  0  0  0  0  0  0  0
    2.2528   -4.6876    5.5221 H   0  0  0  0  0  0  0  0  0  0  0  0
    2.8460   -3.2320    4.7559 H   0  0  0  0  0  0  0  0  0  0  0  0
    0.0537   -3.5757    5.9430 H   0  0  0  0  0  0  0  0  0  0  0  0
    0.6609   -2.1076    5.1773 H   0  0  0  0  0  0  0  0  0  0  0  0
    1.3831   -2.6833    6.6779 H   0  0  0  0  0  0  0  0  0  0  0  0
    3.5599   -6.9357    2.8539 H   0  0  0  0  0  0  0  0  0  0  0  0
    5.2311   -7.9595    1.4840 H   0  0  0  0  0  0  0  0  0  0  0  0
   -4.5836    9.7515   -7.2979 H   0  0  0  0  0  0  0  0  0  0  0  0
   -1.5550    6.3893   -7.7480 H   0  0  0  0  0  0  0  0  0  0  0  0
    7.5820   -6.2307   -4.3231 H   0  0  0  0  0  0  0  0  0  0  0  0
    9.2510   -9.8679   -2.1633 H   0  0  0  0  0  0  0  0  0  0  0  0
  1  2  2  0  0  0  0
  1  3  1  0  0  0  0
  3  4  1  0  0  0  0
  4  5  1  0  0  0  0
  5  6  2  0  0  0  0
  6  7  1  0  0  0  0
  7  8  3  0  0  0  0
  6  9  1  0  0  0  0
  9 10  3  0  0  0  0
  5 11  1  0  0  0  0
  1 11  1  0  0  0  0
 11 12  2  0  0  0  0
 12 13  1  0  0  0  0
 13 14  2  0  0  0  0
 14 15  1  0  0  0  0
 15 16  2  0  0  0  0
 16 17  1  0  0  0  0
 13 17  1  0  0  0  0
 16 18  1  0  0  0  0
 18 19  2  0  0  0  0
 19 20  1  0  0  0  0
 15 20  1  0  0  0  0
 20 21  1  0  0  0  0
 21 22  1  0  0  0  0
 20 23  1  0  0  0  0
 23 24  1  0  0  0  0
 19 25  1  0  0  0  0
 25 26  2  0  0  0  0
 26 27  1  0  0  0  0
 27 28  2  0  0  0  0
 18 28  1  0  0  0  0
 27 29  1  0  0  0  0
 29 30  1  0  0  0  0
 30 31  1  0  0  0  0
 29 32  1  0  0  0  0
 32 33  2  0  0  0  0
 26 33  1  0  0  0  0
 33 34  1  0  0  0  0
 34 35  2  0  0  0  0
 35 36  1  0  0  0  0
 36 37  2  0  0  0  0
 32 37  1  0  0  0  0
 36 38  1  0  0  0  0
 38 39  2  0  0  0  0
 39 40  1  0  0  0  0
 35 40  1  0  0  0  0
 40 41  1  0  0  0  0
 41 42  1  0  0  0  0
 40 43  1  0  0  0  0
 43 44  1  0  0  0  0
 39 45  1  0  0  0  0
 45 46  2  0  0  0  0
 46 47  1  0  0  0  0
 38 47  1  0  0  0  0
 46 48  1  0  0  0  0
 48 49  2  0  0  0  0
 49 50  1  0  0  0  0
 50 51  2  0  0  0  0
 51 52  1  0  0  0  0
 52 53  3  0  0  0  0
 51 54  1  0  0  0  0
 54 55  3  0  0  0  0
 50 56  1  0  0  0  0
 56 57  1  0  0  0  0
 57 58  1  0  0  0  0
 49 58  1  0  0  0  0
 58 59  2  0  0  0  0
  4 60  2  0  0  0  0
 60 61  1  0  0  0  0
 61 62  1  0  0  0  0
 62  3  2  0  0  0  0
 57 63  2  0  0  0  0
 63 64  1  0  0  0  0
 64 65  1  0  0  0  0
 65 56  2  0  0  0  0
 12 66  1  0  0  0  0
 14 67  1  0  0  0  0
 21 68  1  0  0  0  0
 21 69  1  0  0  0  0
 22 70  1  0  0  0  0
 22 71  1  0  0  0  0
 22 72  1  0  0  0  0
 23 73  1  0  0  0  0
 23 74  1  0  0  0  0
 24 75  1  0  0  0  0
 24 76  1  0  0  0  0
 24 77  1  0  0  0  0
 25 78  1  0  0  0  0
 28 79  1  0  0  0  0
 30 80  1  0  0  0  0
 30 81  1  0  0  0  0
 31 82  1  0  0  0  0
 31 83  1  0  0  0  0
 31 84  1  0  0  0  0
 34 85  1  0  0  0  0
 37 86  1  0  0  0  0
 41 87  1  0  0  0  0
 41 88  1  0  0  0  0
 42 89  1  0  0  0  0
 42 90  1  0  0  0  0
 42 91  1  0  0  0  0
 43 92  1  0  0  0  0
 43 93  1  0  0  0  0
 44 94  1  0  0  0  0
 44 95  1  0  0  0  0
 44 96  1  0  0  0  0
 45 97  1  0  0  0  0
 48 98  1  0  0  0  0
 60 99  1  0  0  0  0
 62100  1  0  0  0  0
 63101  1  0  0  0  0
 65102  1  0  0  0  0
M  END
