F-F.sdf
  xtb     12202113383D
 energy: -188.747994879797 gnorm: 0.000357720494 xtb: 6.4.1 (unknown)
115125  0     0  0            999 V2000
   -6.7970   -0.6353   -6.7866 C   0  0  0  0  0  0  0  0  0  0  0  0
   -6.6075   -0.6953   -5.5847 O   0  0  0  0  0  0  0  0  0  0  0  0
   -7.9766   -1.1498   -7.5084 C   0  0  0  0  0  0  0  0  0  0  0  0
   -9.0843   -1.8002   -6.9997 C   0  0  0  0  0  0  0  0  0  0  0  0
  -10.0763   -2.2023   -7.8802 C   0  0  0  0  0  0  0  0  0  0  0  0
   -9.9231   -1.9387   -9.2329 C   0  0  0  0  0  0  0  0  0  0  0  0
   -8.8197   -1.2856   -9.7663 C   0  0  0  0  0  0  0  0  0  0  0  0
   -7.8320   -0.8866   -8.8817 C   0  0  0  0  0  0  0  0  0  0  0  0
   -6.5599   -0.1927   -9.0979 C   0  0  0  0  0  0  0  0  0  0  0  0
   -6.0904    0.2231  -10.3171 C   0  0  0  0  0  0  0  0  0  0  0  0
   -4.8709    0.8924  -10.5510 C   0  0  0  0  0  0  0  0  0  0  0  0
   -3.9002    1.4388  -10.8328 N   0  0  0  0  0  0  0  0  0  0  0  0
   -6.7752    0.0350  -11.5366 C   0  0  0  0  0  0  0  0  0  0  0  0
   -7.2726   -0.0829  -12.5644 N   0  0  0  0  0  0  0  0  0  0  0  0
   -5.9218   -0.0481   -7.8060 C   0  0  0  0  0  0  0  0  0  0  0  0
    6.7005   -1.7873    6.7642 C   0  0  0  0  0  0  0  0  0  0  0  0
    6.9476   -1.1828    5.7395 O   0  0  0  0  0  0  0  0  0  0  0  0
    7.7081   -2.4100    7.6467 C   0  0  0  0  0  0  0  0  0  0  0  0
    9.0771   -2.4749    7.4687 C   0  0  0  0  0  0  0  0  0  0  0  0
    9.8372   -3.1298    8.4241 C   0  0  0  0  0  0  0  0  0  0  0  0
    9.2005   -3.6937    9.5197 C   0  0  0  0  0  0  0  0  0  0  0  0
    7.8282   -3.6363    9.7217 C   0  0  0  0  0  0  0  0  0  0  0  0
    7.0747   -2.9791    8.7630 C   0  0  0  0  0  0  0  0  0  0  0  0
    5.6359   -2.7333    8.6591 C   0  0  0  0  0  0  0  0  0  0  0  0
    4.7211   -3.0506    9.6291 C   0  0  0  0  0  0  0  0  0  0  0  0
    5.0454   -3.7009   10.8394 C   0  0  0  0  0  0  0  0  0  0  0  0
    5.2307   -4.2310   11.8404 N   0  0  0  0  0  0  0  0  0  0  0  0
    3.3391   -2.7638    9.6057 C   0  0  0  0  0  0  0  0  0  0  0  0
    2.2113   -2.5608    9.6880 N   0  0  0  0  0  0  0  0  0  0  0  0
    5.3920   -2.0649    7.3926 C   0  0  0  0  0  0  0  0  0  0  0  0
   -2.2764    0.7000   -2.9086 C   0  0  0  0  0  0  0  0  0  0  0  0
   -0.9840    1.2425   -3.1047 C   0  0  0  0  0  0  0  0  0  0  0  0
   -0.0631    1.2068   -2.0832 C   0  0  0  0  0  0  0  0  0  0  0  0
   -0.4679    0.6739   -0.8614 C   0  0  0  0  0  0  0  0  0  0  0  0
   -1.7793    0.2093   -0.6453 C   0  0  0  0  0  0  0  0  0  0  0  0
   -2.6893    0.1929   -1.6796 C   0  0  0  0  0  0  0  0  0  0  0  0
   -1.9332   -0.3170    0.7674 C   0  0  0  0  0  0  0  0  0  0  0  0
   -2.8608    0.5775    1.6186 C   0  0  0  0  0  0  0  0  0  0  0  0
   -4.3219    0.6124    1.1910 C   0  0  0  0  0  0  0  0  0  0  0  0
   -2.3885   -1.7889    0.6842 C   0  0  0  0  0  0  0  0  0  0  0  0
   -2.5698   -2.5214    2.0076 C   0  0  0  0  0  0  0  0  0  0  0  0
   -0.5242   -0.1587    1.3020 C   0  0  0  0  0  0  0  0  0  0  0  0
    0.3082    0.4387    0.3345 C   0  0  0  0  0  0  0  0  0  0  0  0
    1.6559    0.6947    0.5751 C   0  0  0  0  0  0  0  0  0  0  0  0
    2.1696    0.3223    1.7950 C   0  0  0  0  0  0  0  0  0  0  0  0
    1.3287   -0.2586    2.7713 C   0  0  0  0  0  0  0  0  0  0  0  0
   -0.0273   -0.4792    2.5461 C   0  0  0  0  0  0  0  0  0  0  0  0
   -4.6935    0.5259   -7.5799 C   0  0  0  0  0  0  0  0  0  0  0  0
    4.1329   -1.8489    6.8883 C   0  0  0  0  0  0  0  0  0  0  0  0
    2.1543   -0.5781    3.8915 C   0  0  0  0  0  0  0  0  0  0  0  0
    3.4812   -0.2211    3.6455 C   0  0  0  0  0  0  0  0  0  0  0  0
    3.5947    0.4513    2.3044 C   0  0  0  0  0  0  0  0  0  0  0  0
    1.9484   -1.3646    5.3889 S   0  0  0  0  0  0  0  0  0  0  0  0
    3.6887   -1.2627    5.6941 C   0  0  0  0  0  0  0  0  0  0  0  0
    4.3456   -0.6109    4.6515 C   0  0  0  0  0  0  0  0  0  0  0  0
   -0.8131    1.7370   -4.5290 C   0  0  0  0  0  0  0  0  0  0  0  0
   -2.1080    1.2735   -5.1450 C   0  0  0  0  0  0  0  0  0  0  0  0
   -2.9449    0.7222   -4.1713 C   0  0  0  0  0  0  0  0  0  0  0  0
   -2.6808    1.2631   -6.3954 C   0  0  0  0  0  0  0  0  0  0  0  0
   -3.9608    0.6837   -6.3994 C   0  0  0  0  0  0  0  0  0  0  0  0
   -4.4418    0.1779   -4.7847 S   0  0  0  0  0  0  0  0  0  0  0  0
    3.9161    1.9560    2.4493 C   0  0  0  0  0  0  0  0  0  0  0  0
    4.6042   -0.2606    1.3908 C   0  0  0  0  0  0  0  0  0  0  0  0
   -0.7983    3.2827   -4.5980 C   0  0  0  0  0  0  0  0  0  0  0  0
    0.4121    1.1255   -5.2231 C   0  0  0  0  0  0  0  0  0  0  0  0
    0.3306    3.9629   -3.8356 C   0  0  0  0  0  0  0  0  0  0  0  0
    0.3657   -0.3979   -5.2534 C   0  0  0  0  0  0  0  0  0  0  0  0
    5.2537    2.2651    3.1082 C   0  0  0  0  0  0  0  0  0  0  0  0
    4.2338   -1.7165    1.1315 C   0  0  0  0  0  0  0  0  0  0  0  0
  -10.8922   -2.3361  -10.0734 F   0  0  0  0  0  0  0  0  0  0  0  0
    9.9502   -4.3312   10.4336 F   0  0  0  0  0  0  0  0  0  0  0  0
   -9.1641   -1.9862   -5.9401 H   0  0  0  0  0  0  0  0  0  0  0  0
  -10.9615   -2.7146   -7.5381 H   0  0  0  0  0  0  0  0  0  0  0  0
   -8.7678   -1.1151  -10.8286 H   0  0  0  0  0  0  0  0  0  0  0  0
    9.5316   -2.0240    6.6004 H   0  0  0  0  0  0  0  0  0  0  0  0
   10.9087   -3.2127    8.3346 H   0  0  0  0  0  0  0  0  0  0  0  0
    7.4021   -4.0992   10.5959 H   0  0  0  0  0  0  0  0  0  0  0  0
    0.9515    1.5467   -2.2210 H   0  0  0  0  0  0  0  0  0  0  0  0
   -3.6806   -0.2201   -1.5792 H   0  0  0  0  0  0  0  0  0  0  0  0
   -2.4584    1.5938    1.5828 H   0  0  0  0  0  0  0  0  0  0  0  0
   -2.7978    0.2419    2.6550 H   0  0  0  0  0  0  0  0  0  0  0  0
   -4.8819    1.2410    1.8802 H   0  0  0  0  0  0  0  0  0  0  0  0
   -4.4269    1.0314    0.1942 H   0  0  0  0  0  0  0  0  0  0  0  0
   -4.7644   -0.3798    1.2059 H   0  0  0  0  0  0  0  0  0  0  0  0
   -1.6510   -2.3267    0.0819 H   0  0  0  0  0  0  0  0  0  0  0  0
   -3.3318   -1.8146    0.1370 H   0  0  0  0  0  0  0  0  0  0  0  0
   -1.6188   -2.6675    2.5111 H   0  0  0  0  0  0  0  0  0  0  0  0
   -3.2439   -1.9863    2.6707 H   0  0  0  0  0  0  0  0  0  0  0  0
   -2.9975   -3.5032    1.8152 H   0  0  0  0  0  0  0  0  0  0  0  0
    2.2743    1.1521   -0.1821 H   0  0  0  0  0  0  0  0  0  0  0  0
   -0.6404   -0.8937    3.3302 H   0  0  0  0  0  0  0  0  0  0  0  0
   -4.1761    0.9140   -8.4491 H   0  0  0  0  0  0  0  0  0  0  0  0
    3.3182   -2.2262    7.4954 H   0  0  0  0  0  0  0  0  0  0  0  0
    5.4104   -0.4707    4.6555 H   0  0  0  0  0  0  0  0  0  0  0  0
   -2.2244    1.6297   -7.2979 H   0  0  0  0  0  0  0  0  0  0  0  0
    3.1163    2.4151    3.0367 H   0  0  0  0  0  0  0  0  0  0  0  0
    3.8914    2.4031    1.4531 H   0  0  0  0  0  0  0  0  0  0  0  0
    5.5875   -0.2247    1.8599 H   0  0  0  0  0  0  0  0  0  0  0  0
    4.6585    0.2765    0.4417 H   0  0  0  0  0  0  0  0  0  0  0  0
   -0.7444    3.5658   -5.6515 H   0  0  0  0  0  0  0  0  0  0  0  0
   -1.7523    3.6450   -4.2061 H   0  0  0  0  0  0  0  0  0  0  0  0
    1.3147    1.4432   -4.7003 H   0  0  0  0  0  0  0  0  0  0  0  0
    0.4612    1.5089   -6.2442 H   0  0  0  0  0  0  0  0  0  0  0  0
    0.2618    5.0391   -3.9777 H   0  0  0  0  0  0  0  0  0  0  0  0
    0.2576    3.7575   -2.7709 H   0  0  0  0  0  0  0  0  0  0  0  0
    1.3040    3.6391   -4.1940 H   0  0  0  0  0  0  0  0  0  0  0  0
    0.3191   -0.8009   -4.2439 H   0  0  0  0  0  0  0  0  0  0  0  0
   -0.5059   -0.7473   -5.8019 H   0  0  0  0  0  0  0  0  0  0  0  0
    1.2558   -0.7893   -5.7401 H   0  0  0  0  0  0  0  0  0  0  0  0
    5.3795    3.3432    3.1801 H   0  0  0  0  0  0  0  0  0  0  0  0
    6.0824    1.8674    2.5294 H   0  0  0  0  0  0  0  0  0  0  0  0
    5.2980    1.8512    4.1115 H   0  0  0  0  0  0  0  0  0  0  0  0
    4.9731   -2.1789    0.4819 H   0  0  0  0  0  0  0  0  0  0  0  0
    4.2019   -2.2758    2.0638 H   0  0  0  0  0  0  0  0  0  0  0  0
    3.2597   -1.7908    0.6526 H   0  0  0  0  0  0  0  0  0  0  0  0
  1  2  2  0  0  0  0
  1  3  1  0  0  0  0
  3  4  2  0  0  0  0
  4  5  1  0  0  0  0
  5  6  2  0  0  0  0
  6  7  1  0  0  0  0
  7  8  2  0  0  0  0
  3  8  1  0  0  0  0
  8  9  1  0  0  0  0
  9 10  2  0  0  0  0
 10 11  1  0  0  0  0
 11 12  3  0  0  0  0
 10 13  1  0  0  0  0
 13 14  3  0  0  0  0
  9 15  1  0  0  0  0
  1 15  1  0  0  0  0
 16 17  2  0  0  0  0
 16 18  1  0  0  0  0
 18 19  2  0  0  0  0
 19 20  1  0  0  0  0
 20 21  2  0  0  0  0
 21 22  1  0  0  0  0
 22 23  2  0  0  0  0
 18 23  1  0  0  0  0
 23 24  1  0  0  0  0
 24 25  2  0  0  0  0
 25 26  1  0  0  0  0
 26 27  3  0  0  0  0
 25 28  1  0  0  0  0
 28 29  3  0  0  0  0
 24 30  1  0  0  0  0
 16 30  1  0  0  0  0
 31 32  1  0  0  0  0
 32 33  2  0  0  0  0
 33 34  1  0  0  0  0
 34 35  2  0  0  0  0
 35 36  1  0  0  0  0
 31 36  2  0  0  0  0
 35 37  1  0  0  0  0
 37 38  1  0  0  0  0
 38 39  1  0  0  0  0
 37 40  1  0  0  0  0
 40 41  1  0  0  0  0
 37 42  1  0  0  0  0
 42 43  2  0  0  0  0
 34 43  1  0  0  0  0
 43 44  1  0  0  0  0
 44 45  2  0  0  0  0
 45 46  1  0  0  0  0
 46 47  2  0  0  0  0
 42 47  1  0  0  0  0
 15 48  2  0  0  0  0
 30 49  2  0  0  0  0
 46 50  1  0  0  0  0
 50 51  2  0  0  0  0
 51 52  1  0  0  0  0
 52 45  1  0  0  0  0
 50 53  1  0  0  0  0
 53 54  1  0  0  0  0
 54 55  2  0  0  0  0
 55 51  1  0  0  0  0
 32 56  1  0  0  0  0
 56 57  1  0  0  0  0
 57 58  2  0  0  0  0
 58 31  1  0  0  0  0
 57 59  1  0  0  0  0
 59 60  2  0  0  0  0
 60 61  1  0  0  0  0
 61 58  1  0  0  0  0
 48 60  1  0  0  0  0
 54 49  1  0  0  0  0
 52 62  1  0  0  0  0
 52 63  1  0  0  0  0
 56 64  1  0  0  0  0
 56 65  1  0  0  0  0
 64 66  1  0  0  0  0
 65 67  1  0  0  0  0
 62 68  1  0  0  0  0
 63 69  1  0  0  0  0
  6 70  1  0  0  0  0
 21 71  1  0  0  0  0
  4 72  1  0  0  0  0
  5 73  1  0  0  0  0
  7 74  1  0  0  0  0
 19 75  1  0  0  0  0
 20 76  1  0  0  0  0
 22 77  1  0  0  0  0
 33 78  1  0  0  0  0
 36 79  1  0  0  0  0
 38 80  1  0  0  0  0
 38 81  1  0  0  0  0
 39 82  1  0  0  0  0
 39 83  1  0  0  0  0
 39 84  1  0  0  0  0
 40 85  1  0  0  0  0
 40 86  1  0  0  0  0
 41 87  1  0  0  0  0
 41 88  1  0  0  0  0
 41 89  1  0  0  0  0
 44 90  1  0  0  0  0
 47 91  1  0  0  0  0
 48 92  1  0  0  0  0
 49 93  1  0  0  0  0
 55 94  1  0  0  0  0
 59 95  1  0  0  0  0
 62 96  1  0  0  0  0
 62 97  1  0  0  0  0
 63 98  1  0  0  0  0
 63 99  1  0  0  0  0
 64100  1  0  0  0  0
 64101  1  0  0  0  0
 65102  1  0  0  0  0
 65103  1  0  0  0  0
 66104  1  0  0  0  0
 66105  1  0  0  0  0
 66106  1  0  0  0  0
 67107  1  0  0  0  0
 67108  1  0  0  0  0
 67109  1  0  0  0  0
 68110  1  0  0  0  0
 68111  1  0  0  0  0
 68112  1  0  0  0  0
 69113  1  0  0  0  0
 69114  1  0  0  0  0
 69115  1  0  0  0  0
M  END
