127
F8-DPPTCN.sdf
C          3.85430        1.98820        6.97400
C          4.64000        0.93750        7.42050
C          4.91560       -0.00820        6.43580
C          4.36290        0.29930        5.21000
S          3.48780        1.78860        5.27920
C          4.34700       -0.45530        3.97820
C          4.57760       -1.83460        3.95380
C          4.41720       -2.55860        2.78840
C          4.00510       -1.90270        1.63690
C          3.80370       -0.51040        1.64050
C          4.00090        0.20780        2.79180
C          3.39130       -0.01940        0.26910
C          2.01960        0.68700        0.25740
C          1.93450        2.04900        0.93680
C          4.54650        0.84620       -0.27920
C          4.37270        1.34400       -1.70800
C          3.26600       -1.32990       -0.48130
C          3.66130       -2.41090        0.32660
C          3.59210       -3.71190       -0.15250
C          3.07900       -3.93210       -1.41410
C          2.63600       -2.87050       -2.21060
C          2.75410       -1.55610       -1.73570
C          1.97140       -3.11030       -3.46890
C          1.72290       -2.22430       -4.49560
C          0.92530       -2.74610       -5.50910
C          0.53370       -4.05570       -5.28730
S          1.22630       -4.64070       -3.79460
C          3.28560        3.12010        7.61430
N          3.39560        3.49740        8.93430
C          2.64570        4.65900        9.21220
C          2.04380        5.01810        7.95390
C          2.46620        4.06000        6.99410
C          4.09340        2.83060       10.00550
C          3.29600        1.64890       10.55320
O          2.60320        5.16420       10.31910
C          1.19920        5.93000        7.32220
N          1.11800        5.55810        5.99820
C          1.87760        4.40390        5.73160
O          1.95580        3.89960        4.62460
C          0.33800        6.14760        4.93810
C         -1.10350        5.64550        4.94420
C          0.55130        7.02800        7.94430
C          0.68280        7.36400        9.28270
C         -0.06960        8.47090        9.65780
C         -0.80180        9.01660        8.62030
S         -0.53690        8.13530        7.15070
C         -1.68010       10.13590        8.65300
S         -2.53280       10.64440        7.22690
C         -3.29510       11.93360        8.10710
C         -2.89850       11.95150        9.42530
C         -1.98900       10.93920        9.73280
C         -4.18980       12.80080        7.48150
N         -4.92770       13.51860        6.97220
C         -0.37470       -4.77070       -6.10730
N         -0.77290       -6.07990       -5.96850
C         -1.76250       -6.43030       -6.90540
C         -1.97300       -5.23380       -7.67900
C         -1.08740       -4.23780       -7.18180
C         -0.33960       -7.05640       -4.99910
C         -1.18130       -7.00480       -3.72660
O         -2.25030       -7.54460       -6.96150
C         -2.73920       -4.67820       -8.70220
N         -2.31540       -3.37850       -8.86320
C         -1.29690       -3.04130       -7.95120
O         -0.77210       -1.94210       -7.93140
C         -2.81000       -2.37050       -9.76790
C         -4.02220       -1.63940       -9.19630
C         -3.77380       -5.33950       -9.41350
C         -4.14540       -6.65960       -9.21400
C         -5.21370       -7.06490      -10.00580
C         -5.69420       -6.07110      -10.83430
S         -4.78770       -4.60510      -10.62990
C         -6.77720       -6.13240      -11.75240
S         -7.69020       -7.59760      -11.95480
C         -8.71140       -6.82660      -13.13200
C         -8.34870       -5.51530      -13.34110
C         -7.25840       -5.12510      -12.56300
C         -9.75390       -7.52090      -13.74450
N        -10.61580       -8.08390      -14.25360
H          5.00430        0.83720        8.42520
H          5.51330       -0.88400        6.61580
H          4.85250       -2.34310        4.86530
H          4.58770       -3.62480        2.78210
H          3.87990        1.27910        2.81380
H          1.71570        0.80220       -0.78460
H          1.30100        0.01100        0.72910
H          2.68190        2.73580        0.54980
H          0.95390        2.47860        0.74120
H          2.04870        1.97530        2.01360
H          5.46050        0.24810       -0.22370
H          4.67630        1.69900        0.38870
H          4.34060        0.51240       -2.40690
H          3.46550        1.93230       -1.81520
H          5.21780        1.97510       -1.97530
H          3.90670       -4.54240        0.46120
H          2.99460       -4.94050       -1.79390
H          2.38600       -0.74340       -2.34060
H          2.11250       -1.22280       -4.51700
H          0.61420       -2.19020       -6.37560
H          5.08430        2.52520        9.66230
H          4.21300        3.58030       10.79370
H          2.35560        2.00330       10.96790
H          3.07650        0.92670        9.77000
H          3.85880        1.15570       11.34110
H          0.82230        5.83610        4.00730
H          0.37590        7.23700        5.00780
H         -1.11650        4.56690        4.80710
H         -1.65630        6.10850        4.13200
H         -1.59850        5.88450        5.88230
H          1.31030        6.80670        9.95560
H         -0.08720        8.86460       10.65730
H         -3.26160       12.67680       10.13150
H         -1.56860       10.79550       10.71090
H          0.71930       -6.90920       -4.77740
H         -0.47090       -8.03310       -5.47480
H         -2.22080       -7.21340       -3.96740
H         -1.11940       -6.02650       -3.25640
H         -0.82830       -7.75280       -3.02270
H         -3.04050       -2.82040      -10.73590
H         -1.98960       -1.65740       -9.89540
H         -4.35970       -0.88300       -9.89890
H         -3.74910       -1.15310       -8.26310
H         -4.84110       -2.32860       -9.00490
H         -3.64740       -7.29580       -8.50390
H         -5.63950       -8.05250       -9.98160
H         -8.86270       -4.87300      -14.03380
H         -6.82630       -4.14030      -12.58100
