138
F8IC.sdf
C          1.31510        1.24710        0.41750
C          1.31920        1.66620       -0.91380
C          2.61990        1.58350        1.09500
C          3.39200        2.13590       -0.07670
C          2.59540        2.18790       -1.22330
C          2.32160        2.61610        2.17190
C          3.36800        0.39660        1.67020
C          4.69640        2.52260       -0.34690
C          4.88650        2.87770       -1.70350
S          3.41950        2.74370       -2.63750
C          4.41210        0.62510        2.55800
C          5.13440       -0.43290        3.07340
C          4.83470       -1.74200        2.71640
C          3.79810       -1.96120        1.81990
C          3.07610       -0.90530        1.29330
C          2.54470        3.97020        1.97470
C          2.23030        4.88000        2.96800
C          1.67740        4.46340        4.17100
C          1.44940        3.10530        4.35770
C          1.76490        2.19130        3.37170
C          8.42070        3.30830       -0.77770
C          9.42330        3.53810       -1.68800
C         10.82310        3.65980       -1.31740
C         11.61110        3.66420       -2.54990
C         10.73200        3.63350       -3.64320
C          9.33320        3.59240       -3.16080
O          8.35010        3.60020       -3.87210
C         11.34690        3.79410       -0.05790
C         10.61890        3.86540        1.14950
N         10.11770        3.94840        2.17970
C         12.72740        3.91320        0.21330
N         13.83290        4.00930        0.50620
C         12.98020        3.68740       -2.76750
C         13.43120        3.68090       -4.07910
C         12.54840        3.65650       -5.15910
C         11.17930        3.63290       -4.94950
F         14.74890        3.69570       -4.30980
F         13.02920        3.65210       -6.40840
S          6.16440        2.63950        0.53320
C          7.03910        3.12190       -0.93330
C          6.18850        3.21260       -2.02880
S         -0.14820        1.32650       -1.76870
C         -0.77710        0.56220       -0.34110
C          0.12270        0.61590        0.74740
C         -7.56940       -5.10610        0.13300
C         -8.12470       -6.20580        0.74000
C         -9.19860       -6.98500        0.14770
C         -9.35070       -8.20610        0.93840
C         -8.47120       -8.14460        2.03010
C         -7.69890       -6.88250        1.98150
C        -10.16590       -9.31520        0.77180
C        -10.07740      -10.33460        1.70810
C         -9.20350      -10.26100        2.79330
C         -8.38600       -9.15610        2.96610
O         -6.88880       -6.52790        2.81220
C         -9.98400       -6.64560       -0.92290
C         -9.92100       -5.44050       -1.65570
C        -11.01610       -7.46220       -1.43370
N        -11.86360       -8.07760       -1.90300
N         -9.95700       -4.48870       -2.29770
F         -9.15240      -11.26890        3.67270
F        -10.85010      -11.41670        1.56100
C         -1.91950       -0.17130       -0.04650
C         -1.87210       -0.69400        1.24680
S         -0.46050       -0.24160        2.14170
C         -3.14720       -0.64970       -0.77940
C         -3.71560       -1.59920        0.24680
C         -2.97360       -1.55950        1.43000
C         -4.18940        0.43490       -1.00630
C         -2.72630       -1.28960       -2.08750
C         -5.29300        0.14280       -1.79840
C         -6.28850        1.08160       -1.98250
C         -6.20950        2.33190       -1.38060
C         -5.10230        2.61700       -0.59390
C         -4.10360        1.67900       -0.40090
C         -2.50570       -2.65410       -2.19600
C         -2.08380       -3.19810       -3.39590
C         -1.85700       -2.39460       -4.50480
C         -2.06630       -1.02640       -4.38370
C         -2.49490       -0.47790       -3.19110
C         -7.27300        3.36450       -1.61620
C         -6.94640        4.19310       -2.86040
C         -1.44500       -2.99150       -5.81880
C         -2.67710       -3.29680       -6.67330
C         -4.76620       -2.50060        0.33820
C         -4.80780       -3.15970        1.58960
S         -3.55310       -2.61400        2.67070
S         -5.99050       -3.09170       -0.70920
C         -6.52480       -4.25330        0.52010
C         -5.78650       -4.13210        1.69120
C          1.38240        5.45040        5.26260
C          2.60920        5.63510        6.15830
C          5.58160       -2.89170        3.32700
C          4.92380       -3.31230        4.64310
H          4.65410        1.63650        2.85060
H          5.94350       -0.23850        3.76200
H          3.55250       -2.97110        1.52390
H          2.28320       -1.10240        0.58640
H          2.96800        4.32270        1.04570
H          2.41590        5.93140        2.80160
H          1.01790        2.75880        5.28560
H          1.58620        1.13810        3.53450
H          8.73950        3.20670        0.25310
H         13.70520        3.70440       -1.97090
H         10.49140        3.61180       -5.77960
H          6.52790        3.49520       -3.00800
H         -7.96650       -4.86070       -0.84520
H        -10.85570       -9.42380       -0.04870
H         -7.70720       -9.09390        3.80160
H         -5.36810       -0.82400       -2.27470
H         -7.14210        0.83730       -2.59760
H         -5.02000        3.58350       -0.11770
H         -3.25720        1.92330        0.22440
H         -2.66310       -3.29900       -1.34380
H         -1.92390       -4.26440       -3.46770
H         -1.88980       -0.38180       -5.23250
H         -2.65940        0.58720       -3.11530
H         -7.34470        4.02690       -0.75130
H         -8.23890        2.87490       -1.75390
H         -5.99130        4.69920       -2.73850
H         -6.88440        3.55150       -3.73650
H         -7.71680        4.94110       -3.03130
H         -0.88640       -3.91400       -5.64920
H         -0.79930       -2.29360       -6.35550
H         -3.33040       -3.99770       -6.15860
H         -2.38120       -3.73160       -7.62480
H         -3.23870       -2.38570       -6.86680
H         -5.96090       -4.74470        2.55610
H          1.10700        6.41300        4.82720
H          0.54540        5.09550        5.86690
H          2.89210        4.68820        6.61240
H          2.39750        6.35060        6.94920
H          3.45200        6.00000        5.57580
H          5.58600       -3.73950        2.63930
H          6.61600       -2.60050        3.51920
H          4.92370       -2.48360        5.34750
H          5.46190       -4.14620        5.08740
H          3.89330       -3.61520        4.47120
