F8IDT-Br.sdf
  xtb     12202113423D
 energy: -157.810182795505 gnorm: 0.000640661587 xtb: 6.4.1 (unknown)
 89 97  0     0  0            999 V2000
    5.3706   -3.3810    2.7904 C   0  0  0  0  0  0  0  0  0  0  0  0
    4.3928   -2.7091    2.5201 O   0  0  0  0  0  0  0  0  0  0  0  0
    6.5837   -2.9064    3.4886 C   0  0  0  0  0  0  0  0  0  0  0  0
    6.8511   -1.6437    3.9742 C   0  0  0  0  0  0  0  0  0  0  0  0
    8.0768   -1.4491    4.5965 C   0  0  0  0  0  0  0  0  0  0  0  0
    8.9983   -2.4797    4.7254 C   0  0  0  0  0  0  0  0  0  0  0  0
    8.7180   -3.7458    4.2334 C   0  0  0  0  0  0  0  0  0  0  0  0
    7.4987   -3.9663    3.6087 C   0  0  0  0  0  0  0  0  0  0  0  0
    6.9159   -5.1620    3.0001 C   0  0  0  0  0  0  0  0  0  0  0  0
    7.5360   -6.3817    2.9158 C   0  0  0  0  0  0  0  0  0  0  0  0
    8.8289   -6.6473    3.4155 C   0  0  0  0  0  0  0  0  0  0  0  0
    9.8741   -6.9320    3.7952 N   0  0  0  0  0  0  0  0  0  0  0  0
    7.0003   -7.5450    2.3240 C   0  0  0  0  0  0  0  0  0  0  0  0
    6.6455   -8.5363    1.8642 N   0  0  0  0  0  0  0  0  0  0  0  0
    5.5996   -4.8018    2.5073 C   0  0  0  0  0  0  0  0  0  0  0  0
    4.7128   -5.6525    1.8954 C   0  0  0  0  0  0  0  0  0  0  0  0
    3.4380   -5.4117    1.3658 C   0  0  0  0  0  0  0  0  0  0  0  0
    2.6689   -6.4170    0.7738 C   0  0  0  0  0  0  0  0  0  0  0  0
    1.4520   -5.9798    0.2898 C   0  0  0  0  0  0  0  0  0  0  0  0
    1.2440   -4.6210    0.4924 C   0  0  0  0  0  0  0  0  0  0  0  0
    2.5850   -3.8930    1.3054 S   0  0  0  0  0  0  0  0  0  0  0  0
    0.1062   -3.8258    0.1033 C   0  0  0  0  0  0  0  0  0  0  0  0
   -0.9609   -4.3775   -0.6209 C   0  0  0  0  0  0  0  0  0  0  0  0
   -2.0327   -3.6055   -1.0201 C   0  0  0  0  0  0  0  0  0  0  0  0
   -2.0480   -2.2555   -0.6969 C   0  0  0  0  0  0  0  0  0  0  0  0
   -0.9913   -1.6919    0.0403 C   0  0  0  0  0  0  0  0  0  0  0  0
    0.0693   -2.4631    0.4408 C   0  0  0  0  0  0  0  0  0  0  0  0
   -1.2450   -0.2245    0.3052 C   0  0  0  0  0  0  0  0  0  0  0  0
   -0.0840    0.6649   -0.1613 C   0  0  0  0  0  0  0  0  0  0  0  0
    0.2591    0.4482   -1.6307 C   0  0  0  0  0  0  0  0  0  0  0  0
   -1.4995   -0.0787    1.8254 C   0  0  0  0  0  0  0  0  0  0  0  0
   -1.9931    1.2872    2.2833 C   0  0  0  0  0  0  0  0  0  0  0  0
   -2.5067    0.0062   -0.4918 C   0  0  0  0  0  0  0  0  0  0  0  0
   -2.9869   -1.2054   -1.0246 C   0  0  0  0  0  0  0  0  0  0  0  0
   -4.1553   -1.2303   -1.7735 C   0  0  0  0  0  0  0  0  0  0  0  0
   -4.8264   -0.0475   -2.0083 C   0  0  0  0  0  0  0  0  0  0  0  0
   -4.3348    1.1727   -1.5242 C   0  0  0  0  0  0  0  0  0  0  0  0
   -3.1586    1.1840   -0.7577 C   0  0  0  0  0  0  0  0  0  0  0  0
   -4.9952    2.4196   -1.8214 C   0  0  0  0  0  0  0  0  0  0  0  0
   -6.2655    2.6134   -2.3482 C   0  0  0  0  0  0  0  0  0  0  0  0
   -6.5764    3.9473   -2.5247 C   0  0  0  0  0  0  0  0  0  0  0  0
   -5.5548    4.8224   -2.1462 C   0  0  0  0  0  0  0  0  0  0  0  0
   -4.1885    3.9228   -1.5434 S   0  0  0  0  0  0  0  0  0  0  0  0
   -5.6686    6.2132   -2.2749 C   0  0  0  0  0  0  0  0  0  0  0  0
   -4.7787    7.2128   -1.9691 C   0  0  0  0  0  0  0  0  0  0  0  0
   -4.9985    8.6330   -2.1699 C   0  0  0  0  0  0  0  0  0  0  0  0
   -6.1004    9.2407   -2.7135 C   0  0  0  0  0  0  0  0  0  0  0  0
   -7.2572    8.5884   -3.1897 C   0  0  0  0  0  0  0  0  0  0  0  0
   -8.2316    8.1412   -3.6026 N   0  0  0  0  0  0  0  0  0  0  0  0
   -6.2326   10.6360   -2.8797 C   0  0  0  0  0  0  0  0  0  0  0  0
   -6.4050   11.7587   -3.0453 N   0  0  0  0  0  0  0  0  0  0  0  0
   -3.8061    9.3331   -1.6927 C   0  0  0  0  0  0  0  0  0  0  0  0
   -3.4824   10.6814   -1.6411 C   0  0  0  0  0  0  0  0  0  0  0  0
   -2.2497   11.0543   -1.1261 C   0  0  0  0  0  0  0  0  0  0  0  0
   -1.3531   10.0973   -0.6702 C   0  0  0  0  0  0  0  0  0  0  0  0
   -1.6535    8.7424   -0.7102 C   0  0  0  0  0  0  0  0  0  0  0  0
   -2.8822    8.3837   -1.2232 C   0  0  0  0  0  0  0  0  0  0  0  0
   -3.4498    7.0278   -1.3770 C   0  0  0  0  0  0  0  0  0  0  0  0
   -2.9057    5.9857   -1.0627 O   0  0  0  0  0  0  0  0  0  0  0  0
    8.5047    0.2676    5.2888 Br  0  0  0  0  0  0  0  0  0  0  0  0
    0.3242   10.6563    0.0253 Br  0  0  0  0  0  0  0  0  0  0  0  0
    6.1306   -0.8474    3.8697 H   0  0  0  0  0  0  0  0  0  0  0  0
    9.9421   -2.2926    5.2140 H   0  0  0  0  0  0  0  0  0  0  0  0
    9.4489   -4.5291    4.3465 H   0  0  0  0  0  0  0  0  0  0  0  0
    5.0238   -6.6849    1.7885 H   0  0  0  0  0  0  0  0  0  0  0  0
    3.0150   -7.4340    0.7089 H   0  0  0  0  0  0  0  0  0  0  0  0
    0.7445   -6.6300   -0.1916 H   0  0  0  0  0  0  0  0  0  0  0  0
   -0.9422   -5.4238   -0.8814 H   0  0  0  0  0  0  0  0  0  0  0  0
   -2.8417   -4.0468   -1.5825 H   0  0  0  0  0  0  0  0  0  0  0  0
    0.8857   -2.0354    1.0036 H   0  0  0  0  0  0  0  0  0  0  0  0
    0.7926    0.4494    0.4525 H   0  0  0  0  0  0  0  0  0  0  0  0
   -0.3528    1.7108   -0.0108 H   0  0  0  0  0  0  0  0  0  0  0  0
    1.0767    1.1025   -1.9233 H   0  0  0  0  0  0  0  0  0  0  0  0
    0.5620   -0.5813   -1.8094 H   0  0  0  0  0  0  0  0  0  0  0  0
   -0.5993    0.6681   -2.2619 H   0  0  0  0  0  0  0  0  0  0  0  0
   -2.2360   -0.8327    2.1167 H   0  0  0  0  0  0  0  0  0  0  0  0
   -0.5656   -0.3146    2.3399 H   0  0  0  0  0  0  0  0  0  0  0  0
   -2.9707    1.5089    1.8639 H   0  0  0  0  0  0  0  0  0  0  0  0
   -2.0827    1.2901    3.3675 H   0  0  0  0  0  0  0  0  0  0  0  0
   -1.3011    2.0758    2.0014 H   0  0  0  0  0  0  0  0  0  0  0  0
   -4.5289   -2.1582   -2.1798 H   0  0  0  0  0  0  0  0  0  0  0  0
   -5.7256   -0.0595   -2.6040 H   0  0  0  0  0  0  0  0  0  0  0  0
   -2.7771    2.1278   -0.3992 H   0  0  0  0  0  0  0  0  0  0  0  0
   -6.9453    1.8132   -2.5793 H   0  0  0  0  0  0  0  0  0  0  0  0
   -7.5129    4.3029   -2.9182 H   0  0  0  0  0  0  0  0  0  0  0  0
   -6.6205    6.5199   -2.6918 H   0  0  0  0  0  0  0  0  0  0  0  0
   -4.1607   11.4430   -1.9881 H   0  0  0  0  0  0  0  0  0  0  0  0
   -1.9838   12.0992   -1.0788 H   0  0  0  0  0  0  0  0  0  0  0  0
   -0.9617    7.9933   -0.3575 H   0  0  0  0  0  0  0  0  0  0  0  0
  1  2  2  0  0  0  0
  1  3  1  0  0  0  0
  3  4  2  0  0  0  0
  4  5  1  0  0  0  0
  5  6  2  0  0  0  0
  6  7  1  0  0  0  0
  7  8  2  0  0  0  0
  3  8  1  0  0  0  0
  8  9  1  0  0  0  0
  9 10  2  0  0  0  0
 10 11  1  0  0  0  0
 11 12  3  0  0  0  0
 10 13  1  0  0  0  0
 13 14  3  0  0  0  0
  9 15  1  0  0  0  0
  1 15  1  0  0  0  0
 15 16  2  0  0  0  0
 16 17  1  0  0  0  0
 17 18  2  0  0  0  0
 18 19  1  0  0  0  0
 19 20  2  0  0  0  0
 20 21  1  0  0  0  0
 17 21  1  0  0  0  0
 20 22  1  0  0  0  0
 22 23  2  0  0  0  0
 23 24  1  0  0  0  0
 24 25  2  0  0  0  0
 25 26  1  0  0  0  0
 26 27  2  0  0  0  0
 22 27  1  0  0  0  0
 26 28  1  0  0  0  0
 28 29  1  0  0  0  0
 29 30  1  0  0  0  0
 28 31  1  0  0  0  0
 31 32  1  0  0  0  0
 28 33  1  0  0  0  0
 33 34  2  0  0  0  0
 25 34  1  0  0  0  0
 34 35  1  0  0  0  0
 35 36  2  0  0  0  0
 36 37  1  0  0  0  0
 37 38  2  0  0  0  0
 33 38  1  0  0  0  0
 37 39  1  0  0  0  0
 39 40  2  0  0  0  0
 40 41  1  0  0  0  0
 41 42  2  0  0  0  0
 42 43  1  0  0  0  0
 39 43  1  0  0  0  0
 42 44  1  0  0  0  0
 44 45  2  0  0  0  0
 45 46  1  0  0  0  0
 46 47  2  0  0  0  0
 47 48  1  0  0  0  0
 48 49  3  0  0  0  0
 47 50  1  0  0  0  0
 50 51  3  0  0  0  0
 46 52  1  0  0  0  0
 52 53  2  0  0  0  0
 53 54  1  0  0  0  0
 54 55  2  0  0  0  0
 55 56  1  0  0  0  0
 56 57  2  0  0  0  0
 52 57  1  0  0  0  0
 57 58  1  0  0  0  0
 45 58  1  0  0  0  0
 58 59  2  0  0  0  0
  5 60  1  0  0  0  0
 55 61  1  0  0  0  0
  4 62  1  0  0  0  0
  6 63  1  0  0  0  0
  7 64  1  0  0  0  0
 16 65  1  0  0  0  0
 18 66  1  0  0  0  0
 19 67  1  0  0  0  0
 23 68  1  0  0  0  0
 24 69  1  0  0  0  0
 27 70  1  0  0  0  0
 29 71  1  0  0  0  0
 29 72  1  0  0  0  0
 30 73  1  0  0  0  0
 30 74  1  0  0  0  0
 30 75  1  0  0  0  0
 31 76  1  0  0  0  0
 31 77  1  0  0  0  0
 32 78  1  0  0  0  0
 32 79  1  0  0  0  0
 32 80  1  0  0  0  0
 35 81  1  0  0  0  0
 36 82  1  0  0  0  0
 38 83  1  0  0  0  0
 40 84  1  0  0  0  0
 41 85  1  0  0  0  0
 44 86  1  0  0  0  0
 53 87  1  0  0  0  0
 54 88  1  0  0  0  0
 56 89  1  0  0  0  0
M  END
