115
FDICTF.sdf
C          8.46440       -0.50170        4.58570
O          7.45250       -1.00250        5.03590
C          9.83680       -0.80040        5.04020
C         10.24360       -1.70900        5.99740
C         11.60250       -1.83010        6.25010
C         12.51780       -1.05530        5.55240
C         12.11110       -0.13790        4.59230
C         10.75530       -0.00660        4.33480
C         10.01610        0.85160        3.41050
C         10.57740        1.84340        2.64850
C         11.95820        2.13420        2.62090
N         13.06580        2.42630        2.54160
C          9.89130        2.74690        1.80900
N          9.42480        3.53710        1.11730
C          8.60950        0.49630        3.50370
C          7.65630        0.97300        2.63950
C          6.27330        0.74820        2.55150
C          5.37040        0.05320        3.35290
C          4.08060        0.09690        2.85510
C          3.97680        0.80920        1.66020
S          5.46410        1.46960        1.15330
C          2.64800        0.73710        1.14160
C          1.89780       -0.04970        2.04480
C          2.73860       -0.46390        3.24030
C          2.78590       -1.98890        3.42020
C          3.22320       -2.71470        2.15300
C          2.16640        0.24220        4.49030
C          2.99050        0.06870        5.75910
C          0.58570       -0.35550        1.76950
C          0.04010        0.13500        0.58550
C          0.77900        0.94850       -0.29570
C          2.09850        1.24440       -0.03200
C         -0.05190        1.31300       -1.50920
C          0.68850        0.80840       -2.76540
C         -0.00290        1.04920       -4.10120
C         -0.39720        2.81760       -1.54850
C          0.77790        3.76530       -1.74920
C         -1.33480        0.55570       -1.23300
C         -1.26260       -0.10630        0.00770
C         -2.32140       -0.86000        0.50860
C         -3.45150       -0.97980       -0.26770
C         -3.53240       -0.28550       -1.49720
C         -2.49050        0.50170       -1.97980
C         -4.81390       -0.56320       -2.06220
C         -5.54060       -1.40500       -1.21720
C         -4.73570       -1.74610        0.01300
C         -5.37180       -1.18870        1.30130
C         -6.71590       -1.80050        1.67280
C         -4.52770       -3.27530        0.02680
C         -3.68850       -3.82730        1.17150
C         -6.75470       -1.76030       -1.76260
C         -6.97550       -1.18320       -3.02330
S         -5.62140       -0.17740       -3.51570
C         -8.13330       -1.45100       -3.76290
C         -8.51290       -1.03770       -5.01630
C         -9.72760       -1.42800       -5.70350
C        -10.72120       -2.25340       -5.24280
C        -10.75540       -2.88650       -3.98310
N        -10.86500       -3.44010       -2.98190
C        -11.87450       -2.59530       -5.98000
N        -12.83580       -2.91960       -6.51780
C         -9.71440       -0.78170       -7.01700
C        -10.61300       -0.81700       -8.07130
C        -10.32080       -0.08770       -9.21720
C         -9.16100        0.66570       -9.32200
C         -8.25400        0.70900       -8.27220
C         -8.54150       -0.01570       -7.13290
C         -7.75140       -0.14210       -5.89430
O         -6.68340        0.39730       -5.66280
H          9.51240       -2.30250        6.52480
H         11.95180       -2.53230        6.99210
H         13.57230       -1.16510        5.75720
H         12.84690        0.44650        4.06510
H          8.02320        1.62320        1.85370
H          5.68590       -0.46670        4.23820
H          1.79550       -2.33900        3.71820
H          3.48630       -2.22510        4.22160
H          4.21960       -2.39710        1.85430
H          3.24530       -3.78780        2.32710
H          2.53790       -2.51240        1.33250
H          2.08310        1.30870        4.26440
H          1.15670       -0.13850        4.65920
H          3.99510        0.46010        5.62680
H          2.51840        0.61410        6.57330
H          3.05820       -0.97620        6.04840
H          0.00070       -0.97640        2.43100
H          2.71210        1.82290       -0.70470
H          1.67130        1.28170       -2.78730
H          0.85000       -0.26600       -2.64060
H          0.65720        0.73240       -4.90620
H         -0.23020        2.10140       -4.24820
H         -0.92080        0.47440       -4.17860
H         -1.12530        2.97580       -2.34550
H         -0.89190        3.06440       -0.60490
H          1.31460        3.54490       -2.66790
H          0.40770        4.78650       -1.81270
H          1.47000        3.71240       -0.91360
H         -2.24300       -1.32500        1.47860
H         -2.61580        1.04120       -2.90490
H         -5.49700       -0.11110        1.16560
H         -4.66870       -1.33190        2.12320
H         -6.63130       -2.86950        1.84760
H         -7.08420       -1.33740        2.58570
H         -7.44920       -1.62970        0.88980
H         -5.51280       -3.74440        0.04670
H         -4.05580       -3.55120       -0.92010
H         -4.09710       -3.54370        2.13760
H         -2.66130       -3.48070        1.10420
H         -3.67890       -4.91390        1.11620
H         -7.47810       -2.42130       -1.31870
H         -8.81810       -2.11160       -3.24480
H        -11.52240       -1.39280       -8.02100
H        -11.01570       -0.11130      -10.04320
H         -8.96370        1.22090      -10.22670
H         -7.34470        1.28740       -8.33060
