FDICTF.sdf
  xtb     12202113433D
 energy: -180.290310310984 gnorm: 0.000216657870 xtb: 6.4.1 (unknown)
115125  0     0  0            999 V2000
    8.4644   -0.5017    4.5857 C   0  0  0  0  0  0  0  0  0  0  0  0
    7.4525   -1.0025    5.0359 O   0  0  0  0  0  0  0  0  0  0  0  0
    9.8368   -0.8004    5.0402 C   0  0  0  0  0  0  0  0  0  0  0  0
   10.2436   -1.7090    5.9974 C   0  0  0  0  0  0  0  0  0  0  0  0
   11.6025   -1.8301    6.2501 C   0  0  0  0  0  0  0  0  0  0  0  0
   12.5178   -1.0553    5.5524 C   0  0  0  0  0  0  0  0  0  0  0  0
   12.1111   -0.1379    4.5923 C   0  0  0  0  0  0  0  0  0  0  0  0
   10.7553   -0.0066    4.3348 C   0  0  0  0  0  0  0  0  0  0  0  0
   10.0161    0.8516    3.4105 C   0  0  0  0  0  0  0  0  0  0  0  0
   10.5774    1.8434    2.6485 C   0  0  0  0  0  0  0  0  0  0  0  0
   11.9582    2.1342    2.6209 C   0  0  0  0  0  0  0  0  0  0  0  0
   13.0658    2.4263    2.5416 N   0  0  0  0  0  0  0  0  0  0  0  0
    9.8913    2.7469    1.8090 C   0  0  0  0  0  0  0  0  0  0  0  0
    9.4248    3.5371    1.1173 N   0  0  0  0  0  0  0  0  0  0  0  0
    8.6095    0.4963    3.5037 C   0  0  0  0  0  0  0  0  0  0  0  0
    7.6563    0.9730    2.6395 C   0  0  0  0  0  0  0  0  0  0  0  0
    6.2733    0.7482    2.5515 C   0  0  0  0  0  0  0  0  0  0  0  0
    5.3704    0.0532    3.3529 C   0  0  0  0  0  0  0  0  0  0  0  0
    4.0806    0.0969    2.8551 C   0  0  0  0  0  0  0  0  0  0  0  0
    3.9768    0.8092    1.6602 C   0  0  0  0  0  0  0  0  0  0  0  0
    5.4641    1.4696    1.1533 S   0  0  0  0  0  0  0  0  0  0  0  0
    2.6480    0.7371    1.1416 C   0  0  0  0  0  0  0  0  0  0  0  0
    1.8978   -0.0497    2.0448 C   0  0  0  0  0  0  0  0  0  0  0  0
    2.7386   -0.4639    3.2403 C   0  0  0  0  0  0  0  0  0  0  0  0
    2.7859   -1.9889    3.4202 C   0  0  0  0  0  0  0  0  0  0  0  0
    3.2232   -2.7147    2.1530 C   0  0  0  0  0  0  0  0  0  0  0  0
    2.1664    0.2422    4.4903 C   0  0  0  0  0  0  0  0  0  0  0  0
    2.9905    0.0687    5.7591 C   0  0  0  0  0  0  0  0  0  0  0  0
    0.5857   -0.3555    1.7695 C   0  0  0  0  0  0  0  0  0  0  0  0
    0.0401    0.1350    0.5855 C   0  0  0  0  0  0  0  0  0  0  0  0
    0.7790    0.9485   -0.2957 C   0  0  0  0  0  0  0  0  0  0  0  0
    2.0985    1.2444   -0.0320 C   0  0  0  0  0  0  0  0  0  0  0  0
   -0.0519    1.3130   -1.5092 C   0  0  0  0  0  0  0  0  0  0  0  0
    0.6885    0.8084   -2.7654 C   0  0  0  0  0  0  0  0  0  0  0  0
   -0.0029    1.0492   -4.1012 C   0  0  0  0  0  0  0  0  0  0  0  0
   -0.3972    2.8176   -1.5485 C   0  0  0  0  0  0  0  0  0  0  0  0
    0.7779    3.7653   -1.7492 C   0  0  0  0  0  0  0  0  0  0  0  0
   -1.3348    0.5557   -1.2330 C   0  0  0  0  0  0  0  0  0  0  0  0
   -1.2626   -0.1063    0.0077 C   0  0  0  0  0  0  0  0  0  0  0  0
   -2.3214   -0.8600    0.5086 C   0  0  0  0  0  0  0  0  0  0  0  0
   -3.4515   -0.9798   -0.2677 C   0  0  0  0  0  0  0  0  0  0  0  0
   -3.5324   -0.2855   -1.4972 C   0  0  0  0  0  0  0  0  0  0  0  0
   -2.4905    0.5017   -1.9798 C   0  0  0  0  0  0  0  0  0  0  0  0
   -4.8139   -0.5632   -2.0622 C   0  0  0  0  0  0  0  0  0  0  0  0
   -5.5406   -1.4050   -1.2172 C   0  0  0  0  0  0  0  0  0  0  0  0
   -4.7357   -1.7461    0.0130 C   0  0  0  0  0  0  0  0  0  0  0  0
   -5.3718   -1.1887    1.3013 C   0  0  0  0  0  0  0  0  0  0  0  0
   -6.7159   -1.8005    1.6728 C   0  0  0  0  0  0  0  0  0  0  0  0
   -4.5277   -3.2753    0.0268 C   0  0  0  0  0  0  0  0  0  0  0  0
   -3.6885   -3.8273    1.1715 C   0  0  0  0  0  0  0  0  0  0  0  0
   -6.7547   -1.7603   -1.7626 C   0  0  0  0  0  0  0  0  0  0  0  0
   -6.9755   -1.1832   -3.0233 C   0  0  0  0  0  0  0  0  0  0  0  0
   -5.6214   -0.1774   -3.5157 S   0  0  0  0  0  0  0  0  0  0  0  0
   -8.1333   -1.4510   -3.7629 C   0  0  0  0  0  0  0  0  0  0  0  0
   -8.5129   -1.0377   -5.0163 C   0  0  0  0  0  0  0  0  0  0  0  0
   -9.7276   -1.4280   -5.7035 C   0  0  0  0  0  0  0  0  0  0  0  0
  -10.7212   -2.2534   -5.2428 C   0  0  0  0  0  0  0  0  0  0  0  0
  -10.7554   -2.8865   -3.9831 C   0  0  0  0  0  0  0  0  0  0  0  0
  -10.8650   -3.4401   -2.9819 N   0  0  0  0  0  0  0  0  0  0  0  0
  -11.8745   -2.5953   -5.9800 C   0  0  0  0  0  0  0  0  0  0  0  0
  -12.8358   -2.9196   -6.5178 N   0  0  0  0  0  0  0  0  0  0  0  0
   -9.7144   -0.7817   -7.0170 C   0  0  0  0  0  0  0  0  0  0  0  0
  -10.6130   -0.8170   -8.0713 C   0  0  0  0  0  0  0  0  0  0  0  0
  -10.3208   -0.0877   -9.2172 C   0  0  0  0  0  0  0  0  0  0  0  0
   -9.1610    0.6657   -9.3220 C   0  0  0  0  0  0  0  0  0  0  0  0
   -8.2540    0.7090   -8.2722 C   0  0  0  0  0  0  0  0  0  0  0  0
   -8.5415   -0.0157   -7.1329 C   0  0  0  0  0  0  0  0  0  0  0  0
   -7.7514   -0.1421   -5.8943 C   0  0  0  0  0  0  0  0  0  0  0  0
   -6.6834    0.3973   -5.6628 O   0  0  0  0  0  0  0  0  0  0  0  0
    9.5124   -2.3025    6.5248 H   0  0  0  0  0  0  0  0  0  0  0  0
   11.9518   -2.5323    6.9921 H   0  0  0  0  0  0  0  0  0  0  0  0
   13.5723   -1.1651    5.7572 H   0  0  0  0  0  0  0  0  0  0  0  0
   12.8469    0.4465    4.0651 H   0  0  0  0  0  0  0  0  0  0  0  0
    8.0232    1.6232    1.8537 H   0  0  0  0  0  0  0  0  0  0  0  0
    5.6859   -0.4667    4.2382 H   0  0  0  0  0  0  0  0  0  0  0  0
    1.7955   -2.3390    3.7182 H   0  0  0  0  0  0  0  0  0  0  0  0
    3.4863   -2.2251    4.2216 H   0  0  0  0  0  0  0  0  0  0  0  0
    4.2196   -2.3971    1.8543 H   0  0  0  0  0  0  0  0  0  0  0  0
    3.2453   -3.7878    2.3271 H   0  0  0  0  0  0  0  0  0  0  0  0
    2.5379   -2.5124    1.3325 H   0  0  0  0  0  0  0  0  0  0  0  0
    2.0831    1.3087    4.2644 H   0  0  0  0  0  0  0  0  0  0  0  0
    1.1567   -0.1385    4.6592 H   0  0  0  0  0  0  0  0  0  0  0  0
    3.9951    0.4601    5.6268 H   0  0  0  0  0  0  0  0  0  0  0  0
    2.5184    0.6141    6.5733 H   0  0  0  0  0  0  0  0  0  0  0  0
    3.0582   -0.9762    6.0484 H   0  0  0  0  0  0  0  0  0  0  0  0
    0.0007   -0.9764    2.4310 H   0  0  0  0  0  0  0  0  0  0  0  0
    2.7121    1.8229   -0.7047 H   0  0  0  0  0  0  0  0  0  0  0  0
    1.6713    1.2817   -2.7873 H   0  0  0  0  0  0  0  0  0  0  0  0
    0.8500   -0.2660   -2.6406 H   0  0  0  0  0  0  0  0  0  0  0  0
    0.6572    0.7324   -4.9062 H   0  0  0  0  0  0  0  0  0  0  0  0
   -0.2302    2.1014   -4.2482 H   0  0  0  0  0  0  0  0  0  0  0  0
   -0.9208    0.4744   -4.1786 H   0  0  0  0  0  0  0  0  0  0  0  0
   -1.1253    2.9758   -2.3455 H   0  0  0  0  0  0  0  0  0  0  0  0
   -0.8919    3.0644   -0.6049 H   0  0  0  0  0  0  0  0  0  0  0  0
    1.3146    3.5449   -2.6679 H   0  0  0  0  0  0  0  0  0  0  0  0
    0.4077    4.7865   -1.8127 H   0  0  0  0  0  0  0  0  0  0  0  0
    1.4700    3.7124   -0.9136 H   0  0  0  0  0  0  0  0  0  0  0  0
   -2.2430   -1.3250    1.4786 H   0  0  0  0  0  0  0  0  0  0  0  0
   -2.6158    1.0412   -2.9049 H   0  0  0  0  0  0  0  0  0  0  0  0
   -5.4970   -0.1111    1.1656 H   0  0  0  0  0  0  0  0  0  0  0  0
   -4.6687   -1.3319    2.1232 H   0  0  0  0  0  0  0  0  0  0  0  0
   -6.6313   -2.8695    1.8476 H   0  0  0  0  0  0  0  0  0  0  0  0
   -7.0842   -1.3374    2.5857 H   0  0  0  0  0  0  0  0  0  0  0  0
   -7.4492   -1.6297    0.8898 H   0  0  0  0  0  0  0  0  0  0  0  0
   -5.5128   -3.7444    0.0467 H   0  0  0  0  0  0  0  0  0  0  0  0
   -4.0558   -3.5512   -0.9201 H   0  0  0  0  0  0  0  0  0  0  0  0
   -4.0971   -3.5437    2.1376 H   0  0  0  0  0  0  0  0  0  0  0  0
   -2.6613   -3.4807    1.1042 H   0  0  0  0  0  0  0  0  0  0  0  0
   -3.6789   -4.9139    1.1162 H   0  0  0  0  0  0  0  0  0  0  0  0
   -7.4781   -2.4213   -1.3187 H   0  0  0  0  0  0  0  0  0  0  0  0
   -8.8181   -2.1116   -3.2448 H   0  0  0  0  0  0  0  0  0  0  0  0
  -11.5224   -1.3928   -8.0210 H   0  0  0  0  0  0  0  0  0  0  0  0
  -11.0157   -0.1113  -10.0432 H   0  0  0  0  0  0  0  0  0  0  0  0
   -8.9637    1.2209  -10.2267 H   0  0  0  0  0  0  0  0  0  0  0  0
   -7.3447    1.2874   -8.3306 H   0  0  0  0  0  0  0  0  0  0  0  0
  1  2  2  0  0  0  0
  1  3  1  0  0  0  0
  3  4  2  0  0  0  0
  4  5  1  0  0  0  0
  5  6  2  0  0  0  0
  6  7  1  0  0  0  0
  7  8  2  0  0  0  0
  3  8  1  0  0  0  0
  8  9  1  0  0  0  0
  9 10  2  0  0  0  0
 10 11  1  0  0  0  0
 11 12  3  0  0  0  0
 10 13  1  0  0  0  0
 13 14  3  0  0  0  0
  9 15  1  0  0  0  0
  1 15  1  0  0  0  0
 15 16  2  0  0  0  0
 16 17  1  0  0  0  0
 17 18  2  0  0  0  0
 18 19  1  0  0  0  0
 19 20  2  0  0  0  0
 20 21  1  0  0  0  0
 17 21  1  0  0  0  0
 20 22  1  0  0  0  0
 22 23  2  0  0  0  0
 23 24  1  0  0  0  0
 19 24  1  0  0  0  0
 24 25  1  0  0  0  0
 25 26  1  0  0  0  0
 24 27  1  0  0  0  0
 27 28  1  0  0  0  0
 23 29  1  0  0  0  0
 29 30  2  0  0  0  0
 30 31  1  0  0  0  0
 31 32  2  0  0  0  0
 22 32  1  0  0  0  0
 31 33  1  0  0  0  0
 33 34  1  0  0  0  0
 34 35  1  0  0  0  0
 33 36  1  0  0  0  0
 36 37  1  0  0  0  0
 33 38  1  0  0  0  0
 38 39  2  0  0  0  0
 30 39  1  0  0  0  0
 39 40  1  0  0  0  0
 40 41  2  0  0  0  0
 41 42  1  0  0  0  0
 42 43  2  0  0  0  0
 38 43  1  0  0  0  0
 42 44  1  0  0  0  0
 44 45  2  0  0  0  0
 45 46  1  0  0  0  0
 41 46  1  0  0  0  0
 46 47  1  0  0  0  0
 47 48  1  0  0  0  0
 46 49  1  0  0  0  0
 49 50  1  0  0  0  0
 45 51  1  0  0  0  0
 51 52  2  0  0  0  0
 52 53  1  0  0  0  0
 44 53  1  0  0  0  0
 52 54  1  0  0  0  0
 54 55  2  0  0  0  0
 55 56  1  0  0  0  0
 56 57  2  0  0  0  0
 57 58  1  0  0  0  0
 58 59  3  0  0  0  0
 57 60  1  0  0  0  0
 60 61  3  0  0  0  0
 56 62  1  0  0  0  0
 62 63  2  0  0  0  0
 63 64  1  0  0  0  0
 64 65  2  0  0  0  0
 65 66  1  0  0  0  0
 66 67  2  0  0  0  0
 62 67  1  0  0  0  0
 67 68  1  0  0  0  0
 55 68  1  0  0  0  0
 68 69  2  0  0  0  0
  4 70  1  0  0  0  0
  5 71  1  0  0  0  0
  6 72  1  0  0  0  0
  7 73  1  0  0  0  0
 16 74  1  0  0  0  0
 18 75  1  0  0  0  0
 25 76  1  0  0  0  0
 25 77  1  0  0  0  0
 26 78  1  0  0  0  0
 26 79  1  0  0  0  0
 26 80  1  0  0  0  0
 27 81  1  0  0  0  0
 27 82  1  0  0  0  0
 28 83  1  0  0  0  0
 28 84  1  0  0  0  0
 28 85  1  0  0  0  0
 29 86  1  0  0  0  0
 32 87  1  0  0  0  0
 34 88  1  0  0  0  0
 34 89  1  0  0  0  0
 35 90  1  0  0  0  0
 35 91  1  0  0  0  0
 35 92  1  0  0  0  0
 36 93  1  0  0  0  0
 36 94  1  0  0  0  0
 37 95  1  0  0  0  0
 37 96  1  0  0  0  0
 37 97  1  0  0  0  0
 40 98  1  0  0  0  0
 43 99  1  0  0  0  0
 47100  1  0  0  0  0
 47101  1  0  0  0  0
 48102  1  0  0  0  0
 48103  1  0  0  0  0
 48104  1  0  0  0  0
 49105  1  0  0  0  0
 49106  1  0  0  0  0
 50107  1  0  0  0  0
 50108  1  0  0  0  0
 50109  1  0  0  0  0
 51110  1  0  0  0  0
 54111  1  0  0  0  0
 63112  1  0  0  0  0
 64113  1  0  0  0  0
 65114  1  0  0  0  0
 66115  1  0  0  0  0
M  END
