259
FDTBT-IDTT-FINCN.sdf
C          5.89010        1.66430       -7.97050
C          6.49060        0.62340       -8.64690
C          5.60170       -0.40070       -8.97460
C          4.30940       -0.17010       -8.54150
S          4.18870        1.37870       -7.76240
C          3.17080       -1.03660       -8.52260
C          1.97440       -0.62280       -7.87660
C          0.88070       -1.52030       -7.64520
C          0.91890       -2.88100       -8.05320
C          2.06120       -3.22160       -8.77050
C          3.13280       -2.34500       -8.99210
N          1.73280        0.58780       -7.38400
S          0.27600        0.60450       -6.70330
N         -0.11560       -0.92850       -6.99410
F          2.20710       -4.47080       -9.25160
F          4.18680       -2.85050       -9.66050
C         -1.98880       -4.81570       -6.37360
C         -1.30360       -5.71730       -7.16120
C         -0.25200       -5.13970       -7.87040
C         -0.10830       -3.78540       -7.63700
S         -1.33770       -3.21230       -6.54550
C         -9.46000       -9.37600        4.10530
C         -9.49850       -7.96390        4.12120
S        -10.14080      -10.11150        5.49550
C        -10.50100       -8.51060        6.14910
C        -10.09440       -7.49490        5.28780
C        -11.10780       -8.22740        7.38080
C        -11.54890       -9.06240        8.37630
C        -11.47050      -10.52580        8.36110
C        -12.02760      -10.97580        9.65400
C        -12.42840       -9.85650       10.40290
C        -12.15140       -8.64560        9.62780
C        -12.16480      -12.26590       10.12580
C        -12.71900      -12.43340       11.38470
C        -13.11920      -11.32890       12.13720
C        -12.98150      -10.03310       11.66160
O        -11.03890      -11.24220        7.47770
C        -12.43010       -7.36840       10.03870
C        -12.18270       -6.18980        9.30310
C        -13.02090       -7.04790       11.28010
N        -13.49720       -6.71790       12.27070
N        -12.02010       -5.18310        8.77440
F        -13.64980      -11.51940       13.35020
F        -12.87110      -13.66560       11.88410
C         -8.88990       -7.43990        2.95720
C         -8.42670       -8.42150        2.11970
S         -8.71140      -10.04320        2.70430
C         -8.63070       -6.07740        2.37000
C         -7.89120       -6.45420        1.09580
C         -7.78950       -7.85790        0.96540
C         -9.98100       -5.43100        2.10930
C         -7.72760       -5.20180        3.21530
C         -6.90860       -5.74500        4.19470
C         -6.06260       -4.93550        4.93080
C         -6.00640       -3.56740        4.70440
C         -6.81750       -3.03020        3.71280
C         -7.66660       -3.83380        2.97690
C        -10.61320       -4.71370        3.11720
C        -11.86570       -4.16820        2.91240
C        -12.52440       -4.33000        1.70010
C        -11.89250       -5.05520        0.69930
C        -10.63990       -5.60590        0.90050
C         -5.05630       -2.69690        5.47490
C         -3.71130       -2.60430        4.75150
C        -13.86220       -3.69200        1.46210
C        -13.68620       -2.27270        0.91780
C         -7.32930       -5.61560        0.16180
C         -6.67010       -6.21040       -0.90890
C         -6.58840       -7.61410       -1.05350
C         -7.14300       -8.45270       -0.11350
C         -5.93280       -5.63490       -1.99000
C         -5.37650       -6.62090       -2.78270
C         -5.79440       -7.98420       -2.29640
C         -6.63270       -8.61800       -3.39270
C         -4.63110       -8.87010       -1.89640
C         -4.79000      -10.24900       -1.84390
C         -3.74370      -11.06070       -1.44920
C         -2.51420      -10.51980       -1.09630
C         -2.36580       -9.14020       -1.13570
C         -3.41070       -8.32340       -1.52580
C         -8.01840       -8.63750       -3.34550
C         -8.74530       -9.18510       -4.38770
C         -8.11070       -9.71270       -5.50330
C         -6.72230       -9.67950       -5.54980
C         -5.99140       -9.13770       -4.51120
C         -1.39030      -11.40060       -0.63230
C         -1.45020      -11.58750        0.88510
C         -8.90140      -10.34860       -6.61000
S         -5.50970       -4.02300       -2.46070
C         -4.53120       -4.67780       -3.73870
C         -4.57600       -6.07910       -3.78980
C         -3.66170       -4.10300       -4.66520
C         -3.02620       -5.05210       -5.43410
S         -3.53820       -6.68520       -5.03150
C         -9.09100      -11.84270       -6.33950
C          6.83830       10.22520        2.27110
C          8.11930        9.65330        2.11430
S          6.64270       11.04420        3.75780
C          8.30070       10.60380        4.22210
C          8.93090        9.87770        3.22920
C          8.70500       11.03520        5.49800
C          9.85550       10.82250        6.21390
C         11.03770       10.01680        5.84440
C         11.90620       10.01140        7.04250
C         11.32440       10.78640        8.05670
C         10.06490       11.33920        7.55850
C         13.11290        9.36120        7.21030
C         13.74710        9.49090        8.43460
C         13.17440       10.25460        9.45250
C         11.96470       10.91040        9.28070
O         11.29490        9.45730        4.79880
C          9.27200       12.21160        8.25580
C          9.55500       12.66280        9.56400
C          8.07980       12.81800        7.80190
N          7.11070       13.37010        7.52800
N          9.71760       13.06720       10.62560
F         13.80510       10.35840       10.62750
F         14.91780        8.87690        8.64480
C          8.19690        8.97300        0.87700
C          7.02530        9.03670        0.16760
S          5.76130        9.94510        0.95690
C          9.23850        8.20620        0.10380
C          8.43580        7.78460       -1.11800
C          7.12180        8.30020       -1.05750
C         10.36180        9.17830       -0.21930
C          9.74440        6.96700        0.81440
C         10.92940        6.36750        0.40550
C         11.38210        5.21680        1.02130
C         10.66480        4.63160        2.05710
C          9.47720        5.22900        2.45500
C          9.01720        6.37830        1.83870
C         10.37560        9.89740       -1.40590
C         11.37650       10.81930       -1.65440
C         12.37700       11.05720       -0.72250
C         12.35270       10.34040        0.46740
C         11.35880        9.41500        0.71930
C         11.19070        3.41480        2.76200
C         12.14460        3.82300        3.88660
C         13.48550       12.02780       -1.01120
C         14.66960       11.30870       -1.66100
C          8.83220        6.98020       -2.16300
C          7.88790        6.70090       -3.14630
C          6.57680        7.23160       -3.08800
C          6.17980        8.03490       -2.04500
C          7.93520        5.83000       -4.28460
C          6.70120        5.78860       -4.90190
C          5.74210        6.75360       -4.26050
C          4.47500        6.06050       -3.79660
C          5.45040        7.84750       -5.27530
C          5.99190        9.12000       -5.17240
C          5.72550       10.07440       -6.13840
C          4.92080        9.78300       -7.23040
C          4.39440        8.50140       -7.33710
C          4.65510        7.54570       -6.37540
C          3.25940        6.72900       -3.75840
C          2.10130        6.05850       -3.40810
C          2.12810        4.71070       -3.07830
C          3.35560        4.06140       -3.06140
C          4.51440        4.72700       -3.40860
C          4.66860       10.80960       -8.29660
C          5.73800       10.72020       -9.38720
C          0.86350        3.94800       -2.80760
S          9.07380        4.69420       -4.94180
C          7.83830        4.08890       -6.01260
C          6.63580        4.79500       -5.87550
C          7.74210        2.97140       -6.85030
C          6.45990        2.79700       -7.32190
S          5.37520        4.07670       -6.80350
C          0.40790        3.22150       -4.07610
H          7.53770        0.60330       -8.89020
H          5.90010       -1.29290       -9.49330
H         -1.55290       -6.76310       -7.20080
H          0.39320       -5.69850       -8.52240
H        -10.23070       -6.45500        5.52260
H        -11.22570       -7.16410        7.55170
H        -11.85320      -13.11590        9.54010
H        -13.30640       -9.21570       12.28400
H         -6.93030       -6.80750        4.38890
H         -5.43830       -5.37580        5.69530
H         -6.78770       -1.96760        3.51760
H         -8.30040       -3.39230        2.22150
H        -10.11400       -4.56620        4.06360
H        -12.33990       -3.61100        3.70760
H        -12.38770       -5.19590       -0.25100
H        -10.17180       -6.17190        0.10850
H         -4.90040       -3.11140        6.47290
H         -5.47650       -1.69500        5.58260
H         -3.84420       -2.18080        3.75840
H         -3.27060       -3.59300        4.64450
H         -3.02190       -1.97450        5.30890
H        -14.43330       -4.28440        0.74450
H        -14.42450       -3.65110        2.39710
H        -13.13650       -2.29310       -0.02070
H        -14.65430       -1.80900        0.74390
H        -13.13070       -1.66240        1.62640
H         -7.37910       -4.54180        0.25140
H         -7.07350       -9.52650       -0.19600
H         -5.73450      -10.69100       -2.12700
H         -3.88280      -12.13210       -1.41990
H         -1.41910       -8.69740       -0.86060
H         -3.27090       -7.25230       -1.54310
H         -8.53670       -8.22600       -2.49190
H         -9.82470       -9.19720       -4.33280
H         -6.20730      -10.07930       -6.41150
H         -4.91220       -9.12040       -4.56310
H         -1.45890      -12.37600       -1.11790
H         -0.43240      -10.95110       -0.90180
H         -1.37340      -10.62580        1.38760
H         -0.63520      -12.22300        1.22320
H         -2.39290      -12.04800        1.17240
H         -9.87970       -9.87040       -6.68900
H         -8.37920      -10.21860       -7.56000
H         -3.47770       -3.04910       -4.76570
H         -9.62060      -11.99280       -5.40130
H         -9.66380      -12.30510       -7.13990
H         -8.12590      -12.33970       -6.27060
H          9.93820        9.52020        3.32730
H          7.94310       11.61960        6.00010
H         13.54810        8.77110        6.41960
H         11.56770       11.48550       10.10060
H         11.50910        6.81300       -0.38990
H         12.30740        4.76540        0.69260
H          8.90090        4.78910        3.25670
H          8.08510        6.81820        2.16210
H          9.60340        9.73660       -2.14410
H         11.37480       11.36580       -2.58690
H         13.11850       10.51130        1.21020
H         11.36610        8.86460        1.64800
H         10.36150        2.84240        3.18260
H         11.72220        2.77630        2.05330
H         11.63030        4.45560        4.60670
H         12.52350        2.94410        4.40310
H         12.98730        4.38020        3.48370
H         13.81620       12.49770       -0.08280
H         13.12750       12.81090       -1.68260
H         15.47470       12.01030       -1.86680
H         15.04690       10.53010       -1.00180
H         14.36380       10.84610       -2.59680
H          9.82570        6.56320       -2.21630
H          5.17680        8.42920       -1.98240
H          6.62320        9.37530       -4.33430
H          6.15000       11.06320       -6.03740
H          3.77000        8.24930       -8.18220
H          4.23090        6.55680       -6.47210
H          3.21140        7.77460       -4.02620
H          1.16070        6.59090       -3.40350
H          3.40380        3.01830       -2.78330
H          5.45670        4.19890       -3.38840
H          3.68550       10.64620       -8.74270
H          4.68380       11.80980       -7.85890
H          6.72500       10.89200       -8.96360
H          5.55700       11.46350      -10.16010
H          5.72970        9.73340       -9.84450
H          1.03450        3.21520       -2.01610
H          0.07750        4.63000       -2.47840
H          8.54580        2.28700       -7.04850
H         -0.49530        2.64670       -3.88360
H          1.18580        2.54550       -4.42480
H          0.20310        3.93870       -4.86760
