79
Flu-RH.sdf
C          6.36710        1.33910        3.25500
C          7.05530        1.28370        2.05410
C          6.24380        0.99670        0.96170
C          4.91230        0.83280        1.28980
S          4.67190        1.04130        2.99670
C          3.79720        0.51870        0.42960
C          3.99990        0.05500       -0.87650
C          2.93350       -0.29120       -1.68040
C          1.64350       -0.15040       -1.18830
C          1.42160        0.35340        0.10550
C          2.48840        0.65650        0.91500
C         -0.06060        0.40740        0.41580
C         -0.57530        1.85190        0.59020
C         -0.03150        2.61710        1.78960
C         -0.31980       -0.50260        1.63520
C         -1.76980       -0.63640        2.08200
C         -0.65050       -0.14670       -0.86640
C          0.36520       -0.46800       -1.78420
C          0.05350       -1.00100       -3.02720
C         -1.27130       -1.20330       -3.35130
C         -2.29710       -0.85230       -2.46540
C         -1.97030       -0.30660       -1.21460
C         -3.67760       -1.06130       -2.83160
C         -4.81210       -0.53320       -2.24700
C         -5.99450       -0.95640       -2.84420
C         -5.79770       -1.83130       -3.89970
S         -4.09710       -2.10740       -4.15190
C         -6.80620       -2.44330       -4.67140
C         -6.65830       -3.32870       -5.68850
S         -5.16410       -3.95420       -6.34100
C         -6.03570       -4.95360       -7.50340
N         -7.37390       -4.78380       -7.36830
C         -7.80610       -3.90400       -6.38900
S         -5.30360       -5.92710       -8.58750
C         -8.33140       -5.51280       -8.17750
C         -8.58530       -6.90410       -7.61050
O         -8.97240       -3.66280       -6.17040
C          6.92200        1.58420        4.52730
C          6.28210        1.60650        5.72360
C          6.98800        1.85440        6.97970
N          6.10050        1.80240        8.04330
C          4.80160        1.54470        7.75600
S          4.58070        1.34320        6.01780
S          3.58680        1.44070        8.83900
C          6.57080        1.97890        9.40370
C          6.84420        0.63640       10.07020
O          8.17110        2.07960        7.10430
H          8.11660        1.44610        1.99020
H          6.61660        0.92620       -0.04400
H          5.00500       -0.06300       -1.24970
H          3.10310       -0.67570       -2.67470
H          2.34580        0.99560        1.92990
H         -1.66400        1.81570        0.65500
H         -0.32460        2.40110       -0.32170
H         -0.52570        3.58460        1.85090
H          1.03560        2.79350        1.69010
H         -0.21660        2.08590        2.71910
H          0.27380       -0.12340        2.46840
H          0.06560       -1.49600        1.38980
H         -2.36460       -1.15220        1.33360
H         -1.80790       -1.22080        2.99890
H         -2.21530        0.33370        2.28470
H          0.83280       -1.25370       -3.72990
H         -1.53280       -1.62370       -4.31160
H         -2.75980       -0.03050       -0.53540
H         -4.78630        0.15580       -1.42230
H         -6.97430       -0.64630       -2.52680
H         -7.82960       -2.18810       -4.42080
H         -9.25160       -4.92330       -8.17080
H         -7.93500       -5.58100       -9.19350
H         -9.31540       -7.41970       -8.22720
H         -7.66460       -7.48250       -7.60320
H         -8.97060       -6.83350       -6.59580
H          7.98970        1.76770        4.56480
H          5.80820        2.53220        9.95700
H          7.48960        2.56660        9.33830
H          5.93240        0.04540       10.11820
H          7.20700        0.79970       11.08080
H          7.59770        0.08520        9.51210
