170
FNIC1.sdf
C         -8.06980        6.24400        0.45000
C         -8.08160        7.49340        1.03010
C         -9.25360        8.31470        1.24370
C         -8.80740        9.55590        1.88190
C         -7.41500        9.49740        2.05790
C         -6.91060        8.21010        1.53360
O         -5.74860        7.84480        1.53120
C        -10.55600        8.01860        0.93090
C        -11.64500        8.87990        1.18190
N        -12.57580        9.52800        1.35830
C        -11.01100        6.82940        0.32440
N        -11.46750        5.89400       -0.16220
C         -9.50690       10.67690        2.29900
C         -8.79110       11.71170        2.88390
C         -7.40890       11.64270        3.05500
C         -6.70170       10.52560        2.63980
C          7.31810       -7.63640        0.89820
C          8.57990       -7.88780        1.38730
C          9.14780       -9.22160        1.47140
C         10.46140       -9.10810        2.10750
C         10.71250       -7.75470        2.37670
C          9.56270       -6.93390        1.93360
C         11.40600      -10.06380        2.44940
C         12.57920       -9.63420        3.05160
C         12.81990       -8.28520        3.31160
C         11.88080       -7.32490        2.97370
O          9.49810       -5.72470        2.02690
C          8.60090      -10.40100        1.03430
C          7.35830      -10.57050        0.38650
C          9.22890      -11.65870        1.16370
N          9.67380      -12.71430        1.23660
N          6.37340      -10.81860       -0.15090
C         -7.01670        5.35930        0.21500
S         -5.31900        5.60810        0.61780
C         -4.95200        4.05720        0.00540
C         -6.07450        3.36590       -0.49170
C         -7.22690        4.10200       -0.38150
C         -3.81830        3.22930       -0.14010
C         -4.20020        2.02840       -0.73700
C         -5.67830        2.01190       -1.03730
S         -2.13680        3.30710        0.25430
C         -1.93010        1.69910       -0.36520
C         -3.12550        1.15200       -0.84210
C         -0.83550        0.80110       -0.41080
C         -1.25730       -0.46380       -0.89650
S         -2.94440       -0.48830       -1.37230
C          0.50130        0.99620       -0.02520
C          1.33360       -0.11310       -0.07320
C          0.90080       -1.38870       -0.51460
C         -0.41500       -1.56380       -0.97840
S          3.01720       -0.08820        0.41780
C          3.13510       -1.79310        0.11850
C          1.94410       -2.33610       -0.37290
C          4.13150       -2.74810        0.29750
C          3.67130       -4.02320       -0.03010
S          2.03540       -4.05520       -0.59460
C          5.55570       -2.79010        0.79150
C          5.81860       -4.27770        0.73300
C          4.69680       -4.95720        0.22530
C          6.87740       -5.11230        1.01640
C          6.58790       -6.45190        0.74920
S          4.94590       -6.63800        0.10490
F         -9.44920       12.80280        3.29300
F         -6.75880       12.66510        3.62540
F         13.96800       -7.91590        3.89420
F         13.50190      -10.54220        3.39120
C         -6.28970        0.82380       -0.31790
C         -6.00330        1.98430       -2.52070
C         -5.04320        2.24460       -3.48660
C         -5.38380        2.24320       -4.82730
C         -6.68660        1.99100       -5.23390
C         -7.64600        1.74300       -4.25990
C         -7.31110        1.73910       -2.92000
C         -6.88840        0.94680        0.92670
C         -7.38230       -0.17090        1.57540
C         -7.27430       -1.43340        1.00870
C         -6.66580       -1.54960       -0.23480
C         -6.18030       -0.43670       -0.89230
C         -7.05970        2.03890       -6.68720
C         -7.42950        3.46640       -7.09530
C         -7.84640       -2.63800        1.69800
C         -9.30220       -2.85090        1.27790
C          6.54850       -2.10260       -0.13180
C          5.60370       -2.18410        2.18240
C          6.20380       -1.68860       -1.40900
C          7.14720       -1.09380       -2.22790
C          8.45220       -0.90560       -1.79540
C          8.79280       -1.33410       -0.51800
C          7.85540       -1.92540        0.30550
C          5.56550       -2.96620        3.32670
C          5.57140       -2.37270        4.57620
C          5.59980       -0.99150        4.71260
C          5.62730       -0.21460        3.56120
C          5.62970       -0.80090        2.31080
C          9.48470       -0.30240       -2.70310
C         10.19720       -1.39580       -3.50180
C          5.65430       -0.35360        6.07060
C          7.10690       -0.18410        6.52070
C         -0.86230       -2.83370       -1.52190
C         -0.26930       -3.58170       -2.49780
C         -0.98020       -4.75950       -2.80180
C         -2.11120       -4.91470       -2.06140
S         -2.32720       -3.58960       -0.96600
C         -3.07500       -6.05020       -2.06730
C         -2.86720       -6.95600       -0.85150
C          1.02100        2.28570        0.39790
C          1.72620        2.57760        1.52870
C          2.13110        3.92630        1.59400
C          1.75530        4.65900        0.51140
S          0.88140        3.68570       -0.62500
C          2.03590        6.09070        0.21300
C          3.08310        6.23230       -0.89360
H         -9.02610        5.85830        0.11820
H        -10.57380       10.78170        2.19100
H         -5.63280       10.46710        2.76930
H          6.76500       -8.50980        0.57430
H         11.27210      -11.11790        2.27240
H         12.05920       -6.28010        3.17240
H         -8.20420        3.78070       -0.69510
H          7.82850       -4.80350        1.40850
H         -4.02240        2.44730       -3.19740
H         -4.62230        2.44000       -5.56840
H         -8.66710        1.54780       -4.55440
H         -8.06640        1.53340       -2.17550
H         -6.97340        1.91730        1.39350
H         -7.85290       -0.05840        2.54180
H         -6.56610       -2.52300       -0.69270
H         -5.71630       -0.54400       -1.86210
H         -7.90970        1.37980       -6.87370
H         -6.22070        1.69660       -7.29650
H         -7.70080        3.50310       -8.14760
H         -6.58940        4.13720       -6.92910
H         -8.27200        3.82180       -6.50630
H         -7.26330       -3.52370        1.43800
H         -7.80030       -2.50320        2.78040
H         -9.90280       -1.98320        1.54130
H         -9.71780       -3.72460        1.77440
H         -9.36780       -2.99800        0.20220
H          5.19560       -1.82490       -1.77220
H          6.86110       -0.77020       -3.21850
H          9.80450       -1.20140       -0.16300
H          8.13510       -2.24600        1.29790
H          5.53740       -4.04300        3.24720
H          5.54960       -2.99530        5.45920
H          5.64650        0.86260        3.64310
H          5.65910       -0.18190        1.42570
H          9.00860        0.39600       -3.39410
H         10.22000        0.24780       -2.11260
H         10.94700       -0.96010       -4.15790
H         10.68760       -2.09650       -2.82990
H          9.48280       -1.94790       -4.10860
H          5.12360       -0.97510        6.79450
H          5.17090        0.62490        6.03980
H          7.60220       -1.15100        6.57160
H          7.14920        0.28040        7.50300
H          7.65040        0.44140        5.81610
H          0.62780       -3.27820       -3.00740
H         -0.66270       -5.46530       -3.54840
H         -2.93320       -6.62700       -2.98350
H         -4.09750       -5.66550       -2.05790
H         -3.01910       -6.39370        0.06710
H         -1.85650       -7.35730       -0.84780
H         -3.57100       -7.78410       -0.87390
H          1.92140        1.85690        2.30280
H          2.68060        4.33840        2.42150
H          2.39410        6.57470        1.12380
H          1.11440        6.58780       -0.09970
H          4.01310        5.75180       -0.59800
H          2.72830        5.76440       -1.80920
H          3.28110        7.28220       -1.09290
