113
FOC6-IC.sdf
C          8.25050        2.13410        6.91870
O          7.09010        1.84070        6.68810
C          8.78360        2.65290        8.19150
C          8.11240        2.91060        9.36990
C          8.84160        3.40070       10.44460
C         10.20550        3.62210       10.32500
C         10.88330        3.36370        9.13980
C         10.16590        2.87290        8.06060
C         10.57560        2.50460        6.70400
C         11.85390        2.59630        6.21450
C         12.26710        2.25330        4.91090
N         12.69230        1.99980        3.87360
C         12.95780        3.05940        6.96090
N         13.89980        3.42590        7.50580
C          9.39360        2.04470        6.00490
C          9.34820        1.59520        4.70720
C        -11.02810       -0.72650       -3.83530
O        -10.09440       -0.64110       -4.60910
C        -12.43330       -0.40640       -4.15830
C        -12.95020        0.08960       -5.33880
C        -14.31490        0.33130       -5.40590
C        -15.12730        0.08030       -4.30970
C        -14.61080       -0.42330       -3.12260
C        -13.24960       -0.67250       -3.04720
C        -12.41110       -1.19730       -1.97090
C        -12.88290       -1.71990       -0.79440
C        -14.24790       -1.76090       -0.44000
N        -15.33760       -1.82400       -0.08360
C        -12.10680       -2.33540        0.21060
N        -11.56010       -2.87250        1.06650
C        -11.02980       -1.14070       -2.41590
C         -9.96130       -1.32670       -1.57320
C         -8.57940       -1.32840       -1.80980
S         -7.54480       -1.42290       -0.37480
C         -6.15480       -1.37720       -1.36090
C         -6.46430       -1.31230       -2.72960
C         -7.81970       -1.28520       -2.97900
C         -4.75150       -1.36580       -1.21260
C         -4.15760       -1.30150       -2.47270
C         -5.20400       -1.27230       -3.55850
S         -3.59540       -1.36270        0.05330
C         -2.28910       -1.26820       -1.11720
C         -2.76980       -1.25320       -2.41440
C         -0.93360       -1.16590       -0.64310
C         -0.69740       -0.86190        0.69930
C          0.57420       -0.69200        1.18690
C          1.70870       -0.80450        0.37440
C          1.46840       -1.15160       -0.96270
C          0.19910       -1.33910       -1.48030
C          3.04340       -0.55630        0.85430
S          3.33010       -0.02860        2.49590
C          5.00730        0.07980        2.17950
C          5.34260       -0.28460        0.87280
C          4.22430       -0.64360        0.13050
C          6.16880        0.46980        2.88020
C          7.26230        0.35880        2.00610
C          6.82960       -0.13070        0.63810
S          6.58750        1.03870        4.43620
C          8.27120        1.14820        3.93480
C          8.44040        0.73900        2.60070
C          7.56050       -1.45340        0.31190
C          6.77700       -2.45490       -0.52830
C          7.13650        0.99930       -0.36890
C          6.74980        0.72730       -1.81550
C         -5.09930       -2.49730       -4.48630
C         -5.16980       -3.82290       -3.73830
C         -5.11940        0.01740       -4.39580
C         -5.19960        1.28440       -3.55320
O         -0.04180       -1.67220       -2.77460
F          0.70720       -0.39040        2.49630
C          1.01510       -2.06970       -3.62940
C          1.55340       -3.45760       -3.29820
H          7.05050        2.73070        9.43830
H          8.34540        3.61120       11.38000
H         10.75810        4.00380       11.17040
H         11.94350        3.54620        9.07900
H         10.28760        1.57880        4.16770
H        -12.29750        0.28060       -6.17690
H        -14.74870        0.71940       -6.31530
H        -16.18630        0.27970       -4.37640
H        -15.26640       -0.60350       -2.28670
H        -10.20990       -1.46960       -0.52760
H         -8.27580       -1.22610       -3.94970
H         -2.12620       -1.18630       -3.26930
H         -1.52620       -0.73740        1.37890
H          2.32010       -1.25820       -1.61100
H          4.25650       -0.96320       -0.89370
H          9.40760        0.73990        2.12980
H          8.49800       -1.20710       -0.18990
H          7.81490       -1.93880        1.25720
H          7.40400       -3.32110       -0.72930
H          5.89240       -2.79420        0.00480
H          6.46980       -2.03170       -1.47950
H          6.61570        1.89730       -0.02580
H          8.20850        1.20250       -0.32010
H          6.97130        1.60660       -2.41670
H          5.68710        0.52030       -1.90250
H          7.31270       -0.10760       -2.22320
H         -4.15420       -2.43720       -5.02990
H         -5.91250       -2.44630       -5.21260
H         -4.35640       -3.90600       -3.02100
H         -5.09410       -4.64960       -4.44050
H         -6.11200       -3.91490       -3.20320
H         -5.93790        0.01090       -5.11760
H         -4.17790        0.00810       -4.94870
H         -6.14270        1.32900       -3.01360
H         -4.38650        1.32250       -2.83160
H         -5.13100        2.16040       -4.19350
H          0.55820       -2.07910       -4.62300
H          1.81760       -1.32230       -3.63280
H          2.31210       -3.73700       -4.02390
H          0.74500       -4.18320       -3.33590
H          1.98950       -3.48320       -2.30270
