138
FOIC.mol
O          8.43190       -2.52190        1.53250
C          9.29280       -3.30060        1.16250
C          9.40390       -3.96310       -0.14170
C         10.59850       -4.78230       -0.13970
C         11.22020       -4.64450        1.17960
C         10.44760       -3.76210        1.95500
C         10.78800       -3.43830        3.25450
C         12.35890       -5.21800        1.71990
C         12.68050       -4.87960        3.02790
F         13.77920       -5.42630        3.57220
C         11.92680       -4.00890        3.80060
C         11.08410       -5.55950       -1.15930
C         12.25920       -6.33640       -1.07290
N         13.20180       -6.99140       -1.07310
C         10.50260       -5.70840       -2.43600
N         10.09870       -5.88830       -3.49650
C          8.51540       -3.84250       -1.18240
C          7.31100       -3.13430       -1.27370
C          6.51130       -3.19810       -2.42050
C          5.34000       -2.48500       -2.28490
C          5.21610       -1.84140       -1.03170
S          6.58030       -2.13360       -0.02110
C          3.99720       -1.18830       -0.90020
C          3.20810       -1.32930       -2.04340
S          3.94500       -2.25050       -3.30850
C          1.96000       -0.70800       -1.81800
S          0.44860       -0.56920       -2.65270
C         -0.22790        0.20600       -1.25320
C          0.71040        0.35900       -0.20740
S          0.01490        1.06980        1.21700
C         -1.51870        1.12600        0.41440
C         -1.49330        0.65630       -0.89930
C         -2.86930        0.69380       -1.51550
C         -3.67840        1.16320       -0.33060
C         -2.85130        1.44460        0.75910
S         -3.68850        2.00390        2.16380
C         -5.19570        1.84270        1.30210
C         -5.01230        1.39750       -0.02770
S         -6.52010        1.22000       -0.82910
C         -7.39240        1.70990        0.63550
C         -8.79320        1.70150        0.53950
C         -9.77490        1.88610        1.48050
C        -11.19390        1.81020        1.17760
C        -11.92140        1.81650        2.44710
C        -10.99780        1.98050        3.49190
C         -9.63060        2.07160        2.94110
O         -8.62400        2.25630        3.59460
C        -11.38980        2.03000        4.81640
C        -12.73790        1.90650        5.11110
C        -13.64110        1.73880        4.07170
F        -14.94340        1.61310        4.37390
C        -13.27070        1.69130        2.73450
C        -11.78470        1.78860       -0.05890
C        -13.17970        1.72510       -0.26640
N        -14.29990        1.67080       -0.51050
C        -11.12330        1.85830       -1.30400
N        -10.67880        1.92590       -2.36110
C         -6.51820        2.01900        1.66940
C         -3.02530        1.74020       -2.60770
C         -2.06410        2.71190       -2.83930
C         -2.27020        3.67890       -3.80710
C         -3.44020        3.70640       -4.55290
C         -3.64600        4.73620       -5.62540
C         -3.15190        4.20920       -6.97420
C         -4.39990        2.73010       -4.31310
C         -4.19790        1.75880       -3.35280
C         -3.21980       -0.69130       -2.02240
C         -3.92510       -1.59620       -1.24370
C         -4.18930       -2.86770       -1.71980
C         -3.74420       -3.26920       -2.97180
C         -3.02830       -2.36060       -3.74140
C         -2.76690       -1.08740       -3.27460
C         -4.06960       -4.63500       -3.50280
C         -5.39140       -4.60660       -4.27290
C          1.95950       -0.15150       -0.53790
C          3.29260       -0.34970        0.13820
C          3.08060       -1.01790        1.48160
C          2.70620       -0.23600        2.56740
C          2.46360       -0.81680        3.79620
C          2.59030       -2.18910        3.97280
C          2.37940       -2.80790        5.32410
C          3.68000       -2.78210        6.12950
C          2.96240       -2.96380        2.88290
C          3.19740       -2.38920        1.64660
C          4.09820        0.93210        0.29290
C          3.72470        2.11820       -0.31950
C          4.50930        3.24970       -0.18320
C          5.68230        3.22130        0.55780
C          6.55630        4.43760        0.66090
C          7.57710        4.45840       -0.47880
C          6.05400        2.02560        1.16070
C          5.27370        0.89360        1.03270
H         10.17300       -2.75730        3.82170
H         12.99120       -5.90230        1.17940
H         12.23840       -3.79290        4.81010
H          8.74810       -4.39410       -2.08510
H          6.79280       -3.76160       -3.29180
H         -9.13970        1.46760       -0.46050
H        -10.65310        2.15990        5.59370
H        -13.09950        1.93540        6.12670
H        -14.02760        1.55600        1.98020
H         -6.85280        2.34050        2.63820
H         -1.14940        2.71980       -2.26470
H         -1.51030        4.42800       -3.97820
H         -4.70680        4.98190       -5.70250
H         -3.10070        5.64790       -5.37350
H         -3.29890        4.95610       -7.75070
H         -3.69560        3.30870       -7.25060
H         -2.09280        3.96670       -6.92110
H         -5.31930        2.73380       -4.88010
H         -4.95300        1.00570       -3.17970
H         -4.27130       -1.31210       -0.26060
H         -4.74570       -3.55970       -1.10390
H         -2.66830       -2.65370       -4.71690
H         -2.21250       -0.39160       -3.88760
H         -4.14920       -5.34470       -2.67700
H         -3.27270       -4.97220       -4.16850
H         -6.20160       -4.28450       -3.62260
H         -5.62760       -5.59530       -4.65900
H         -5.32770       -3.91300       -5.10820
H          2.61310        0.83400        2.44910
H          2.17070       -0.19530        4.63000
H          1.60930       -2.25620        5.86700
H          2.04540       -3.84120        5.21170
H          4.02140       -1.75810        6.26300
H          4.45790       -3.33610        5.60900
H          3.52970       -3.22940        7.10930
H          3.06600       -4.03310        2.99890
H          3.47480       -3.01470        0.81100
H          2.81810        2.16660       -0.90500
H          4.20210        4.16890       -0.66140
H          7.08470        4.43340        1.61620
H          5.94390        5.34020        0.61200
H          7.07000        4.47440       -1.44110
H          8.20620        3.57210       -0.43890
H          8.21130        5.33870       -0.40560
H          6.96530        1.97860        1.73870
H          5.57550       -0.02600        1.51190
