122
H-2F.mol
O         -0.00770       -5.41420       -2.91910
C         -0.57650       -6.40850       -3.33160
C         -0.08080       -7.31740       -4.38860
C         -1.00490       -8.35840       -4.57670
C         -2.12530       -8.16500       -3.65290
C         -1.86290       -6.95650       -2.90220
C         -2.70250       -6.41110       -1.95610
C         -2.57920       -5.26050       -1.17730
S         -1.20180       -4.18010       -1.14650
C         -3.58190       -4.81440       -0.29210
C         -4.91240       -5.47160       -0.11120
C         -5.88200       -5.06670       -1.22540
C         -3.23620       -3.64720        0.36490
C         -1.96920       -3.17870        0.03770
C         -1.31310       -2.01690        0.51570
S         -0.05160       -1.31410       -0.48910
C         -1.52280       -1.29510        1.69240
N         -2.33970       -1.66830        2.74110
C         -2.94600       -0.65670        3.50780
C         -3.52740        0.43830        2.87260
C         -4.10920        1.44400        3.62070
C         -4.12600        1.36550        5.00300
C         -3.55620        0.27280        5.63640
C         -2.96520       -0.73390        4.89810
C         -2.45440       -3.00950        3.13790
C         -3.65500       -3.47010        3.67660
C         -3.78970       -4.79590        4.03980
C         -2.73730       -5.67960        3.86760
C         -1.53900       -5.22210        3.34560
C         -1.39160       -3.89630        2.98700
C         -0.72060       -0.13010        1.70970
S         -0.50730        1.16120        2.83810
C          0.12190        0.00300        0.61600
C          0.96950        1.13690        0.65890
N          1.94040        1.37410       -0.28700
C          1.67730        0.97460       -1.61180
C          2.62430        0.26060       -2.34070
C          2.34060       -0.13890       -3.63220
C          1.11620        0.16290       -4.20600
C          0.17430        0.87550       -3.48320
C          0.45030        1.28430       -2.19250
C          3.22180        1.82560        0.05690
C          3.78010        1.51820        1.29580
C          5.03730        1.98770        1.62350
C          5.75620        2.75450        0.72180
C          5.21060        3.04590       -0.51800
C          3.95220        2.58940       -0.85270
C          0.69750        1.91570        1.78810
C          1.15120        3.20650        2.13400
S          1.99030        4.24700        1.03550
C          0.90020        3.84350        3.34920
C          1.39190        5.13030        3.41940
C          1.20800        6.00410        4.61870
C          0.01120        6.94090        4.43190
C          2.03140        5.53220        2.22530
C          2.62740        6.77790        2.05250
C          3.29420        7.31960        0.97200
C          3.88980        8.63570        0.93740
C          3.88090        9.59100        1.92400
C          4.48780       10.85830        1.80290
N          4.95870       11.90520        1.77500
C          3.27030        9.46830        3.18860
N          2.80210        9.45480        4.23840
C          4.52120        8.79730       -0.37520
C          4.30440        7.62920       -1.12410
C          4.78040        7.47990       -2.41060
C          5.49560        8.53380       -2.95700
F          5.97830        8.43200       -4.20280
C          5.71770        9.69720       -2.22190
F          6.41270       10.69940       -2.77350
C          5.23680        9.84670       -0.92870
C          3.52390        6.66820       -0.31450
O          3.15670        5.56490       -0.68010
C         -3.20600       -9.00400       -3.54390
C         -3.37860      -10.17520       -4.31130
N         -3.58070      -11.13930       -4.90110
C         -4.29400       -8.83990       -2.66190
N         -5.21560       -8.78220       -1.97760
C         -0.75710       -9.33550       -5.52760
C          0.41340       -9.24340       -6.26700
F          0.66890      -10.17590       -7.19210
C          1.32490       -8.20660       -6.07110
F          2.44210       -8.15680       -6.80800
C          1.08480       -7.22590       -5.12180
H         -3.62330       -6.95060       -1.78230
H         -5.32210       -5.16170        0.85170
H         -4.81270       -6.55790       -0.09850
H         -6.84620       -5.54160       -1.06750
H         -6.01950       -3.98780       -1.23490
H         -5.50290       -5.37400       -2.19690
H         -3.90020       -3.13610        1.03700
H         -3.52260        0.49130        1.79340
H         -4.55620        2.28960        3.12020
H         -4.58200        2.15170        5.58480
H         -3.56340        0.20770        6.71400
H         -2.50990       -1.58030        5.39060
H         -4.48080       -2.78430        3.79990
H         -4.72630       -5.14220        4.45060
H         -2.84940       -6.71690        4.14210
H         -0.70870       -5.90060        3.22070
H         -0.45070       -3.54430        2.59150
H          3.57290        0.01650       -1.88610
H          3.07640       -0.69790       -4.19010
H          0.89770       -0.15600       -5.21350
H         -0.77880        1.11960       -3.92780
H         -0.27610        1.85020       -1.62730
H          3.22830        0.91170        1.99920
H          5.45890        1.74810        2.58850
H          6.73640        3.12220        0.98460
H          5.76370        3.64520       -1.22500
H          3.51510        2.84200       -1.80550
H          0.37900        3.35620        4.15580
H          1.03110        5.36930        5.48850
H          2.10250        6.59810        4.81170
H         -0.11310        7.56190        5.31450
H         -0.89870        6.36600        4.27520
H          0.16120        7.59140        3.57390
H          2.55380        7.41690        2.92170
H          4.60400        6.57870       -2.97570
H          5.43610       10.76700       -0.40500
H         -1.42750      -10.15690       -5.71920
H          1.78600       -6.42160       -4.96670
