H-2F.mol
  xtb     01102218103D
 energy: -222.431627703071 gnorm: 0.000946638853 xtb: 6.4.1 (unknown)
122133  0     0  0            999 V2000
   -0.0077   -5.4142   -2.9191 O   0  0  0  0  0  0  0  0  0  0  0  0
   -0.5765   -6.4085   -3.3316 C   0  0  0  0  0  0  0  0  0  0  0  0
   -0.0808   -7.3174   -4.3886 C   0  0  0  0  0  0  0  0  0  0  0  0
   -1.0049   -8.3584   -4.5767 C   0  0  0  0  0  0  0  0  0  0  0  0
   -2.1253   -8.1650   -3.6529 C   0  0  0  0  0  0  0  0  0  0  0  0
   -1.8629   -6.9565   -2.9022 C   0  0  0  0  0  0  0  0  0  0  0  0
   -2.7025   -6.4111   -1.9561 C   0  0  0  0  0  0  0  0  0  0  0  0
   -2.5792   -5.2605   -1.1773 C   0  0  0  0  0  0  0  0  0  0  0  0
   -1.2018   -4.1801   -1.1465 S   0  0  0  0  0  0  0  0  0  0  0  0
   -3.5819   -4.8144   -0.2921 C   0  0  0  0  0  0  0  0  0  0  0  0
   -4.9124   -5.4716   -0.1112 C   0  0  0  0  0  0  0  0  0  0  0  0
   -5.8820   -5.0667   -1.2254 C   0  0  0  0  0  0  0  0  0  0  0  0
   -3.2362   -3.6472    0.3649 C   0  0  0  0  0  0  0  0  0  0  0  0
   -1.9692   -3.1787    0.0377 C   0  0  0  0  0  0  0  0  0  0  0  0
   -1.3131   -2.0169    0.5157 C   0  0  0  0  0  0  0  0  0  0  0  0
   -0.0516   -1.3141   -0.4891 S   0  0  0  0  0  0  0  0  0  0  0  0
   -1.5228   -1.2951    1.6924 C   0  0  0  0  0  0  0  0  0  0  0  0
   -2.3397   -1.6683    2.7411 N   0  0  0  0  0  0  0  0  0  0  0  0
   -2.9460   -0.6567    3.5078 C   0  0  0  0  0  0  0  0  0  0  0  0
   -3.5274    0.4383    2.8726 C   0  0  0  0  0  0  0  0  0  0  0  0
   -4.1092    1.4440    3.6207 C   0  0  0  0  0  0  0  0  0  0  0  0
   -4.1260    1.3655    5.0030 C   0  0  0  0  0  0  0  0  0  0  0  0
   -3.5562    0.2728    5.6364 C   0  0  0  0  0  0  0  0  0  0  0  0
   -2.9652   -0.7339    4.8981 C   0  0  0  0  0  0  0  0  0  0  0  0
   -2.4544   -3.0095    3.1379 C   0  0  0  0  0  0  0  0  0  0  0  0
   -3.6550   -3.4701    3.6766 C   0  0  0  0  0  0  0  0  0  0  0  0
   -3.7897   -4.7959    4.0398 C   0  0  0  0  0  0  0  0  0  0  0  0
   -2.7373   -5.6796    3.8676 C   0  0  0  0  0  0  0  0  0  0  0  0
   -1.5390   -5.2221    3.3456 C   0  0  0  0  0  0  0  0  0  0  0  0
   -1.3916   -3.8963    2.9870 C   0  0  0  0  0  0  0  0  0  0  0  0
   -0.7206   -0.1301    1.7097 C   0  0  0  0  0  0  0  0  0  0  0  0
   -0.5073    1.1612    2.8381 S   0  0  0  0  0  0  0  0  0  0  0  0
    0.1219    0.0030    0.6160 C   0  0  0  0  0  0  0  0  0  0  0  0
    0.9695    1.1369    0.6589 C   0  0  0  0  0  0  0  0  0  0  0  0
    1.9404    1.3741   -0.2870 N   0  0  0  0  0  0  0  0  0  0  0  0
    1.6773    0.9746   -1.6118 C   0  0  0  0  0  0  0  0  0  0  0  0
    2.6243    0.2606   -2.3407 C   0  0  0  0  0  0  0  0  0  0  0  0
    2.3406   -0.1389   -3.6322 C   0  0  0  0  0  0  0  0  0  0  0  0
    1.1162    0.1629   -4.2060 C   0  0  0  0  0  0  0  0  0  0  0  0
    0.1743    0.8755   -3.4832 C   0  0  0  0  0  0  0  0  0  0  0  0
    0.4503    1.2843   -2.1925 C   0  0  0  0  0  0  0  0  0  0  0  0
    3.2218    1.8256    0.0569 C   0  0  0  0  0  0  0  0  0  0  0  0
    3.7801    1.5182    1.2958 C   0  0  0  0  0  0  0  0  0  0  0  0
    5.0373    1.9877    1.6235 C   0  0  0  0  0  0  0  0  0  0  0  0
    5.7562    2.7545    0.7218 C   0  0  0  0  0  0  0  0  0  0  0  0
    5.2106    3.0459   -0.5180 C   0  0  0  0  0  0  0  0  0  0  0  0
    3.9522    2.5894   -0.8527 C   0  0  0  0  0  0  0  0  0  0  0  0
    0.6975    1.9157    1.7881 C   0  0  0  0  0  0  0  0  0  0  0  0
    1.1512    3.2065    2.1340 C   0  0  0  0  0  0  0  0  0  0  0  0
    1.9903    4.2470    1.0355 S   0  0  0  0  0  0  0  0  0  0  0  0
    0.9002    3.8435    3.3492 C   0  0  0  0  0  0  0  0  0  0  0  0
    1.3919    5.1303    3.4194 C   0  0  0  0  0  0  0  0  0  0  0  0
    1.2080    6.0041    4.6187 C   0  0  0  0  0  0  0  0  0  0  0  0
    0.0112    6.9409    4.4319 C   0  0  0  0  0  0  0  0  0  0  0  0
    2.0314    5.5322    2.2253 C   0  0  0  0  0  0  0  0  0  0  0  0
    2.6274    6.7779    2.0525 C   0  0  0  0  0  0  0  0  0  0  0  0
    3.2942    7.3196    0.9720 C   0  0  0  0  0  0  0  0  0  0  0  0
    3.8898    8.6357    0.9374 C   0  0  0  0  0  0  0  0  0  0  0  0
    3.8809    9.5910    1.9240 C   0  0  0  0  0  0  0  0  0  0  0  0
    4.4878   10.8583    1.8029 C   0  0  0  0  0  0  0  0  0  0  0  0
    4.9587   11.9052    1.7750 N   0  0  0  0  0  0  0  0  0  0  0  0
    3.2703    9.4683    3.1886 C   0  0  0  0  0  0  0  0  0  0  0  0
    2.8021    9.4548    4.2384 N   0  0  0  0  0  0  0  0  0  0  0  0
    4.5212    8.7973   -0.3752 C   0  0  0  0  0  0  0  0  0  0  0  0
    4.3044    7.6292   -1.1241 C   0  0  0  0  0  0  0  0  0  0  0  0
    4.7804    7.4799   -2.4106 C   0  0  0  0  0  0  0  0  0  0  0  0
    5.4956    8.5338   -2.9570 C   0  0  0  0  0  0  0  0  0  0  0  0
    5.9783    8.4320   -4.2028 F   0  0  0  0  0  0  0  0  0  0  0  0
    5.7177    9.6972   -2.2219 C   0  0  0  0  0  0  0  0  0  0  0  0
    6.4127   10.6994   -2.7735 F   0  0  0  0  0  0  0  0  0  0  0  0
    5.2368    9.8467   -0.9287 C   0  0  0  0  0  0  0  0  0  0  0  0
    3.5239    6.6682   -0.3145 C   0  0  0  0  0  0  0  0  0  0  0  0
    3.1567    5.5649   -0.6801 O   0  0  0  0  0  0  0  0  0  0  0  0
   -3.2060   -9.0040   -3.5439 C   0  0  0  0  0  0  0  0  0  0  0  0
   -3.3786  -10.1752   -4.3113 C   0  0  0  0  0  0  0  0  0  0  0  0
   -3.5807  -11.1393   -4.9011 N   0  0  0  0  0  0  0  0  0  0  0  0
   -4.2940   -8.8399   -2.6619 C   0  0  0  0  0  0  0  0  0  0  0  0
   -5.2156   -8.7822   -1.9776 N   0  0  0  0  0  0  0  0  0  0  0  0
   -0.7571   -9.3355   -5.5276 C   0  0  0  0  0  0  0  0  0  0  0  0
    0.4134   -9.2434   -6.2670 C   0  0  0  0  0  0  0  0  0  0  0  0
    0.6689  -10.1759   -7.1921 F   0  0  0  0  0  0  0  0  0  0  0  0
    1.3249   -8.2066   -6.0711 C   0  0  0  0  0  0  0  0  0  0  0  0
    2.4421   -8.1568   -6.8080 F   0  0  0  0  0  0  0  0  0  0  0  0
    1.0848   -7.2259   -5.1218 C   0  0  0  0  0  0  0  0  0  0  0  0
   -3.6233   -6.9506   -1.7823 H   0  0  0  0  0  0  0  0  0  0  0  0
   -5.3221   -5.1617    0.8517 H   0  0  0  0  0  0  0  0  0  0  0  0
   -4.8127   -6.5579   -0.0985 H   0  0  0  0  0  0  0  0  0  0  0  0
   -6.8462   -5.5416   -1.0675 H   0  0  0  0  0  0  0  0  0  0  0  0
   -6.0195   -3.9878   -1.2349 H   0  0  0  0  0  0  0  0  0  0  0  0
   -5.5029   -5.3740   -2.1969 H   0  0  0  0  0  0  0  0  0  0  0  0
   -3.9002   -3.1361    1.0370 H   0  0  0  0  0  0  0  0  0  0  0  0
   -3.5226    0.4913    1.7934 H   0  0  0  0  0  0  0  0  0  0  0  0
   -4.5562    2.2896    3.1202 H   0  0  0  0  0  0  0  0  0  0  0  0
   -4.5820    2.1517    5.5848 H   0  0  0  0  0  0  0  0  0  0  0  0
   -3.5634    0.2077    6.7140 H   0  0  0  0  0  0  0  0  0  0  0  0
   -2.5099   -1.5803    5.3906 H   0  0  0  0  0  0  0  0  0  0  0  0
   -4.4808   -2.7843    3.7999 H   0  0  0  0  0  0  0  0  0  0  0  0
   -4.7263   -5.1422    4.4506 H   0  0  0  0  0  0  0  0  0  0  0  0
   -2.8494   -6.7169    4.1421 H   0  0  0  0  0  0  0  0  0  0  0  0
   -0.7087   -5.9006    3.2207 H   0  0  0  0  0  0  0  0  0  0  0  0
   -0.4507   -3.5443    2.5915 H   0  0  0  0  0  0  0  0  0  0  0  0
    3.5729    0.0165   -1.8861 H   0  0  0  0  0  0  0  0  0  0  0  0
    3.0764   -0.6979   -4.1901 H   0  0  0  0  0  0  0  0  0  0  0  0
    0.8977   -0.1560   -5.2135 H   0  0  0  0  0  0  0  0  0  0  0  0
   -0.7788    1.1196   -3.9278 H   0  0  0  0  0  0  0  0  0  0  0  0
   -0.2761    1.8502   -1.6273 H   0  0  0  0  0  0  0  0  0  0  0  0
    3.2283    0.9117    1.9992 H   0  0  0  0  0  0  0  0  0  0  0  0
    5.4589    1.7481    2.5885 H   0  0  0  0  0  0  0  0  0  0  0  0
    6.7364    3.1222    0.9846 H   0  0  0  0  0  0  0  0  0  0  0  0
    5.7637    3.6452   -1.2250 H   0  0  0  0  0  0  0  0  0  0  0  0
    3.5151    2.8420   -1.8055 H   0  0  0  0  0  0  0  0  0  0  0  0
    0.3790    3.3562    4.1558 H   0  0  0  0  0  0  0  0  0  0  0  0
    1.0311    5.3693    5.4885 H   0  0  0  0  0  0  0  0  0  0  0  0
    2.1025    6.5981    4.8117 H   0  0  0  0  0  0  0  0  0  0  0  0
   -0.1131    7.5619    5.3145 H   0  0  0  0  0  0  0  0  0  0  0  0
   -0.8987    6.3660    4.2752 H   0  0  0  0  0  0  0  0  0  0  0  0
    0.1612    7.5914    3.5739 H   0  0  0  0  0  0  0  0  0  0  0  0
    2.5538    7.4169    2.9217 H   0  0  0  0  0  0  0  0  0  0  0  0
    4.6040    6.5787   -2.9757 H   0  0  0  0  0  0  0  0  0  0  0  0
    5.4361   10.7670   -0.4050 H   0  0  0  0  0  0  0  0  0  0  0  0
   -1.4275  -10.1569   -5.7192 H   0  0  0  0  0  0  0  0  0  0  0  0
    1.7860   -6.4216   -4.9667 H   0  0  0  0  0  0  0  0  0  0  0  0
  1  2  2  0  0  0  0
  2  3  1  0  0  0  0
  3  4  2  0  0  0  0
  4  5  1  0  0  0  0
  5  6  1  0  0  0  0
  2  6  1  0  0  0  0
  6  7  2  0  0  0  0
  7  8  1  0  0  0  0
  8  9  1  0  0  0  0
  8 10  2  0  0  0  0
 10 11  1  0  0  0  0
 11 12  1  0  0  0  0
 10 13  1  0  0  0  0
 13 14  2  0  0  0  0
  9 14  1  0  0  0  0
 14 15  1  0  0  0  0
 15 16  1  0  0  0  0
 15 17  2  0  0  0  0
 17 18  1  0  0  0  0
 18 19  1  0  0  0  0
 19 20  2  0  0  0  0
 20 21  1  0  0  0  0
 21 22  2  0  0  0  0
 22 23  1  0  0  0  0
 23 24  2  0  0  0  0
 19 24  1  0  0  0  0
 18 25  1  0  0  0  0
 25 26  2  0  0  0  0
 26 27  1  0  0  0  0
 27 28  2  0  0  0  0
 28 29  1  0  0  0  0
 29 30  2  0  0  0  0
 25 30  1  0  0  0  0
 17 31  1  0  0  0  0
 31 32  1  0  0  0  0
 31 33  2  0  0  0  0
 16 33  1  0  0  0  0
 33 34  1  0  0  0  0
 34 35  1  0  0  0  0
 35 36  1  0  0  0  0
 36 37  2  0  0  0  0
 37 38  1  0  0  0  0
 38 39  2  0  0  0  0
 39 40  1  0  0  0  0
 40 41  2  0  0  0  0
 36 41  1  0  0  0  0
 35 42  1  0  0  0  0
 42 43  2  0  0  0  0
 43 44  1  0  0  0  0
 44 45  2  0  0  0  0
 45 46  1  0  0  0  0
 46 47  2  0  0  0  0
 42 47  1  0  0  0  0
 34 48  2  0  0  0  0
 32 48  1  0  0  0  0
 48 49  1  0  0  0  0
 49 50  1  0  0  0  0
 49 51  2  0  0  0  0
 51 52  1  0  0  0  0
 52 53  1  0  0  0  0
 53 54  1  0  0  0  0
 52 55  2  0  0  0  0
 50 55  1  0  0  0  0
 55 56  1  0  0  0  0
 56 57  2  0  0  0  0
 57 58  1  0  0  0  0
 58 59  2  0  0  0  0
 59 60  1  0  0  0  0
 60 61  3  0  0  0  0
 59 62  1  0  0  0  0
 62 63  3  0  0  0  0
 58 64  1  0  0  0  0
 64 65  2  0  0  0  0
 65 66  1  0  0  0  0
 66 67  2  0  0  0  0
 67 68  1  0  0  0  0
 67 69  1  0  0  0  0
 69 70  1  0  0  0  0
 69 71  2  0  0  0  0
 64 71  1  0  0  0  0
 65 72  1  0  0  0  0
 57 72  1  0  0  0  0
 72 73  2  0  0  0  0
  5 74  2  0  0  0  0
 74 75  1  0  0  0  0
 75 76  3  0  0  0  0
 74 77  1  0  0  0  0
 77 78  3  0  0  0  0
  4 79  1  0  0  0  0
 79 80  2  0  0  0  0
 80 81  1  0  0  0  0
 80 82  1  0  0  0  0
 82 83  1  0  0  0  0
 82 84  2  0  0  0  0
  3 84  1  0  0  0  0
  7 85  1  0  0  0  0
 11 86  1  0  0  0  0
 11 87  1  0  0  0  0
 12 88  1  0  0  0  0
 12 89  1  0  0  0  0
 12 90  1  0  0  0  0
 13 91  1  0  0  0  0
 20 92  1  0  0  0  0
 21 93  1  0  0  0  0
 22 94  1  0  0  0  0
 23 95  1  0  0  0  0
 24 96  1  0  0  0  0
 26 97  1  0  0  0  0
 27 98  1  0  0  0  0
 28 99  1  0  0  0  0
 29100  1  0  0  0  0
 30101  1  0  0  0  0
 37102  1  0  0  0  0
 38103  1  0  0  0  0
 39104  1  0  0  0  0
 40105  1  0  0  0  0
 41106  1  0  0  0  0
 43107  1  0  0  0  0
 44108  1  0  0  0  0
 45109  1  0  0  0  0
 46110  1  0  0  0  0
 47111  1  0  0  0  0
 51112  1  0  0  0  0
 53113  1  0  0  0  0
 53114  1  0  0  0  0
 54115  1  0  0  0  0
 54116  1  0  0  0  0
 54117  1  0  0  0  0
 56118  1  0  0  0  0
 66119  1  0  0  0  0
 71120  1  0  0  0  0
 79121  1  0  0  0  0
 84122  1  0  0  0  0
M  END
