HDO-4Cl.sdf
  xtb     12202113593D
 energy: -198.640790214837 gnorm: 0.000885955460 xtb: 6.4.1 (unknown)
 99110  0     0  0            999 V2000
    6.2113   -0.7869    6.1129 C   0  0  0  0  0  0  0  0  0  0  0  0
    6.2107   -0.0674    5.1358 O   0  0  0  0  0  0  0  0  0  0  0  0
    7.3702   -1.0634    6.9938 C   0  0  0  0  0  0  0  0  0  0  0  0
    8.6257   -0.4940    6.9667 C   0  0  0  0  0  0  0  0  0  0  0  0
    9.5670   -0.9285    7.8925 C   0  0  0  0  0  0  0  0  0  0  0  0
    9.2394   -1.9269    8.8143 C   0  0  0  0  0  0  0  0  0  0  0  0
    7.9737   -2.5039    8.8331 C   0  0  0  0  0  0  0  0  0  0  0  0
    7.0319   -2.0666    7.9173 C   0  0  0  0  0  0  0  0  0  0  0  0
    5.6409   -2.4589    7.6948 C   0  0  0  0  0  0  0  0  0  0  0  0
    4.9328   -3.3532    8.4575 C   0  0  0  0  0  0  0  0  0  0  0  0
    3.5652   -3.6520    8.2875 C   0  0  0  0  0  0  0  0  0  0  0  0
    2.4526   -3.9309    8.2226 N   0  0  0  0  0  0  0  0  0  0  0  0
    5.4777   -4.0770    9.5377 C   0  0  0  0  0  0  0  0  0  0  0  0
    5.8667   -4.7041   10.4173 N   0  0  0  0  0  0  0  0  0  0  0  0
    5.1356   -1.6713    6.5951 C   0  0  0  0  0  0  0  0  0  0  0  0
    3.9240   -1.8428    5.9687 C   0  0  0  0  0  0  0  0  0  0  0  0
    3.3101   -0.9569    5.0748 C   0  0  0  0  0  0  0  0  0  0  0  0
    2.1444   -1.6055    3.9279 S   0  0  0  0  0  0  0  0  0  0  0  0
    1.8805   -0.0393    3.2608 C   0  0  0  0  0  0  0  0  0  0  0  0
    2.6089    0.9487    3.9394 C   0  0  0  0  0  0  0  0  0  0  0  0
    3.4141    0.4436    4.9769 C   0  0  0  0  0  0  0  0  0  0  0  0
    4.1208    1.1133    5.8771 O   0  0  0  0  0  0  0  0  0  0  0  0
    4.3052    2.5134    5.7220 C   0  0  0  0  0  0  0  0  0  0  0  0
    2.3151    2.5613    3.3053 S   0  0  0  0  0  0  0  0  0  0  0  0
    1.2350    1.8888    2.1415 C   0  0  0  0  0  0  0  0  0  0  0  0
    1.1085    0.4976    2.2258 C   0  0  0  0  0  0  0  0  0  0  0  0
    0.2209    0.0545    1.2822 N   0  0  0  0  0  0  0  0  0  0  0  0
   -0.3207   -1.2829    1.3765 C   0  0  0  0  0  0  0  0  0  0  0  0
    0.6264   -2.3334    0.7995 C   0  0  0  0  0  0  0  0  0  0  0  0
   -0.2256    1.1514    0.5700 C   0  0  0  0  0  0  0  0  0  0  0  0
    0.3734    2.3198    1.1238 C   0  0  0  0  0  0  0  0  0  0  0  0
   -0.0046    3.6189    0.7188 C   0  0  0  0  0  0  0  0  0  0  0  0
    0.4297    4.7849    1.1708 N   0  0  0  0  0  0  0  0  0  0  0  0
   -0.3995    5.9617    0.4300 S   0  0  0  0  0  0  0  0  0  0  0  0
   -1.3422    5.0289   -0.4962 N   0  0  0  0  0  0  0  0  0  0  0  0
   -1.0410    3.7616   -0.2611 C   0  0  0  0  0  0  0  0  0  0  0  0
   -1.5537    2.6024   -0.8852 C   0  0  0  0  0  0  0  0  0  0  0  0
   -1.1019    1.2949   -0.5389 C   0  0  0  0  0  0  0  0  0  0  0  0
   -1.6739    0.3863   -1.4134 N   0  0  0  0  0  0  0  0  0  0  0  0
   -1.1970   -0.9143   -1.8359 C   0  0  0  0  0  0  0  0  0  0  0  0
    0.1178   -0.7862   -2.6017 C   0  0  0  0  0  0  0  0  0  0  0  0
   -2.4682    1.0923   -2.2795 C   0  0  0  0  0  0  0  0  0  0  0  0
   -2.4367    2.4567   -1.9647 C   0  0  0  0  0  0  0  0  0  0  0  0
   -3.4080    3.4390   -3.0039 S   0  0  0  0  0  0  0  0  0  0  0  0
   -3.8429    1.9934   -3.8925 C   0  0  0  0  0  0  0  0  0  0  0  0
   -3.2627    0.8216   -3.3971 C   0  0  0  0  0  0  0  0  0  0  0  0
   -3.7404   -0.5696   -4.2957 S   0  0  0  0  0  0  0  0  0  0  0  0
   -4.6802    0.4390   -5.4110 C   0  0  0  0  0  0  0  0  0  0  0  0
   -4.6639    1.8021   -5.0107 C   0  0  0  0  0  0  0  0  0  0  0  0
   -5.2342    2.8930   -5.5307 O   0  0  0  0  0  0  0  0  0  0  0  0
   -6.4468    2.9225   -6.2766 C   0  0  0  0  0  0  0  0  0  0  0  0
   -5.2436   -0.0462   -6.5898 C   0  0  0  0  0  0  0  0  0  0  0  0
   -5.3085   -1.3269   -7.1041 C   0  0  0  0  0  0  0  0  0  0  0  0
   -5.8726   -1.6768   -8.3895 C   0  0  0  0  0  0  0  0  0  0  0  0
   -6.3462   -0.8323   -9.3639 C   0  0  0  0  0  0  0  0  0  0  0  0
   -6.9008   -1.2634  -10.5874 C   0  0  0  0  0  0  0  0  0  0  0  0
   -7.3647   -1.5373  -11.6011 N   0  0  0  0  0  0  0  0  0  0  0  0
   -6.3409    0.5734   -9.3069 C   0  0  0  0  0  0  0  0  0  0  0  0
   -6.3667    1.7233   -9.3336 N   0  0  0  0  0  0  0  0  0  0  0  0
   -5.8339   -3.1356   -8.5039 C   0  0  0  0  0  0  0  0  0  0  0  0
   -6.2506   -3.9925   -9.5082 C   0  0  0  0  0  0  0  0  0  0  0  0
   -6.0736   -5.3616   -9.3330 C   0  0  0  0  0  0  0  0  0  0  0  0
   -5.4875   -5.8752   -8.1720 C   0  0  0  0  0  0  0  0  0  0  0  0
   -5.0681   -5.0179   -7.1619 C   0  0  0  0  0  0  0  0  0  0  0  0
   -5.2466   -3.6625   -7.3418 C   0  0  0  0  0  0  0  0  0  0  0  0
   -4.8903   -2.5558   -6.4312 C   0  0  0  0  0  0  0  0  0  0  0  0
   -4.3692   -2.6753   -5.3358 O   0  0  0  0  0  0  0  0  0  0  0  0
   -5.2828   -7.5706   -7.9898 Cl  0  0  0  0  0  0  0  0  0  0  0  0
   11.1384   -0.2339    7.8988 Cl  0  0  0  0  0  0  0  0  0  0  0  0
   10.4152   -2.4622    9.9476 Cl  0  0  0  0  0  0  0  0  0  0  0  0
   -6.5892   -6.4313  -10.5739 Cl  0  0  0  0  0  0  0  0  0  0  0  0
    5.3207    2.9545    6.7613 C   0  0  0  0  0  0  0  0  0  0  0  0
   -7.5867    2.1598   -5.6164 C   0  0  0  0  0  0  0  0  0  0  0  0
    8.8702    0.2703    6.2459 H   0  0  0  0  0  0  0  0  0  0  0  0
    7.7595   -3.2764    9.5533 H   0  0  0  0  0  0  0  0  0  0  0  0
    3.3888   -2.7704    6.1360 H   0  0  0  0  0  0  0  0  0  0  0  0
    3.3477    3.0308    5.8658 H   0  0  0  0  0  0  0  0  0  0  0  0
    4.6770    2.7264    4.7139 H   0  0  0  0  0  0  0  0  0  0  0  0
   -1.3001   -1.2984    0.8969 H   0  0  0  0  0  0  0  0  0  0  0  0
   -0.4728   -1.5008    2.4395 H   0  0  0  0  0  0  0  0  0  0  0  0
    0.1462   -3.3077    0.8166 H   0  0  0  0  0  0  0  0  0  0  0  0
    1.5291   -2.3883    1.4016 H   0  0  0  0  0  0  0  0  0  0  0  0
    0.9130   -2.0975   -0.2212 H   0  0  0  0  0  0  0  0  0  0  0  0
   -1.0797   -1.5857   -0.9913 H   0  0  0  0  0  0  0  0  0  0  0  0
   -1.9651   -1.3316   -2.4916 H   0  0  0  0  0  0  0  0  0  0  0  0
    0.4535   -1.7668   -2.9272 H   0  0  0  0  0  0  0  0  0  0  0  0
    0.8864   -0.3372   -1.9752 H   0  0  0  0  0  0  0  0  0  0  0  0
   -0.0183   -0.1589   -3.4795 H   0  0  0  0  0  0  0  0  0  0  0  0
   -6.6829    3.9901   -6.3014 H   0  0  0  0  0  0  0  0  0  0  0  0
   -6.2893    2.5980   -7.3118 H   0  0  0  0  0  0  0  0  0  0  0  0
   -5.6757    0.7161   -7.2191 H   0  0  0  0  0  0  0  0  0  0  0  0
   -6.7067   -3.6369  -10.4172 H   0  0  0  0  0  0  0  0  0  0  0  0
   -4.6140   -5.3995   -6.2613 H   0  0  0  0  0  0  0  0  0  0  0  0
    6.2579    2.4298    6.5980 H   0  0  0  0  0  0  0  0  0  0  0  0
    4.9607    2.7235    7.7602 H   0  0  0  0  0  0  0  0  0  0  0  0
    5.4882    4.0240    6.6790 H   0  0  0  0  0  0  0  0  0  0  0  0
   -7.3898    1.0906   -5.5788 H   0  0  0  0  0  0  0  0  0  0  0  0
   -7.7378    2.5202   -4.6011 H   0  0  0  0  0  0  0  0  0  0  0  0
   -8.4960    2.3234   -6.1873 H   0  0  0  0  0  0  0  0  0  0  0  0
  1  2  2  0  0  0  0
  1  3  1  0  0  0  0
  3  4  2  0  0  0  0
  4  5  1  0  0  0  0
  5  6  2  0  0  0  0
  6  7  1  0  0  0  0
  7  8  2  0  0  0  0
  3  8  1  0  0  0  0
  8  9  1  0  0  0  0
  9 10  2  0  0  0  0
 10 11  1  0  0  0  0
 11 12  3  0  0  0  0
 10 13  1  0  0  0  0
 13 14  3  0  0  0  0
  9 15  1  0  0  0  0
  1 15  1  0  0  0  0
 15 16  2  0  0  0  0
 16 17  1  0  0  0  0
 17 18  1  0  0  0  0
 18 19  1  0  0  0  0
 19 20  2  0  0  0  0
 20 21  1  0  0  0  0
 21 22  1  0  0  0  0
 22 23  1  0  0  0  0
 17 21  2  0  0  0  0
 20 24  1  0  0  0  0
 24 25  1  0  0  0  0
 25 26  2  0  0  0  0
 19 26  1  0  0  0  0
 26 27  1  0  0  0  0
 27 28  1  0  0  0  0
 28 29  1  0  0  0  0
 27 30  1  0  0  0  0
 30 31  2  0  0  0  0
 25 31  1  0  0  0  0
 31 32  1  0  0  0  0
 32 33  2  0  0  0  0
 33 34  1  0  0  0  0
 34 35  1  0  0  0  0
 35 36  2  0  0  0  0
 32 36  1  0  0  0  0
 36 37  1  0  0  0  0
 37 38  2  0  0  0  0
 30 38  1  0  0  0  0
 38 39  1  0  0  0  0
 39 40  1  0  0  0  0
 40 41  1  0  0  0  0
 39 42  1  0  0  0  0
 42 43  2  0  0  0  0
 37 43  1  0  0  0  0
 43 44  1  0  0  0  0
 44 45  1  0  0  0  0
 45 46  2  0  0  0  0
 42 46  1  0  0  0  0
 46 47  1  0  0  0  0
 47 48  1  0  0  0  0
 48 49  2  0  0  0  0
 45 49  1  0  0  0  0
 49 50  1  0  0  0  0
 50 51  1  0  0  0  0
 48 52  1  0  0  0  0
 52 53  2  0  0  0  0
 53 54  1  0  0  0  0
 54 55  2  0  0  0  0
 55 56  1  0  0  0  0
 56 57  3  0  0  0  0
 55 58  1  0  0  0  0
 58 59  3  0  0  0  0
 54 60  1  0  0  0  0
 60 61  2  0  0  0  0
 61 62  1  0  0  0  0
 62 63  2  0  0  0  0
 63 64  1  0  0  0  0
 64 65  2  0  0  0  0
 60 65  1  0  0  0  0
 65 66  1  0  0  0  0
 66 67  2  0  0  0  0
 53 66  1  0  0  0  0
 63 68  1  0  0  0  0
  5 69  1  0  0  0  0
  6 70  1  0  0  0  0
 62 71  1  0  0  0  0
 23 72  1  0  0  0  0
 51 73  1  0  0  0  0
  4 74  1  0  0  0  0
  7 75  1  0  0  0  0
 16 76  1  0  0  0  0
 23 77  1  0  0  0  0
 23 78  1  0  0  0  0
 28 79  1  0  0  0  0
 28 80  1  0  0  0  0
 29 81  1  0  0  0  0
 29 82  1  0  0  0  0
 29 83  1  0  0  0  0
 40 84  1  0  0  0  0
 40 85  1  0  0  0  0
 41 86  1  0  0  0  0
 41 87  1  0  0  0  0
 41 88  1  0  0  0  0
 51 89  1  0  0  0  0
 51 90  1  0  0  0  0
 52 91  1  0  0  0  0
 61 92  1  0  0  0  0
 64 93  1  0  0  0  0
 72 94  1  0  0  0  0
 72 95  1  0  0  0  0
 72 96  1  0  0  0  0
 73 97  1  0  0  0  0
 73 98  1  0  0  0  0
 73 99  1  0  0  0  0
M  END
