99
HDO-4Cl.sdf
C          6.21130       -0.78690        6.11290
O          6.21070       -0.06740        5.13580
C          7.37020       -1.06340        6.99380
C          8.62570       -0.49400        6.96670
C          9.56700       -0.92850        7.89250
C          9.23940       -1.92690        8.81430
C          7.97370       -2.50390        8.83310
C          7.03190       -2.06660        7.91730
C          5.64090       -2.45890        7.69480
C          4.93280       -3.35320        8.45750
C          3.56520       -3.65200        8.28750
N          2.45260       -3.93090        8.22260
C          5.47770       -4.07700        9.53770
N          5.86670       -4.70410       10.41730
C          5.13560       -1.67130        6.59510
C          3.92400       -1.84280        5.96870
C          3.31010       -0.95690        5.07480
S          2.14440       -1.60550        3.92790
C          1.88050       -0.03930        3.26080
C          2.60890        0.94870        3.93940
C          3.41410        0.44360        4.97690
O          4.12080        1.11330        5.87710
C          4.30520        2.51340        5.72200
S          2.31510        2.56130        3.30530
C          1.23500        1.88880        2.14150
C          1.10850        0.49760        2.22580
N          0.22090        0.05450        1.28220
C         -0.32070       -1.28290        1.37650
C          0.62640       -2.33340        0.79950
C         -0.22560        1.15140        0.57000
C          0.37340        2.31980        1.12380
C         -0.00460        3.61890        0.71880
N          0.42970        4.78490        1.17080
S         -0.39950        5.96170        0.43000
N         -1.34220        5.02890       -0.49620
C         -1.04100        3.76160       -0.26110
C         -1.55370        2.60240       -0.88520
C         -1.10190        1.29490       -0.53890
N         -1.67390        0.38630       -1.41340
C         -1.19700       -0.91430       -1.83590
C          0.11780       -0.78620       -2.60170
C         -2.46820        1.09230       -2.27950
C         -2.43670        2.45670       -1.96470
S         -3.40800        3.43900       -3.00390
C         -3.84290        1.99340       -3.89250
C         -3.26270        0.82160       -3.39710
S         -3.74040       -0.56960       -4.29570
C         -4.68020        0.43900       -5.41100
C         -4.66390        1.80210       -5.01070
O         -5.23420        2.89300       -5.53070
C         -6.44680        2.92250       -6.27660
C         -5.24360       -0.04620       -6.58980
C         -5.30850       -1.32690       -7.10410
C         -5.87260       -1.67680       -8.38950
C         -6.34620       -0.83230       -9.36390
C         -6.90080       -1.26340      -10.58740
N         -7.36470       -1.53730      -11.60110
C         -6.34090        0.57340       -9.30690
N         -6.36670        1.72330       -9.33360
C         -5.83390       -3.13560       -8.50390
C         -6.25060       -3.99250       -9.50820
C         -6.07360       -5.36160       -9.33300
C         -5.48750       -5.87520       -8.17200
C         -5.06810       -5.01790       -7.16190
C         -5.24660       -3.66250       -7.34180
C         -4.89030       -2.55580       -6.43120
O         -4.36920       -2.67530       -5.33580
Cl        -5.28280       -7.57060       -7.98980
Cl        11.13840       -0.23390        7.89880
Cl        10.41520       -2.46220        9.94760
Cl        -6.58920       -6.43130      -10.57390
C          5.32070        2.95450        6.76130
C         -7.58670        2.15980       -5.61640
H          8.87020        0.27030        6.24590
H          7.75950       -3.27640        9.55330
H          3.38880       -2.77040        6.13600
H          3.34770        3.03080        5.86580
H          4.67700        2.72640        4.71390
H         -1.30010       -1.29840        0.89690
H         -0.47280       -1.50080        2.43950
H          0.14620       -3.30770        0.81660
H          1.52910       -2.38830        1.40160
H          0.91300       -2.09750       -0.22120
H         -1.07970       -1.58570       -0.99130
H         -1.96510       -1.33160       -2.49160
H          0.45350       -1.76680       -2.92720
H          0.88640       -0.33720       -1.97520
H         -0.01830       -0.15890       -3.47950
H         -6.68290        3.99010       -6.30140
H         -6.28930        2.59800       -7.31180
H         -5.67570        0.71610       -7.21910
H         -6.70670       -3.63690      -10.41720
H         -4.61400       -5.39950       -6.26130
H          6.25790        2.42980        6.59800
H          4.96070        2.72350        7.76020
H          5.48820        4.02400        6.67900
H         -7.38980        1.09060       -5.57880
H         -7.73780        2.52020       -4.60110
H         -8.49600        2.32340       -6.18730
