106
HF-PCIC.sdf
C         -7.89680       -7.01760       -3.25180
O         -6.89680       -6.72460       -2.62180
C         -8.83790       -8.11120       -2.93030
C         -8.79300       -8.99840       -1.87390
C         -9.80500       -9.94070       -1.78390
C        -10.82570       -9.97900       -2.73380
C        -10.86880       -9.08710       -3.79570
C         -9.86020       -8.14170       -3.89330
C         -9.61910       -7.07710       -4.87030
C        -10.40560       -6.82360       -5.96470
C        -10.18760       -5.81040       -6.92160
N        -10.08250       -5.01390       -7.74290
C        -11.56320       -7.56040       -6.29450
N        -12.51200       -8.11730       -6.62130
C         -8.41800       -6.37960       -4.46130
C         -7.86910       -5.28550       -5.09110
C          9.22950        4.65070        5.42640
O          9.25680        3.48630        5.08120
C         10.27040        5.31730        6.24050
C         11.43730        4.77170        6.73770
C         12.26960        5.59840        7.47430
C         11.92840        6.93270        7.69620
C         10.75480        7.47870        7.19780
C          9.91600        6.65680        6.46100
C          8.62750        6.90980        5.81560
C          7.92500        8.08270        5.91590
C          8.38540        9.22080        6.61290
N          8.69830       10.18120        7.15810
C          6.64200        8.33970        5.38600
N          5.59780        8.63750        5.01110
C          8.22690        5.69190        5.13320
C          7.13450        5.61920        4.29990
C          6.55280        4.54440        3.61630
S          5.17990        4.93990        2.57070
C          4.99450        3.29280        2.17810
C          5.94450        2.46880        2.80630
C          6.80700        3.17140        3.62050
C          4.12140        2.48530        1.42040
C          4.49410        1.14670        1.56410
C          5.71460        1.01700        2.44810
S          2.76840        2.69640        0.39220
C          2.67340        0.96910        0.15610
C          3.67320        0.29330        0.83780
C          1.61460        0.37890       -0.62190
C          1.26080       -0.96560       -0.45640
C          0.21700       -1.51740       -1.15920
C         -0.55050       -0.79730       -2.08680
C         -0.18190        0.54160       -2.26840
C          0.85360        1.09710       -1.55550
C         -1.66990       -1.36650       -2.79140
S         -2.45110       -2.82040       -2.22030
C         -3.60270       -2.70380       -3.48040
C         -3.39010       -1.60260       -4.31270
C         -2.28820       -0.85280       -3.92150
C         -4.72470       -3.42940       -3.93270
C         -5.23190       -2.79000       -5.08010
C         -4.41020       -1.56690       -5.42990
S         -5.62480       -4.79430       -3.44320
C         -6.73660       -4.52910       -4.78120
C         -6.36650       -3.40740       -5.54630
C         -3.67150       -1.72590       -6.77400
C         -4.57360       -1.78760       -7.99900
C         -5.32270       -0.32660       -5.35860
C         -4.62880        1.00300       -5.62160
C          5.43540        0.22690        3.74140
C          5.11930       -1.24900        3.54100
C          6.87360        0.44670        1.60400
C          8.19770        0.31000        2.34330
F          1.13630        2.39580       -1.78040
F         -0.06480       -2.81530       -0.92990
F         12.75270        7.71060        8.40700
F         13.41190        5.11330        7.97660
F         -9.80380      -10.82130       -0.77580
F        -11.79160      -10.89790       -2.62190
H         -8.00200       -8.96330       -1.14190
H        -11.68050       -9.16020       -4.50060
H         -8.39050       -4.92420       -5.96910
H         11.69560        3.73970        6.56150
H         10.54100        8.51570        7.39710
H          6.61930        6.55650        4.12550
H          7.59570        2.74970        4.21470
H          3.80090       -0.77110        0.77300
H          1.78460       -1.58710        0.25060
H         -0.72450        1.17130       -2.95370
H         -1.92060        0.01260       -4.44070
H         -6.95160       -3.09500       -6.39300
H         -2.97080       -0.89620       -6.87800
H         -3.08280       -2.64540       -6.71970
H         -5.24680       -2.63810       -7.94250
H         -5.16140       -0.88040       -8.10630
H         -3.96200       -1.90050       -8.89130
H         -6.13340       -0.46150       -6.07560
H         -5.76970       -0.30280       -4.36130
H         -5.35790        1.80770       -5.56010
H         -4.18130        1.02900       -6.61120
H         -3.85750        1.19170       -4.88050
H          6.30570        0.32860        4.39060
H          4.59240        0.70510        4.24690
H          4.96580       -1.71870        4.50990
H          5.93390       -1.76580        3.04160
H          4.21120       -1.37680        2.95890
H          7.01160        1.10900        0.74520
H          6.56750       -0.52690        1.21780
H          8.53690        1.27000        2.72090
H          8.11820       -0.38430        3.17490
H          8.95260       -0.07000        1.65860
