HF-PCIC.sdf
  xtb     12202114003D
 energy: -201.561976763588 gnorm: 0.000339699429 xtb: 6.4.1 (unknown)
106116  0     0  0            999 V2000
   -7.8968   -7.0176   -3.2518 C   0  0  0  0  0  0  0  0  0  0  0  0
   -6.8968   -6.7246   -2.6218 O   0  0  0  0  0  0  0  0  0  0  0  0
   -8.8379   -8.1112   -2.9303 C   0  0  0  0  0  0  0  0  0  0  0  0
   -8.7930   -8.9984   -1.8739 C   0  0  0  0  0  0  0  0  0  0  0  0
   -9.8050   -9.9407   -1.7839 C   0  0  0  0  0  0  0  0  0  0  0  0
  -10.8257   -9.9790   -2.7338 C   0  0  0  0  0  0  0  0  0  0  0  0
  -10.8688   -9.0871   -3.7957 C   0  0  0  0  0  0  0  0  0  0  0  0
   -9.8602   -8.1417   -3.8933 C   0  0  0  0  0  0  0  0  0  0  0  0
   -9.6191   -7.0771   -4.8703 C   0  0  0  0  0  0  0  0  0  0  0  0
  -10.4056   -6.8236   -5.9647 C   0  0  0  0  0  0  0  0  0  0  0  0
  -10.1876   -5.8104   -6.9216 C   0  0  0  0  0  0  0  0  0  0  0  0
  -10.0825   -5.0139   -7.7429 N   0  0  0  0  0  0  0  0  0  0  0  0
  -11.5632   -7.5604   -6.2945 C   0  0  0  0  0  0  0  0  0  0  0  0
  -12.5120   -8.1173   -6.6213 N   0  0  0  0  0  0  0  0  0  0  0  0
   -8.4180   -6.3796   -4.4613 C   0  0  0  0  0  0  0  0  0  0  0  0
   -7.8691   -5.2855   -5.0911 C   0  0  0  0  0  0  0  0  0  0  0  0
    9.2295    4.6507    5.4264 C   0  0  0  0  0  0  0  0  0  0  0  0
    9.2568    3.4863    5.0812 O   0  0  0  0  0  0  0  0  0  0  0  0
   10.2704    5.3173    6.2405 C   0  0  0  0  0  0  0  0  0  0  0  0
   11.4373    4.7717    6.7377 C   0  0  0  0  0  0  0  0  0  0  0  0
   12.2696    5.5984    7.4743 C   0  0  0  0  0  0  0  0  0  0  0  0
   11.9284    6.9327    7.6962 C   0  0  0  0  0  0  0  0  0  0  0  0
   10.7548    7.4787    7.1978 C   0  0  0  0  0  0  0  0  0  0  0  0
    9.9160    6.6568    6.4610 C   0  0  0  0  0  0  0  0  0  0  0  0
    8.6275    6.9098    5.8156 C   0  0  0  0  0  0  0  0  0  0  0  0
    7.9250    8.0827    5.9159 C   0  0  0  0  0  0  0  0  0  0  0  0
    8.3854    9.2208    6.6129 C   0  0  0  0  0  0  0  0  0  0  0  0
    8.6983   10.1812    7.1581 N   0  0  0  0  0  0  0  0  0  0  0  0
    6.6420    8.3397    5.3860 C   0  0  0  0  0  0  0  0  0  0  0  0
    5.5978    8.6375    5.0111 N   0  0  0  0  0  0  0  0  0  0  0  0
    8.2269    5.6919    5.1332 C   0  0  0  0  0  0  0  0  0  0  0  0
    7.1345    5.6192    4.2999 C   0  0  0  0  0  0  0  0  0  0  0  0
    6.5528    4.5444    3.6163 C   0  0  0  0  0  0  0  0  0  0  0  0
    5.1799    4.9399    2.5707 S   0  0  0  0  0  0  0  0  0  0  0  0
    4.9945    3.2928    2.1781 C   0  0  0  0  0  0  0  0  0  0  0  0
    5.9445    2.4688    2.8063 C   0  0  0  0  0  0  0  0  0  0  0  0
    6.8070    3.1714    3.6205 C   0  0  0  0  0  0  0  0  0  0  0  0
    4.1214    2.4853    1.4204 C   0  0  0  0  0  0  0  0  0  0  0  0
    4.4941    1.1467    1.5641 C   0  0  0  0  0  0  0  0  0  0  0  0
    5.7146    1.0170    2.4481 C   0  0  0  0  0  0  0  0  0  0  0  0
    2.7684    2.6964    0.3922 S   0  0  0  0  0  0  0  0  0  0  0  0
    2.6734    0.9691    0.1561 C   0  0  0  0  0  0  0  0  0  0  0  0
    3.6732    0.2933    0.8378 C   0  0  0  0  0  0  0  0  0  0  0  0
    1.6146    0.3789   -0.6219 C   0  0  0  0  0  0  0  0  0  0  0  0
    1.2608   -0.9656   -0.4564 C   0  0  0  0  0  0  0  0  0  0  0  0
    0.2170   -1.5174   -1.1592 C   0  0  0  0  0  0  0  0  0  0  0  0
   -0.5505   -0.7973   -2.0868 C   0  0  0  0  0  0  0  0  0  0  0  0
   -0.1819    0.5416   -2.2684 C   0  0  0  0  0  0  0  0  0  0  0  0
    0.8536    1.0971   -1.5555 C   0  0  0  0  0  0  0  0  0  0  0  0
   -1.6699   -1.3665   -2.7914 C   0  0  0  0  0  0  0  0  0  0  0  0
   -2.4511   -2.8204   -2.2203 S   0  0  0  0  0  0  0  0  0  0  0  0
   -3.6027   -2.7038   -3.4804 C   0  0  0  0  0  0  0  0  0  0  0  0
   -3.3901   -1.6026   -4.3127 C   0  0  0  0  0  0  0  0  0  0  0  0
   -2.2882   -0.8528   -3.9215 C   0  0  0  0  0  0  0  0  0  0  0  0
   -4.7247   -3.4294   -3.9327 C   0  0  0  0  0  0  0  0  0  0  0  0
   -5.2319   -2.7900   -5.0801 C   0  0  0  0  0  0  0  0  0  0  0  0
   -4.4102   -1.5669   -5.4299 C   0  0  0  0  0  0  0  0  0  0  0  0
   -5.6248   -4.7943   -3.4432 S   0  0  0  0  0  0  0  0  0  0  0  0
   -6.7366   -4.5291   -4.7812 C   0  0  0  0  0  0  0  0  0  0  0  0
   -6.3665   -3.4074   -5.5463 C   0  0  0  0  0  0  0  0  0  0  0  0
   -3.6715   -1.7259   -6.7740 C   0  0  0  0  0  0  0  0  0  0  0  0
   -4.5736   -1.7876   -7.9990 C   0  0  0  0  0  0  0  0  0  0  0  0
   -5.3227   -0.3266   -5.3586 C   0  0  0  0  0  0  0  0  0  0  0  0
   -4.6288    1.0030   -5.6216 C   0  0  0  0  0  0  0  0  0  0  0  0
    5.4354    0.2269    3.7414 C   0  0  0  0  0  0  0  0  0  0  0  0
    5.1193   -1.2490    3.5410 C   0  0  0  0  0  0  0  0  0  0  0  0
    6.8736    0.4467    1.6040 C   0  0  0  0  0  0  0  0  0  0  0  0
    8.1977    0.3100    2.3433 C   0  0  0  0  0  0  0  0  0  0  0  0
    1.1363    2.3958   -1.7804 F   0  0  0  0  0  0  0  0  0  0  0  0
   -0.0648   -2.8153   -0.9299 F   0  0  0  0  0  0  0  0  0  0  0  0
   12.7527    7.7106    8.4070 F   0  0  0  0  0  0  0  0  0  0  0  0
   13.4119    5.1133    7.9766 F   0  0  0  0  0  0  0  0  0  0  0  0
   -9.8038  -10.8213   -0.7758 F   0  0  0  0  0  0  0  0  0  0  0  0
  -11.7916  -10.8979   -2.6219 F   0  0  0  0  0  0  0  0  0  0  0  0
   -8.0020   -8.9633   -1.1419 H   0  0  0  0  0  0  0  0  0  0  0  0
  -11.6805   -9.1602   -4.5006 H   0  0  0  0  0  0  0  0  0  0  0  0
   -8.3905   -4.9242   -5.9691 H   0  0  0  0  0  0  0  0  0  0  0  0
   11.6956    3.7397    6.5615 H   0  0  0  0  0  0  0  0  0  0  0  0
   10.5410    8.5157    7.3971 H   0  0  0  0  0  0  0  0  0  0  0  0
    6.6193    6.5565    4.1255 H   0  0  0  0  0  0  0  0  0  0  0  0
    7.5957    2.7497    4.2147 H   0  0  0  0  0  0  0  0  0  0  0  0
    3.8009   -0.7711    0.7730 H   0  0  0  0  0  0  0  0  0  0  0  0
    1.7846   -1.5871    0.2506 H   0  0  0  0  0  0  0  0  0  0  0  0
   -0.7245    1.1713   -2.9537 H   0  0  0  0  0  0  0  0  0  0  0  0
   -1.9206    0.0126   -4.4407 H   0  0  0  0  0  0  0  0  0  0  0  0
   -6.9516   -3.0950   -6.3930 H   0  0  0  0  0  0  0  0  0  0  0  0
   -2.9708   -0.8962   -6.8780 H   0  0  0  0  0  0  0  0  0  0  0  0
   -3.0828   -2.6454   -6.7197 H   0  0  0  0  0  0  0  0  0  0  0  0
   -5.2468   -2.6381   -7.9425 H   0  0  0  0  0  0  0  0  0  0  0  0
   -5.1614   -0.8804   -8.1063 H   0  0  0  0  0  0  0  0  0  0  0  0
   -3.9620   -1.9005   -8.8913 H   0  0  0  0  0  0  0  0  0  0  0  0
   -6.1334   -0.4615   -6.0756 H   0  0  0  0  0  0  0  0  0  0  0  0
   -5.7697   -0.3028   -4.3613 H   0  0  0  0  0  0  0  0  0  0  0  0
   -5.3579    1.8077   -5.5601 H   0  0  0  0  0  0  0  0  0  0  0  0
   -4.1813    1.0290   -6.6112 H   0  0  0  0  0  0  0  0  0  0  0  0
   -3.8575    1.1917   -4.8805 H   0  0  0  0  0  0  0  0  0  0  0  0
    6.3057    0.3286    4.3906 H   0  0  0  0  0  0  0  0  0  0  0  0
    4.5924    0.7051    4.2469 H   0  0  0  0  0  0  0  0  0  0  0  0
    4.9658   -1.7187    4.5099 H   0  0  0  0  0  0  0  0  0  0  0  0
    5.9339   -1.7658    3.0416 H   0  0  0  0  0  0  0  0  0  0  0  0
    4.2112   -1.3768    2.9589 H   0  0  0  0  0  0  0  0  0  0  0  0
    7.0116    1.1090    0.7452 H   0  0  0  0  0  0  0  0  0  0  0  0
    6.5675   -0.5269    1.2178 H   0  0  0  0  0  0  0  0  0  0  0  0
    8.5369    1.2700    2.7209 H   0  0  0  0  0  0  0  0  0  0  0  0
    8.1182   -0.3843    3.1749 H   0  0  0  0  0  0  0  0  0  0  0  0
    8.9526   -0.0700    1.6586 H   0  0  0  0  0  0  0  0  0  0  0  0
  1  2  2  0  0  0  0
  1  3  1  0  0  0  0
  3  4  2  0  0  0  0
  4  5  1  0  0  0  0
  5  6  2  0  0  0  0
  6  7  1  0  0  0  0
  7  8  2  0  0  0  0
  3  8  1  0  0  0  0
  8  9  1  0  0  0  0
  9 10  2  0  0  0  0
 10 11  1  0  0  0  0
 11 12  3  0  0  0  0
 10 13  1  0  0  0  0
 13 14  3  0  0  0  0
  9 15  1  0  0  0  0
  1 15  1  0  0  0  0
 15 16  2  0  0  0  0
 17 18  2  0  0  0  0
 17 19  1  0  0  0  0
 19 20  2  0  0  0  0
 20 21  1  0  0  0  0
 21 22  2  0  0  0  0
 22 23  1  0  0  0  0
 23 24  2  0  0  0  0
 19 24  1  0  0  0  0
 24 25  1  0  0  0  0
 25 26  2  0  0  0  0
 26 27  1  0  0  0  0
 27 28  3  0  0  0  0
 26 29  1  0  0  0  0
 29 30  3  0  0  0  0
 25 31  1  0  0  0  0
 17 31  1  0  0  0  0
 31 32  2  0  0  0  0
 32 33  1  0  0  0  0
 33 34  1  0  0  0  0
 34 35  1  0  0  0  0
 35 36  2  0  0  0  0
 36 37  1  0  0  0  0
 37 33  2  0  0  0  0
 35 38  1  0  0  0  0
 38 39  2  0  0  0  0
 39 40  1  0  0  0  0
 40 36  1  0  0  0  0
 38 41  1  0  0  0  0
 41 42  1  0  0  0  0
 42 43  2  0  0  0  0
 43 39  1  0  0  0  0
 42 44  1  0  0  0  0
 45 46  2  0  0  0  0
 46 47  1  0  0  0  0
 47 48  2  0  0  0  0
 48 49  1  0  0  0  0
 49 44  2  0  0  0  0
 47 50  1  0  0  0  0
 50 51  1  0  0  0  0
 51 52  1  0  0  0  0
 52 53  2  0  0  0  0
 53 54  1  0  0  0  0
 54 50  2  0  0  0  0
 52 55  1  0  0  0  0
 55 56  2  0  0  0  0
 56 57  1  0  0  0  0
 57 53  1  0  0  0  0
 55 58  1  0  0  0  0
 58 59  1  0  0  0  0
 59 60  2  0  0  0  0
 60 56  1  0  0  0  0
 59 16  1  0  0  0  0
 57 61  1  0  0  0  0
 61 62  1  0  0  0  0
 57 63  1  0  0  0  0
 63 64  1  0  0  0  0
 40 65  1  0  0  0  0
 65 66  1  0  0  0  0
 40 67  1  0  0  0  0
 67 68  1  0  0  0  0
 44 45  1  0  0  0  0
 49 69  1  0  0  0  0
 46 70  1  0  0  0  0
 22 71  1  0  0  0  0
 21 72  1  0  0  0  0
  5 73  1  0  0  0  0
  6 74  1  0  0  0  0
  4 75  1  0  0  0  0
  7 76  1  0  0  0  0
 16 77  1  0  0  0  0
 20 78  1  0  0  0  0
 23 79  1  0  0  0  0
 32 80  1  0  0  0  0
 37 81  1  0  0  0  0
 43 82  1  0  0  0  0
 45 83  1  0  0  0  0
 48 84  1  0  0  0  0
 54 85  1  0  0  0  0
 60 86  1  0  0  0  0
 61 87  1  0  0  0  0
 61 88  1  0  0  0  0
 62 89  1  0  0  0  0
 62 90  1  0  0  0  0
 62 91  1  0  0  0  0
 63 92  1  0  0  0  0
 63 93  1  0  0  0  0
 64 94  1  0  0  0  0
 64 95  1  0  0  0  0
 64 96  1  0  0  0  0
 65 97  1  0  0  0  0
 65 98  1  0  0  0  0
 66 99  1  0  0  0  0
 66100  1  0  0  0  0
 66101  1  0  0  0  0
 67102  1  0  0  0  0
 67103  1  0  0  0  0
 68104  1  0  0  0  0
 68105  1  0  0  0  0
 68106  1  0  0  0  0
M  END
