148
i-cc23.sdf
C         -5.16210        4.13800        0.90800
C         -3.96010        3.44820        0.53220
S         -3.96860        1.70850        0.32540
C         -2.30290        1.74550       -0.09430
C         -1.78530        3.02460       -0.08250
C         -2.72820        3.99890        0.25870
C         -1.29510        0.78750       -0.43890
C         -0.10320        1.51170       -0.66440
C         -0.32770        3.00380       -0.46930
C         -1.34260       -0.59860       -0.54660
C         -0.17320       -1.24480       -0.87560
C          1.02580       -0.52240       -1.07310
C          1.07130        0.86470       -0.97270
C          0.05930       -2.73880       -1.04180
C          1.54590       -2.77110       -1.29620
C          2.04970       -1.48500       -1.34040
C          2.51040       -3.75470       -1.51590
C          3.76070       -3.21060       -1.72660
S          3.73800       -1.45900       -1.66010
C          0.59750        3.47660        0.63480
C         -0.17010        3.82250       -1.73590
C         -0.36610       -3.44500        0.22940
C         -0.62320       -3.32590       -2.26400
C         -0.12880        3.23340       -2.99090
C         -0.03090        4.01470       -4.12850
C          0.01590        5.39890       -4.04440
C         -0.03890        5.98490       -2.78590
C         -0.13500        5.20950       -1.64720
C          0.21170        3.40920        1.96650
C          1.07700        3.80340        2.97020
C          2.35200        4.26440        2.67260
C          2.74090        4.31210        1.34030
C          1.87810        3.92310        0.33350
C         -0.65130       -4.70660       -2.42330
C         -1.22780       -5.27350       -3.54290
C         -1.78880       -4.47960       -4.53560
C         -1.74530       -3.10160       -4.37880
C         -1.16740       -2.52860       -3.25990
C          0.53210       -3.66230        1.26470
C          0.11860       -4.26990        2.43590
C         -1.20090       -4.66490        2.60890
C         -2.09810       -4.43760        1.57360
C         -1.68930       -3.83360        0.39990
C          0.17290        6.24220       -5.27690
C          1.65410        6.49630       -5.56450
C          3.30780        4.64520        3.76640
C          4.11900        3.42650        4.21100
C         -1.63590       -5.36600        3.86400
C         -1.45290       -6.87840        3.72300
C         -2.38070       -5.09580       -5.77070
C         -1.30890       -5.27000       -6.84860
S         -6.67300        3.68730        0.15030
C         -7.49470        4.97880        0.90120
C         -6.69750        5.68100        1.76150
C         -5.34430        5.19620        1.76590
C         -7.14290        6.80400        2.55210
O         -4.41700        5.83480        2.52740
C         -3.44480        5.05080        3.19270
C         -6.85300        6.96030        3.86050
C         -6.26060        5.88620        4.72190
C         -6.03100        6.55210        5.99930
C         -6.52380        7.85190        5.98970
C         -7.08300        8.14200        4.68690
S         -5.37020        6.11900        7.51420
C         -5.74230        7.68740        8.12950
C         -6.35260        8.50570        7.22680
O         -6.11470        4.71640        4.44990
C         -7.68510        9.31740        4.33280
C         -7.82100       10.38520        5.24630
C         -8.24300        9.60520        3.07070
N         -8.72130        9.90450        2.07110
N         -7.93830       11.26170        5.97700
C          4.99020       -3.89430       -1.95650
S          6.47620       -3.01190       -2.14770
C          7.35940       -4.44530       -2.37850
C          6.59260       -5.58020       -2.22320
C          5.21110       -5.26070       -2.03070
C          7.22720       -6.87420       -2.19400
O          4.15200       -6.10360       -2.03130
C          4.27100       -7.38710       -2.59270
C          7.02380       -7.81640       -1.24330
C          6.26380       -7.57590        0.02760
C          6.50410       -8.78720        0.80720
C          7.30810       -9.68800        0.11870
C          7.63100       -9.14080       -1.18100
S          6.07070       -9.35630        2.35840
C          6.96410      -10.80540        2.07950
C          7.57000      -10.85750        0.85960
O          5.66050       -6.57970        0.35220
C          8.32090       -9.79360       -2.16550
C          8.55860       -9.28690       -3.45890
C          8.84770      -11.08810       -1.96960
N          9.28630      -12.13810       -1.82560
N          8.76460       -8.93260       -4.53140
H         -2.54650        5.05870        0.27150
H         -2.26250       -1.13560       -0.37300
H          1.99480        1.40110       -1.12810
H          2.33620       -4.81260       -1.50740
H         -0.16970        2.15820       -3.08350
H          0.00590        3.53810       -5.09800
H         -0.00940        7.06180       -2.69740
H         -0.17160        5.68320       -0.67650
H         -0.77120        3.04200        2.22500
H          0.75480        3.75090        4.00080
H          3.73210        4.66080        1.08670
H          2.19880        3.97620       -0.69690
H         -0.22770       -5.33910       -1.65670
H         -1.24700       -6.34940       -3.64720
H         -2.17230       -2.46480       -5.14070
H         -1.14660       -1.45310       -3.16280
H          1.56320       -3.35990        1.15570
H          0.83370       -4.43630        3.22910
H         -3.13110       -4.73510        1.68790
H         -2.40220       -3.67330       -0.39630
H         -0.33570        7.19850       -5.13870
H         -0.27810        5.73560       -6.13260
H          2.17650        5.55420       -5.71570
H          2.11830        7.01400       -4.72800
H          1.77010        7.10560       -6.45790
H          2.75520        5.04130        4.62100
H          3.98920        5.42060        3.41050
H          3.45670        2.64590        4.57880
H          4.68670        3.02510        3.37460
H          4.81200        3.69790        5.00410
H         -1.04510       -5.00980        4.71040
H         -2.68690       -5.14790        4.06470
H         -1.76620       -7.38730        4.63180
H         -0.40840       -7.11600        3.53340
H         -2.04520       -7.25470        2.89180
H         -3.17810       -4.45760       -6.15690
H         -2.80990       -6.07050       -5.52940
H         -1.73690       -5.71500       -7.74400
H         -0.87710       -4.30670       -7.11090
H         -0.51040       -5.91440       -6.48730
H         -8.54490        5.11510        0.73500
H         -7.72510        7.55370        2.03160
H         -3.89920        4.15590        3.62380
H         -2.62740        4.76190        2.52790
H         -3.05460        5.68310        3.98990
H         -5.48490        7.91880        9.14470
H         -6.65760        9.51260        7.44290
H          8.42190       -4.40820       -2.51570
H          7.99030       -7.03920       -2.94510
H          4.57530       -8.12690       -1.84410
H          4.98120       -7.40790       -3.42430
H          3.27600       -7.64600       -2.95790
H          6.98980      -11.55250        2.84840
H          8.16800      -11.68340        0.52210
