148
I-IDTBTRh.sdf
C          0.65250       -0.64820        1.11090
C         -0.56570       -1.34990        1.27640
C         -1.79680       -0.76720        0.98360
C         -1.78230        0.51190        0.47970
C         -0.56060        1.19030        0.25650
C          0.66600        0.62950        0.60320
C          1.83480       -1.50170        1.54300
C          1.14500       -2.80310        1.86180
C         -0.22700       -2.66700        1.71410
C          1.53870       -4.09390        2.19460
C          0.46310       -4.95750        2.30470
S         -1.06290       -4.13490        2.00470
C         -2.96270        1.35700        0.02500
C         -2.24650        2.53020       -0.59800
C         -0.87690        2.41750       -0.40270
C         -2.60140        3.67300       -1.30150
C         -1.49490        4.42530       -1.67110
S          0.00020        3.71470       -1.10120
C          0.48610       -6.36330        2.55300
C         -1.46500        5.60150       -2.47930
C         -3.80860        0.55440       -0.94120
C         -3.78840        1.90040        1.17840
C          2.45010       -0.83680        2.76300
C          2.86800       -1.75010        0.46290
C         -0.67550       -7.12700        2.61420
C         -0.66690       -8.50520        2.77080
C          0.50340       -9.25740        2.86160
C          1.71120       -8.51180        2.86050
C          1.70620       -7.07770        2.71350
C         -2.60640        6.23720       -2.96140
C         -2.54930        7.32890       -3.81670
C         -1.35850        7.88030       -4.29010
C         -0.17040        7.30060       -3.77430
C         -0.22950        6.17870       -2.87600
N          2.94360       -8.98410        3.01070
S          3.99310       -7.77020        2.96150
N          2.93870       -6.57530        2.75440
N          1.08380        7.68110       -3.99440
S          2.08640        6.72910       -3.17660
N          0.98100        5.78330       -2.49230
C          2.05540       -1.17300        4.04720
C          2.58890       -0.53500        5.15480
C          3.53140        0.47330        4.99220
C          3.92090        0.82260        3.69700
C          3.38730        0.17940        2.60300
C          2.60440       -1.52280       -0.87690
C          3.55460       -1.79120       -1.84940
C          4.79260       -2.31040       -1.49050
C          5.05170       -2.56300       -0.14120
C          4.10270       -2.28850        0.81660
C         -3.55950        0.57180       -2.30360
C         -4.30580       -0.19640       -3.18180
C         -5.32360       -1.01310       -2.70250
C         -5.56660       -1.04300       -1.32740
C         -4.81990       -0.27410       -0.46340
C         -5.01050        2.51150        0.91140
C         -5.75930        3.06190        1.92640
C         -5.30540        3.02670        3.24720
C         -4.08100        2.42650        3.51520
C         -3.33490        1.87450        2.48620
O         -6.14520       -1.79270       -3.45610
O         -6.14130        3.58300        4.16520
O          5.80000       -2.60510       -2.35250
O          4.11480        1.19000        5.99080
C          3.87110        0.84890        7.34020
C          5.62150       -2.34880       -3.73130
C         -5.92400       -1.91600       -4.84610
C         -5.73850        3.68800        5.51550
C          0.41150      -10.67990        2.92530
C         -1.41250        8.93850       -5.24570
C          1.34330      -11.65340        2.79940
S          3.06220      -11.55890        2.51140
C          3.19430      -13.34060        2.38500
N          1.96790      -13.90640        2.60140
C          0.90480      -13.06000        2.83540
O          4.21500      -13.92660        2.16140
C          1.79080      -15.34740        2.53460
C          1.60780      -15.81080        1.09520
O         -0.22550      -13.44260        3.03710
C         -0.46030        9.48630       -6.03640
S          1.23740        9.11460       -6.19910
C          1.41700       10.27340       -7.55320
N          0.22260       10.90000       -7.77960
C         -0.85280       10.53010       -6.99930
O          2.44140       10.46580       -8.14360
C          0.08740       11.88130       -8.84320
C         -0.13990       11.20420      -10.18850
O         -1.95890       11.00810       -7.11150
C          4.64340       -0.39080        7.78260
C          6.90820       -2.73530       -4.44330
C         -4.75590       -2.84130       -5.17540
C         -4.74440        4.82260        5.74670
H         -2.71610       -1.31340        1.12840
H          1.58430        1.17330        0.44600
H          2.55030       -4.42270        2.33970
H         -3.61000        3.93800       -1.55930
H         -1.62580       -6.62200        2.51870
H         -1.61260       -9.02640        2.79290
H         -3.57570        5.86440       -2.67060
H         -3.47910        7.75850       -4.16040
H          1.32250       -1.95140        4.20080
H          2.25210       -0.83680        6.13420
H          4.64930        1.60910        3.57810
H          3.71190        0.45800        1.61170
H          1.64660       -1.12630       -1.18020
H          3.31200       -1.59160       -2.88140
H          6.01140       -2.97500        0.12740
H          4.32170       -2.48250        1.85610
H         -2.77090        1.19620       -2.69790
H         -4.07990       -0.14050       -4.23510
H         -6.35630       -1.68070       -0.96270
H         -5.03150       -0.30570        0.59520
H         -5.38080        2.54340       -0.10250
H         -6.71020        3.52960        1.72580
H         -3.68880        2.37450        4.51860
H         -2.38430        1.41770        2.71950
H          2.79610        0.72540        7.52170
H          4.21540        1.72010        7.90490
H          5.40480       -1.28320       -3.89140
H          4.78040       -2.94030       -4.11970
H         -6.85440       -2.34360       -5.23040
H         -5.78370       -0.92990       -5.30610
H         -6.66590        3.89250        6.05820
H         -5.33350        2.73390        5.87490
H         -0.59600      -11.06530        3.05420
H         -2.40170        9.35580       -5.41110
H          0.90560      -15.58130        3.13030
H          2.67590      -15.81170        2.97520
H          1.46440      -16.88730        1.07290
H          0.73670      -15.33210        0.65340
H          2.48780      -15.56230        0.50660
H          1.00340       12.47590       -8.86560
H         -0.76500       12.51130       -8.57940
H         -0.24610       11.95770      -10.96370
H         -1.04490       10.60170      -10.15900
H          0.70560       10.56590      -10.43420
H          5.70770       -0.23630        7.62400
H          4.46660       -0.57560        8.83860
H          4.33540       -1.26460        7.21370
H          7.73780       -2.15450       -4.04980
H          7.11790       -3.78940       -4.28400
H          6.81290       -2.54640       -5.50870
H         -4.66290       -2.94510       -6.25300
H         -4.92980       -3.82160       -4.73910
H         -3.82410       -2.44890       -4.77530
H         -4.51120        4.89560        6.80550
H         -3.82450        4.65320        5.19230
H         -5.17650        5.76310        5.41420
