160
i-IEICO-2Cl.sdf
C         -0.01550        2.33430        0.01450
C          0.71280        1.37180        0.74920
C          0.93650        0.08930        0.25700
C          0.43570       -0.20170       -0.99050
C         -0.26550        0.77200       -1.73860
C         -0.51590        2.04330       -1.23430
C         -0.13250        3.63700        0.79060
C          0.64640        3.29770        2.03580
C          1.11830        1.99950        1.97060
C          1.04330        3.96790        3.19160
C          1.82320        3.17090        4.00430
S          2.06180        1.56890        3.34160
C          0.54930       -1.50270       -1.76940
C         -0.05750       -1.09760       -3.08890
C         -0.57450        0.17770       -3.00540
C         -0.32670       -1.72710       -4.30870
C         -1.07410       -0.93060       -5.14380
S         -1.40790        0.64030       -4.43640
C          2.38760        3.51910        5.26490
C         -1.52850       -1.24450       -6.47150
C          1.99150       -1.94620       -1.82030
C         -0.38450       -2.59030       -1.26230
C          0.54470        4.81730        0.12150
C         -1.60500        3.89780        1.04640
C          1.47180        4.64830       -0.89660
C          2.10320        5.74390       -1.45730
C          1.83630        7.03050       -1.01030
C          0.92010        7.19280        0.02120
C          0.28610        6.10230        0.58410
C         -2.22870        3.42780        2.19350
C         -3.58060        3.63860        2.39420
C         -4.34480        4.31720        1.45510
C         -3.71930        4.77260        0.30150
C         -2.36870        4.56550        0.09690
C          2.52020       -2.71720       -0.79250
C          3.85200       -3.08500       -0.80640
C          4.68910       -2.69440       -1.84360
C          4.15750       -1.91770       -2.86430
C          2.82630       -1.54400       -2.85330
C         -1.45390       -2.30460       -0.42620
C         -2.36470       -3.29140       -0.09380
C         -2.23690       -4.58070       -0.59100
C         -1.15980       -4.86350       -1.42160
C         -0.24640       -3.88280       -1.75520
C          6.14570       -3.05940       -1.83390
C         -3.27120       -5.62750       -0.29220
C         -5.82050        4.50980        1.65590
C          2.48440        8.21910       -1.65980
C         -6.60010        3.34750        1.03780
C          1.65780        8.68780       -2.85910
C          6.96080       -1.98230       -1.11520
C         -4.37690       -5.59520       -1.34970
S         -1.23670       -0.07430       -7.74370
C         -1.76710       -1.16250       -8.93450
C         -2.24520       -2.33610       -8.41040
C         -2.11900       -2.38060       -6.97290
S          1.91450        4.97990        6.08860
C          2.96520        4.64660        7.39270
C          3.61890        3.44930        7.25560
C          3.29920        2.80850        6.01270
O          3.88080        1.65000        5.58420
C          4.97770        1.81000        4.68820
C          6.27000        2.20140        5.39540
C          4.56790        2.90970        8.18870
C          4.63790        1.58810        8.48030
C          3.52370        0.62810        8.23220
C          3.98810       -0.65470        8.80980
C          5.25050       -0.48240        9.40490
C          5.69160        0.89160        9.19820
C          3.32520       -1.86410        8.83780
C          3.95320       -2.92800        9.47470
C          5.19990       -2.77490       10.07360
C          5.85680       -1.55550       10.04510
O          2.42500        0.86370        7.79190
C          6.92020        1.40040        9.52470
C          7.35740        2.70510        9.21180
C          7.92860        0.67290       10.19170
N          8.78620        0.13470       10.73210
N          7.78630        3.74190        8.96800
Cl         3.17580       -4.46360        9.52980
O         -2.49830       -3.51580       -6.34910
C         -2.84110       -3.55460       -4.97130
C         -3.88210       -2.52960       -4.54610
C         -2.70180       -3.42300       -9.23260
C         -3.75820       -4.22900       -8.96810
C         -4.82850       -3.91110       -7.98910
C         -5.75480       -5.06380       -8.03100
C         -5.34030       -5.96580       -9.02680
C         -4.12000       -5.46310       -9.64960
C         -6.88490       -5.27960       -7.26950
C         -7.61060       -6.44030       -7.50950
C         -7.21730       -7.34430       -8.49120
C         -6.08530       -7.11520       -9.25670
O         -4.99360       -2.87680       -7.38460
C         -3.43000       -6.07640      -10.65970
C         -3.82590       -7.28620      -11.27040
C         -2.23600       -5.60000      -11.24300
N         -4.09610       -8.25970      -11.81500
N         -1.26320       -5.28870      -11.76740
Cl        -9.02270       -6.76670       -6.57890
H          1.48900       -0.63600        0.83420
H         -1.06480        2.77010       -1.81320
H          0.79360        4.98300        3.44310
H          0.04860       -2.69200       -4.59900
H          1.70280        3.65670       -1.25740
H          2.81810        5.59420       -2.25410
H          0.70230        8.18530        0.38990
H         -0.42600        6.24810        1.38370
H         -1.65570        2.89700        2.93960
H         -4.04710        3.27240        3.29780
H         -4.29640        5.30020       -0.44470
H         -1.90010        4.93920       -0.80210
H          1.88080       -3.04090        0.01650
H          4.24690       -3.68810       -0.00100
H          4.79280       -1.60220       -3.67990
H          2.43210       -0.93700       -3.65580
H         -1.58230       -1.30590       -0.03540
H         -3.19220       -3.05100        0.55850
H         -1.03850       -5.86230       -1.81670
H          0.58460       -4.12030       -2.40410
H          6.50940       -3.16180       -2.85830
H          6.28490       -4.01520       -1.32460
H         -2.80870       -6.61640       -0.28560
H         -3.70910       -5.44760        0.69150
H         -6.04500        4.56660        2.72290
H         -6.13890        5.44440        1.18940
H          3.48890        7.95510       -1.99690
H          2.56870        9.03540       -0.93960
H         -7.66920        3.48570        1.18240
H         -6.39870        3.28190       -0.02910
H         -6.30520        2.40740        1.49890
H          1.57230        7.89040       -3.59400
H          2.12580        9.54800       -3.33210
H          0.65590        8.96810       -2.54110
H          6.84490       -1.02360       -1.61590
H          6.62080       -1.87360       -0.08760
H          8.01610       -2.24510       -1.10660
H         -4.86190       -4.62140       -1.35920
H         -5.12690       -6.35440       -1.14110
H         -3.96040       -5.77910       -2.33800
H         -1.76830       -0.87270       -9.96680
H          3.00370        5.31470        8.23000
H          5.08620        0.83340        4.21080
H          4.73340        2.55400        3.91950
H          6.17040        3.16790        5.88490
H          6.53260        1.45740        6.14370
H          7.07360        2.26370        4.66690
H          5.26000        3.61060        8.63680
H          2.35690       -1.97010        8.37480
H          5.65670       -3.61830       10.56710
H          6.81820       -1.45830       10.52250
H         -1.94780       -3.46120       -4.34260
H         -3.24290       -4.56540       -4.85270
H         -4.71360       -2.53220       -5.24550
H         -3.46080       -1.52900       -4.51550
H         -4.23860       -2.78400       -3.55180
H         -2.12050       -3.58910      -10.13100
H         -7.18540       -4.57010       -6.51470
H         -7.80510       -8.23340       -8.65720
H         -5.80470       -7.82860      -10.01410
