ICPDT-4F.sdf
  xtb     12202113113D
 energy: -282.319093483981 gnorm: 0.000577611685 xtb: 6.4.1 (unknown)
172188  0     0  0            999 V2000
   -4.2112   -8.4416    3.4291 C   0  0  0  0  0  0  0  0  0  0  0  0
   -5.5294   -8.7952    3.2309 C   0  0  0  0  0  0  0  0  0  0  0  0
   -6.1108  -10.0837    3.5330 C   0  0  0  0  0  0  0  0  0  0  0  0
   -7.5101  -10.0447    3.0998 C   0  0  0  0  0  0  0  0  0  0  0  0
   -7.7838   -8.7710    2.5748 C   0  0  0  0  0  0  0  0  0  0  0  0
   -6.5614   -7.9414    2.6466 C   0  0  0  0  0  0  0  0  0  0  0  0
   -6.4609   -6.7830    2.2821 O   0  0  0  0  0  0  0  0  0  0  0  0
   -5.5037  -11.1620    4.1267 C   0  0  0  0  0  0  0  0  0  0  0  0
   -4.1662  -11.2157    4.5698 C   0  0  0  0  0  0  0  0  0  0  0  0
   -3.0927  -11.3442    4.9591 N   0  0  0  0  0  0  0  0  0  0  0  0
   -6.1501  -12.3880    4.3893 C   0  0  0  0  0  0  0  0  0  0  0  0
   -6.6131  -13.4101    4.6319 N   0  0  0  0  0  0  0  0  0  0  0  0
   -8.5083  -11.0051    3.1311 C   0  0  0  0  0  0  0  0  0  0  0  0
   -9.7582  -10.6623    2.6351 C   0  0  0  0  0  0  0  0  0  0  0  0
  -10.0198   -9.3942    2.1184 C   0  0  0  0  0  0  0  0  0  0  0  0
   -9.0267   -8.4281    2.0829 C   0  0  0  0  0  0  0  0  0  0  0  0
    5.5154    6.5418   -6.1134 C   0  0  0  0  0  0  0  0  0  0  0  0
    5.3430    7.3701   -7.2018 C   0  0  0  0  0  0  0  0  0  0  0  0
    6.4467    7.8634   -8.0038 C   0  0  0  0  0  0  0  0  0  0  0  0
    5.8816    8.5688   -9.1555 C   0  0  0  0  0  0  0  0  0  0  0  0
    4.4841    8.5686   -9.0363 C   0  0  0  0  0  0  0  0  0  0  0  0
    4.0873    7.8470   -7.8057 C   0  0  0  0  0  0  0  0  0  0  0  0
    6.4788    9.1786  -10.2477 C   0  0  0  0  0  0  0  0  0  0  0  0
    5.6556    9.7747  -11.1918 C   0  0  0  0  0  0  0  0  0  0  0  0
    4.2674    9.7734  -11.0606 C   0  0  0  0  0  0  0  0  0  0  0  0
    3.6634    9.1653   -9.9723 C   0  0  0  0  0  0  0  0  0  0  0  0
    2.9418    7.7088   -7.4232 O   0  0  0  0  0  0  0  0  0  0  0  0
    7.7902    7.7474   -7.7513 C   0  0  0  0  0  0  0  0  0  0  0  0
    8.7985    8.2660   -8.5916 C   0  0  0  0  0  0  0  0  0  0  0  0
    8.3878    7.1333   -6.6300 C   0  0  0  0  0  0  0  0  0  0  0  0
    8.9719    6.6689   -5.7561 N   0  0  0  0  0  0  0  0  0  0  0  0
    9.6712    8.6563   -9.2271 N   0  0  0  0  0  0  0  0  0  0  0  0
   -3.5387   -7.2511    3.1604 C   0  0  0  0  0  0  0  0  0  0  0  0
   -4.2301   -5.7755    2.4908 S   0  0  0  0  0  0  0  0  0  0  0  0
   -2.6874   -5.0433    2.5353 C   0  0  0  0  0  0  0  0  0  0  0  0
   -1.6737   -5.8759    3.0497 C   0  0  0  0  0  0  0  0  0  0  0  0
   -2.1557   -7.1135    3.3916 C   0  0  0  0  0  0  0  0  0  0  0  0
   -2.1012   -3.8286    2.1374 C   0  0  0  0  0  0  0  0  0  0  0  0
   -0.7187   -3.8607    2.3779 C   0  0  0  0  0  0  0  0  0  0  0  0
   -0.3305   -5.1845    3.0044 C   0  0  0  0  0  0  0  0  0  0  0  0
   -2.6618   -2.3685    1.4073 S   0  0  0  0  0  0  0  0  0  0  0  0
   -1.0392   -1.7899    1.4191 C   0  0  0  0  0  0  0  0  0  0  0  0
   -0.1140   -2.6753    1.9743 C   0  0  0  0  0  0  0  0  0  0  0  0
   -0.3977   -0.6316    0.8919 C   0  0  0  0  0  0  0  0  0  0  0  0
    0.9895   -0.7949    1.1095 C   0  0  0  0  0  0  0  0  0  0  0  0
    1.2651   -2.0527    1.9258 C   0  0  0  0  0  0  0  0  0  0  0  0
   -0.9138    0.4555    0.1896 C   0  0  0  0  0  0  0  0  0  0  0  0
   -0.0102    1.3403   -0.3472 C   0  0  0  0  0  0  0  0  0  0  0  0
    1.3799    1.1408   -0.1849 C   0  0  0  0  0  0  0  0  0  0  0  0
    1.8932    0.0897    0.5725 C   0  0  0  0  0  0  0  0  0  0  0  0
   -0.2845    2.5744   -1.1991 C   0  0  0  0  0  0  0  0  0  0  0  0
    1.1129    2.9196   -1.6656 C   0  0  0  0  0  0  0  0  0  0  0  0
    2.0343    2.1111   -0.9984 C   0  0  0  0  0  0  0  0  0  0  0  0
    1.7385    3.7793   -2.5614 C   0  0  0  0  0  0  0  0  0  0  0  0
    3.1326    3.6178   -2.5231 C   0  0  0  0  0  0  0  0  0  0  0  0
    3.6788    2.4089   -1.4178 S   0  0  0  0  0  0  0  0  0  0  0  0
    1.3625    4.8364   -3.5782 C   0  0  0  0  0  0  0  0  0  0  0  0
    2.7243    5.2107   -4.1132 C   0  0  0  0  0  0  0  0  0  0  0  0
    3.7320    4.4805   -3.4571 C   0  0  0  0  0  0  0  0  0  0  0  0
    3.2133    6.0164   -5.1166 C   0  0  0  0  0  0  0  0  0  0  0  0
    4.6037    5.9416   -5.2412 C   0  0  0  0  0  0  0  0  0  0  0  0
    5.2930    4.8241   -4.0489 S   0  0  0  0  0  0  0  0  0  0  0  0
    1.7358   -1.5696    3.2892 C   0  0  0  0  0  0  0  0  0  0  0  0
    2.2474   -2.9760    1.2349 C   0  0  0  0  0  0  0  0  0  0  0  0
   -1.1957    2.2690   -2.3698 C   0  0  0  0  0  0  0  0  0  0  0  0
   -0.8489    3.6186   -0.2463 C   0  0  0  0  0  0  0  0  0  0  0  0
    3.1795   -3.7271    1.9385 C   0  0  0  0  0  0  0  0  0  0  0  0
    4.0414   -4.5807    1.2723 C   0  0  0  0  0  0  0  0  0  0  0  0
    3.9879   -4.7179   -0.1076 C   0  0  0  0  0  0  0  0  0  0  0  0
    3.0436   -3.9770   -0.8065 C   0  0  0  0  0  0  0  0  0  0  0  0
    2.1853   -3.1192   -0.1463 C   0  0  0  0  0  0  0  0  0  0  0  0
    3.0392   -1.1124    3.4498 C   0  0  0  0  0  0  0  0  0  0  0  0
    3.4738   -0.6344    4.6709 C   0  0  0  0  0  0  0  0  0  0  0  0
    2.6212   -0.5921    5.7667 C   0  0  0  0  0  0  0  0  0  0  0  0
    1.3145   -1.0269    5.5968 C   0  0  0  0  0  0  0  0  0  0  0  0
    0.8741   -1.5028    4.3751 C   0  0  0  0  0  0  0  0  0  0  0  0
   -2.1366    3.1794   -2.8329 C   0  0  0  0  0  0  0  0  0  0  0  0
   -2.9400    2.8704   -3.9163 C   0  0  0  0  0  0  0  0  0  0  0  0
   -2.8152    1.6558   -4.5764 C   0  0  0  0  0  0  0  0  0  0  0  0
   -1.8608    0.7551   -4.1217 C   0  0  0  0  0  0  0  0  0  0  0  0
   -1.0605    1.0571   -3.0367 C   0  0  0  0  0  0  0  0  0  0  0  0
   -2.1731    3.5309    0.1694 C   0  0  0  0  0  0  0  0  0  0  0  0
   -2.6941    4.4458    1.0636 C   0  0  0  0  0  0  0  0  0  0  0  0
   -1.9099    5.4717    1.5757 C   0  0  0  0  0  0  0  0  0  0  0  0
   -0.5832    5.5433    1.1759 C   0  0  0  0  0  0  0  0  0  0  0  0
   -0.0566    4.6279    0.2826 C   0  0  0  0  0  0  0  0  0  0  0  0
  -10.7348  -11.5776    2.6544 F   0  0  0  0  0  0  0  0  0  0  0  0
  -11.2416   -9.1067    1.6506 F   0  0  0  0  0  0  0  0  0  0  0  0
    3.5111   10.3626  -11.9964 F   0  0  0  0  0  0  0  0  0  0  0  0
    6.2135   10.3640  -12.2565 F   0  0  0  0  0  0  0  0  0  0  0  0
    0.6804    6.0094   -2.8431 C   0  0  0  0  0  0  0  0  0  0  0  0
    0.4858    4.2853   -4.7158 C   0  0  0  0  0  0  0  0  0  0  0  0
    1.0259    2.9882   -5.3055 C   0  0  0  0  0  0  0  0  0  0  0  0
    0.2835    7.1793   -3.7326 C   0  0  0  0  0  0  0  0  0  0  0  0
    0.6480   -5.9914    2.1340 C   0  0  0  0  0  0  0  0  0  0  0  0
    0.2406   -4.9145    4.4120 C   0  0  0  0  0  0  0  0  0  0  0  0
    0.6151   -6.1589    5.2050 C   0  0  0  0  0  0  0  0  0  0  0  0
    0.2160   -6.0727    0.6750 C   0  0  0  0  0  0  0  0  0  0  0  0
    4.8843   -5.6882   -0.8196 C   0  0  0  0  0  0  0  0  0  0  0  0
    4.2024   -7.0534   -0.9321 C   0  0  0  0  0  0  0  0  0  0  0  0
    3.0834   -0.0395    7.0836 C   0  0  0  0  0  0  0  0  0  0  0  0
    2.7877    1.4594    7.1672 C   0  0  0  0  0  0  0  0  0  0  0  0
   -3.7219    1.3061   -5.7199 C   0  0  0  0  0  0  0  0  0  0  0  0
   -4.9942    0.6308   -5.2035 C   0  0  0  0  0  0  0  0  0  0  0  0
   -2.4659    6.4428    2.5762 C   0  0  0  0  0  0  0  0  0  0  0  0
   -2.2317    5.9350    4.0004 C   0  0  0  0  0  0  0  0  0  0  0  0
   -3.5675   -9.2062    3.8466 H   0  0  0  0  0  0  0  0  0  0  0  0
   -8.3593  -11.9995    3.5180 H   0  0  0  0  0  0  0  0  0  0  0  0
   -9.2236   -7.4461    1.6834 H   0  0  0  0  0  0  0  0  0  0  0  0
    6.5420    6.2705   -5.8983 H   0  0  0  0  0  0  0  0  0  0  0  0
    7.5449    9.2077  -10.3993 H   0  0  0  0  0  0  0  0  0  0  0  0
    2.5905    9.1590   -9.8654 H   0  0  0  0  0  0  0  0  0  0  0  0
   -1.5751   -7.9313    3.7801 H   0  0  0  0  0  0  0  0  0  0  0  0
   -1.9775    0.5550    0.0409 H   0  0  0  0  0  0  0  0  0  0  0  0
    2.9589   -0.0366    0.6807 H   0  0  0  0  0  0  0  0  0  0  0  0
    2.6272    6.6340   -5.7713 H   0  0  0  0  0  0  0  0  0  0  0  0
    3.2412   -3.6455    3.0142 H   0  0  0  0  0  0  0  0  0  0  0  0
    4.7638   -5.1521    1.8379 H   0  0  0  0  0  0  0  0  0  0  0  0
    2.9803   -4.0717   -1.8811 H   0  0  0  0  0  0  0  0  0  0  0  0
    1.4581   -2.5509   -0.7094 H   0  0  0  0  0  0  0  0  0  0  0  0
    3.7265   -1.1422    2.6175 H   0  0  0  0  0  0  0  0  0  0  0  0
    4.4932   -0.2912    4.7748 H   0  0  0  0  0  0  0  0  0  0  0  0
    0.6290   -0.9956    6.4316 H   0  0  0  0  0  0  0  0  0  0  0  0
   -0.1511   -1.8258    4.2741 H   0  0  0  0  0  0  0  0  0  0  0  0
   -2.2513    4.1364   -2.3445 H   0  0  0  0  0  0  0  0  0  0  0  0
   -3.6698    3.5907   -4.2577 H   0  0  0  0  0  0  0  0  0  0  0  0
   -1.7409   -0.1939   -4.6243 H   0  0  0  0  0  0  0  0  0  0  0  0
   -0.3227    0.3422   -2.7001 H   0  0  0  0  0  0  0  0  0  0  0  0
   -2.8082    2.7489   -0.2191 H   0  0  0  0  0  0  0  0  0  0  0  0
   -3.7281    4.3629    1.3667 H   0  0  0  0  0  0  0  0  0  0  0  0
    0.0501    6.3272    1.5660 H   0  0  0  0  0  0  0  0  0  0  0  0
    0.9816    4.7086   -0.0020 H   0  0  0  0  0  0  0  0  0  0  0  0
    1.3665    6.3681   -2.0713 H   0  0  0  0  0  0  0  0  0  0  0  0
   -0.2065    5.6186   -2.3405 H   0  0  0  0  0  0  0  0  0  0  0  0
   -0.5215    4.1162   -4.3367 H   0  0  0  0  0  0  0  0  0  0  0  0
    0.4394    5.0382   -5.5029 H   0  0  0  0  0  0  0  0  0  0  0  0
    0.3847    2.6602   -6.1198 H   0  0  0  0  0  0  0  0  0  0  0  0
    2.0322    3.1278   -5.6948 H   0  0  0  0  0  0  0  0  0  0  0  0
    1.0488    2.2007   -4.5559 H   0  0  0  0  0  0  0  0  0  0  0  0
    1.1461    7.5871   -4.2514 H   0  0  0  0  0  0  0  0  0  0  0  0
   -0.4594    6.8820   -4.4670 H   0  0  0  0  0  0  0  0  0  0  0  0
   -0.1461    7.9667   -3.1173 H   0  0  0  0  0  0  0  0  0  0  0  0
    1.6344   -5.5322    2.1914 H   0  0  0  0  0  0  0  0  0  0  0  0
    0.7123   -7.0014    2.5401 H   0  0  0  0  0  0  0  0  0  0  0  0
    1.1208   -4.2787    4.2993 H   0  0  0  0  0  0  0  0  0  0  0  0
   -0.5060   -4.3495    4.9759 H   0  0  0  0  0  0  0  0  0  0  0  0
    0.9864   -5.8619    6.1832 H   0  0  0  0  0  0  0  0  0  0  0  0
    1.3961   -6.7256    4.7062 H   0  0  0  0  0  0  0  0  0  0  0  0
   -0.2483   -6.8011    5.3527 H   0  0  0  0  0  0  0  0  0  0  0  0
    0.9199   -6.6853    0.1173 H   0  0  0  0  0  0  0  0  0  0  0  0
   -0.7733   -6.5168    0.5864 H   0  0  0  0  0  0  0  0  0  0  0  0
    0.1953   -5.0845    0.2222 H   0  0  0  0  0  0  0  0  0  0  0  0
    5.1134   -5.3169   -1.8203 H   0  0  0  0  0  0  0  0  0  0  0  0
    5.8222   -5.7983   -0.2720 H   0  0  0  0  0  0  0  0  0  0  0  0
    3.9698   -7.4429    0.0567 H   0  0  0  0  0  0  0  0  0  0  0  0
    3.2747   -6.9674   -1.4938 H   0  0  0  0  0  0  0  0  0  0  0  0
    4.8513   -7.7622   -1.4408 H   0  0  0  0  0  0  0  0  0  0  0  0
    4.1571   -0.2012    7.1971 H   0  0  0  0  0  0  0  0  0  0  0  0
    2.5717   -0.5527    7.9003 H   0  0  0  0  0  0  0  0  0  0  0  0
    3.2967    1.9907    6.3661 H   0  0  0  0  0  0  0  0  0  0  0  0
    3.1247    1.8606    8.1200 H   0  0  0  0  0  0  0  0  0  0  0  0
    1.7193    1.6404    7.0717 H   0  0  0  0  0  0  0  0  0  0  0  0
   -3.2087    0.6299   -6.4064 H   0  0  0  0  0  0  0  0  0  0  0  0
   -3.9922    2.2106   -6.2684 H   0  0  0  0  0  0  0  0  0  0  0  0
   -5.6521    0.3761   -6.0308 H   0  0  0  0  0  0  0  0  0  0  0  0
   -5.5276    1.2951   -4.5273 H   0  0  0  0  0  0  0  0  0  0  0  0
   -4.7465   -0.2802   -4.6631 H   0  0  0  0  0  0  0  0  0  0  0  0
   -3.5374    6.5717    2.4119 H   0  0  0  0  0  0  0  0  0  0  0  0
   -1.9821    7.4143    2.4571 H   0  0  0  0  0  0  0  0  0  0  0  0
   -1.1673    5.8129    4.1886 H   0  0  0  0  0  0  0  0  0  0  0  0
   -2.7160    4.9715    4.1430 H   0  0  0  0  0  0  0  0  0  0  0  0
   -2.6348    6.6378    4.7255 H   0  0  0  0  0  0  0  0  0  0  0  0
  1  2  2  0  0  0  0
  2  3  1  0  0  0  0
  3  4  1  0  0  0  0
  4  5  2  0  0  0  0
  5  6  1  0  0  0  0
  6  2  1  0  0  0  0
  6  7  2  0  0  0  0
  3  8  2  0  0  0  0
  8  9  1  0  0  0  0
  9 10  3  0  0  0  0
  8 11  1  0  0  0  0
 11 12  3  0  0  0  0
  4 13  1  0  0  0  0
 13 14  2  0  0  0  0
 14 15  1  0  0  0  0
 15 16  2  0  0  0  0
 16  5  1  0  0  0  0
 17 18  2  0  0  0  0
 18 19  1  0  0  0  0
 19 20  1  0  0  0  0
 20 21  2  0  0  0  0
 21 22  1  0  0  0  0
 22 18  1  0  0  0  0
 20 23  1  0  0  0  0
 23 24  2  0  0  0  0
 24 25  1  0  0  0  0
 25 26  2  0  0  0  0
 26 21  1  0  0  0  0
 22 27  2  0  0  0  0
 19 28  2  0  0  0  0
 28 29  1  0  0  0  0
 28 30  1  0  0  0  0
 30 31  3  0  0  0  0
 29 32  3  0  0  0  0
  1 33  1  0  0  0  0
 33 34  1  0  0  0  0
 34 35  1  0  0  0  0
 35 36  2  0  0  0  0
 36 37  1  0  0  0  0
 37 33  2  0  0  0  0
 35 38  1  0  0  0  0
 38 39  2  0  0  0  0
 39 40  1  0  0  0  0
 40 36  1  0  0  0  0
 38 41  1  0  0  0  0
 41 42  1  0  0  0  0
 42 43  2  0  0  0  0
 43 39  1  0  0  0  0
 42 44  1  0  0  0  0
 44 45  2  0  0  0  0
 45 46  1  0  0  0  0
 46 43  1  0  0  0  0
 44 47  1  0  0  0  0
 47 48  2  0  0  0  0
 48 49  1  0  0  0  0
 49 50  2  0  0  0  0
 50 45  1  0  0  0  0
 48 51  1  0  0  0  0
 51 52  1  0  0  0  0
 52 53  2  0  0  0  0
 53 49  1  0  0  0  0
 52 54  1  0  0  0  0
 54 55  2  0  0  0  0
 55 56  1  0  0  0  0
 56 53  1  0  0  0  0
 54 57  1  0  0  0  0
 57 58  1  0  0  0  0
 58 59  2  0  0  0  0
 59 55  1  0  0  0  0
 58 60  1  0  0  0  0
 60 61  2  0  0  0  0
 61 62  1  0  0  0  0
 62 59  1  0  0  0  0
 61 17  1  0  0  0  0
 46 63  1  0  0  0  0
 46 64  1  0  0  0  0
 51 65  1  0  0  0  0
 51 66  1  0  0  0  0
 64 67  2  0  0  0  0
 67 68  1  0  0  0  0
 68 69  2  0  0  0  0
 69 70  1  0  0  0  0
 70 71  2  0  0  0  0
 71 64  1  0  0  0  0
 63 72  2  0  0  0  0
 72 73  1  0  0  0  0
 73 74  2  0  0  0  0
 74 75  1  0  0  0  0
 75 76  2  0  0  0  0
 76 63  1  0  0  0  0
 65 77  2  0  0  0  0
 77 78  1  0  0  0  0
 78 79  2  0  0  0  0
 79 80  1  0  0  0  0
 80 81  2  0  0  0  0
 81 65  1  0  0  0  0
 66 82  2  0  0  0  0
 82 83  1  0  0  0  0
 83 84  2  0  0  0  0
 84 85  1  0  0  0  0
 85 86  2  0  0  0  0
 86 66  1  0  0  0  0
 14 87  1  0  0  0  0
 15 88  1  0  0  0  0
 25 89  1  0  0  0  0
 24 90  1  0  0  0  0
 57 91  1  0  0  0  0
 57 92  1  0  0  0  0
 92 93  1  0  0  0  0
 91 94  1  0  0  0  0
 40 95  1  0  0  0  0
 40 96  1  0  0  0  0
 96 97  1  0  0  0  0
 95 98  1  0  0  0  0
 69 99  1  0  0  0  0
 99100  1  0  0  0  0
 74101  1  0  0  0  0
101102  1  0  0  0  0
 79103  1  0  0  0  0
103104  1  0  0  0  0
 84105  1  0  0  0  0
105106  1  0  0  0  0
  1107  1  0  0  0  0
 13108  1  0  0  0  0
 16109  1  0  0  0  0
 17110  1  0  0  0  0
 23111  1  0  0  0  0
 26112  1  0  0  0  0
 37113  1  0  0  0  0
 47114  1  0  0  0  0
 50115  1  0  0  0  0
 60116  1  0  0  0  0
 67117  1  0  0  0  0
 68118  1  0  0  0  0
 70119  1  0  0  0  0
 71120  1  0  0  0  0
 72121  1  0  0  0  0
 73122  1  0  0  0  0
 75123  1  0  0  0  0
 76124  1  0  0  0  0
 77125  1  0  0  0  0
 78126  1  0  0  0  0
 80127  1  0  0  0  0
 81128  1  0  0  0  0
 82129  1  0  0  0  0
 83130  1  0  0  0  0
 85131  1  0  0  0  0
 86132  1  0  0  0  0
 91133  1  0  0  0  0
 91134  1  0  0  0  0
 92135  1  0  0  0  0
 92136  1  0  0  0  0
 93137  1  0  0  0  0
 93138  1  0  0  0  0
 93139  1  0  0  0  0
 94140  1  0  0  0  0
 94141  1  0  0  0  0
 94142  1  0  0  0  0
 95143  1  0  0  0  0
 95144  1  0  0  0  0
 96145  1  0  0  0  0
 96146  1  0  0  0  0
 97147  1  0  0  0  0
 97148  1  0  0  0  0
 97149  1  0  0  0  0
 98150  1  0  0  0  0
 98151  1  0  0  0  0
 98152  1  0  0  0  0
 99153  1  0  0  0  0
 99154  1  0  0  0  0
100155  1  0  0  0  0
100156  1  0  0  0  0
100157  1  0  0  0  0
101158  1  0  0  0  0
101159  1  0  0  0  0
102160  1  0  0  0  0
102161  1  0  0  0  0
102162  1  0  0  0  0
103163  1  0  0  0  0
103164  1  0  0  0  0
104165  1  0  0  0  0
104166  1  0  0  0  0
104167  1  0  0  0  0
105168  1  0  0  0  0
105169  1  0  0  0  0
106170  1  0  0  0  0
106171  1  0  0  0  0
106172  1  0  0  0  0
M  END
