202
IDBDT-T.sdf
C          6.09350       -9.41130        0.85050
C          6.51690      -10.26410        1.83360
C          7.42470      -11.37600        1.58640
C          7.76760      -11.96910        2.87780
C          7.05300      -11.29940        3.88350
C          6.22500      -10.23340        3.28670
O          5.46960       -9.50940        3.90270
C          7.87000      -11.83960        0.37630
C          7.53160      -11.34190       -0.90110
N          7.31560      -11.03130       -1.98600
C          8.74410      -12.93770        0.22260
N          9.45250      -13.81670        0.01380
C          8.62010      -13.00720        3.22270
C          8.73440      -13.35480        4.56230
C          8.01910      -12.69090        5.54860
C          7.16630      -11.64900        5.21490
C         -5.41610        9.09020       -1.39810
C         -6.14220        9.88020       -0.55040
C         -6.81770       11.11120       -0.91860
C         -7.43080       11.65460        0.29310
C         -7.16420       10.78630        1.36590
C         -6.36000        9.64540        0.88870
C         -8.17210       12.80510        0.51490
C         -8.63150       13.06120        1.80030
C         -8.36530       12.19670        2.85240
C         -7.62330       11.04310        2.64270
O         -5.96600        8.71300        1.56090
C         -6.89490       11.67940       -2.16390
C         -7.57830       12.88150       -2.44570
C         -6.32350       11.16980       -3.34900
N         -5.90540       10.82940       -4.36380
N         -8.10830       13.85350       -2.74980
C          5.24460       -8.28480        0.87610
S          5.01200       -7.45570       -0.66520
C          3.94870       -6.30320        0.07700
C          3.80800       -6.54870        1.46770
C          4.53380       -7.67760        1.88560
C          3.29000       -5.28920       -0.60450
C          2.44560       -4.45840        0.15110
C          2.32490       -4.68730        1.55690
C          2.97870       -5.70300        2.23900
C          1.69340       -3.31710       -0.22810
C          1.08230       -2.70210        0.83790
S          1.32580       -3.48520        2.35350
C          1.36860       -2.56730       -1.50220
C          0.66780       -1.33230       -0.93540
C          0.44430       -1.48230        0.44930
C          2.62280       -2.14780       -2.24500
C          0.33270       -3.31860       -2.32820
C          0.27230       -0.18240       -1.57750
C         -0.37740        0.78050       -0.81180
C         -0.62140        0.62070        0.56780
C         -0.21070       -0.52240        1.21340
C         -0.95720        2.03120       -1.19050
C         -1.55230        2.66170       -0.12490
C         -1.32150        1.85380        1.13600
C         -0.33180        2.52970        2.07050
C         -2.65220        1.46630        1.75700
S         -1.11450        2.85670       -2.69470
C         -2.04990        4.10720       -1.89460
C         -2.22010        3.85900       -0.49480
C         -2.60790        5.18050       -2.57100
C         -3.39710        6.06730       -1.80040
C         -3.59150        5.81050       -0.41970
C         -3.02310        4.73560        0.25210
C         -4.03410        7.25240       -2.18900
C         -4.71860        7.88860       -1.16670
S         -4.58420        7.01640        0.34700
C         -0.22980       -2.73870       -3.46070
C         -1.18550       -3.40540       -4.20360
C         -1.62640       -4.66920       -3.83590
C         -1.09050       -5.23490       -2.68850
C         -0.12980       -4.57190       -1.94570
C          2.80520       -2.29910       -3.61020
C          3.96080       -1.84050       -4.21780
C          4.97520       -1.24810       -3.48170
C          4.79280       -1.10510       -2.11180
C          3.63190       -1.53840       -1.50480
C          0.00080        1.95370        3.29180
C          0.88610        2.57580        4.15130
C          1.48700        3.78000        3.81150
C          1.19840        4.32520        2.56960
C          0.30730        3.70940        1.71070
C         -3.57390        0.81130        0.94410
C         -4.81160        0.44900        1.43040
C         -5.17660        0.71810        2.74720
C         -4.25250        1.36040        3.55430
C         -3.01090        1.73380        3.06620
C          2.37170        4.50330        4.78440
C          1.53080        5.44180        5.65280
C         -6.55220        0.31870        3.21350
C         -6.79130        0.42980        4.71370
C         -2.69240       -5.37680       -4.62100
C         -4.07820       -5.03520       -4.06990
C          6.21940       -0.73540       -4.14760
C          6.06810        0.74550       -4.50020
C          3.55370       -5.15050       -2.03510
C          2.78560       -5.50430       -3.10020
C          3.46810       -5.40030       -4.33070
C          4.75590       -4.98010       -4.20650
S          5.15220       -4.68950       -2.54780
C          5.75730       -4.76280       -5.29230
C          7.19200       -4.75880       -4.78040
C         -2.40380        5.36980       -3.99150
C         -1.25960        5.18130       -4.71740
C         -1.42080        5.44350       -6.09090
C         -2.68680        5.81430       -6.42910
S         -3.71060        5.86190       -5.03470
C         -3.21740        6.20640       -7.76410
C         -3.45550        7.71640       -7.84120
C         -3.34420        4.61650        1.67280
C         -4.58000        4.39390        2.20080
C         -4.61550        4.52380        3.60450
C         -3.41830        4.87540        4.14260
S         -2.20930        5.04750        2.91270
C         -3.06870        5.12010        5.57040
C         -2.75820        6.59570        5.82340
C          2.83340       -5.86600        3.67000
C          1.69630       -5.74720        4.42260
C          1.91850       -5.94300        5.79760
C          3.22120       -6.19810        6.10530
S          4.20560       -6.20980        4.68480
C          3.83200       -6.41540        7.44630
C          4.61680       -5.18410        7.90430
H          6.48260       -9.60910       -0.14160
H          9.19120      -13.54140        2.48190
H          9.39670      -14.16160        4.83820
H          8.12930      -12.98780        6.58080
H          6.60030      -11.11550        5.96310
H         -5.34490        9.41950       -2.42790
H         -8.39490       13.49670       -0.28070
H         -9.20880       13.95560        1.98060
H         -8.73800       12.42520        3.83950
H         -7.40200       10.35560        3.44460
H          4.53780       -8.05600        2.89050
H          0.46380        0.00070       -2.62300
H         -0.37710       -0.69280        2.26470
H         -3.99940        7.66040       -3.18330
H          0.07440       -1.75330       -3.77460
H         -1.59630       -2.93280       -5.08480
H         -1.42360       -6.21280       -2.36950
H          0.25980       -5.05070       -1.06030
H          2.05830       -2.79200       -4.21210
H          4.07190       -1.95500       -5.28690
H          5.56940       -0.64950       -1.51430
H          3.50520       -1.40720       -0.43920
H         -0.44170        1.01560        3.58850
H          1.11230        2.11620        5.10340
H          1.66770        5.25130        2.27040
H          0.10070        4.17220        0.75780
H         -3.31620        0.58580       -0.08140
H         -5.51330       -0.05210        0.77800
H         -4.48770        1.59100        4.58110
H         -2.33470        2.25680        3.72340
H          3.12010        5.08660        4.24440
H          2.89110        3.78670        5.42380
H          0.79510        4.87480        6.21890
H          2.16230        5.98600        6.35130
H          1.00170        6.15810        5.02840
H         -6.73470       -0.71280        2.89800
H         -7.28270        0.94390        2.68940
H         -6.72310        1.46330        5.04470
H         -6.06550       -0.16450        5.26440
H         -7.78680        0.06370        4.95570
H         -2.63910       -5.07880       -5.67010
H         -2.53900       -6.45640       -4.56370
H         -4.15420       -5.33330       -3.02650
H         -4.85070       -5.55040       -4.63610
H         -4.25660       -3.96400       -4.13250
H          6.41480       -1.30350       -5.05930
H          7.07310       -0.86040       -3.47830
H          6.96780        1.11560       -4.98650
H          5.22510        0.88950       -5.17250
H          5.89180        1.33230       -3.60150
H          1.77100       -5.84760       -3.01170
H          3.01590       -5.64470       -5.27590
H          5.54920       -3.80810       -5.78630
H          5.63030       -5.54920       -6.04160
H          7.88820       -4.61940       -5.60410
H          7.33390       -3.95190       -4.06440
H          7.42090       -5.70030       -4.28700
H         -0.31930        4.90360       -4.27650
H         -0.62230        5.35710       -6.80640
H         -4.15930        5.68580       -7.95430
H         -2.49880        5.90620       -8.52970
H         -3.83240        7.98810       -8.82370
H         -4.18270        8.02400       -7.09340
H         -2.52780        8.25540       -7.66300
H         -5.43070        4.12110        1.60230
H         -5.50420        4.36640        4.18940
H         -3.90720        4.80620        6.19600
H         -2.19540        4.51990        5.84160
H         -2.51870        6.75950        6.87130
H         -1.91030        6.90790        5.21840
H         -3.61480        7.21100        5.55880
H          0.72390       -5.56690        4.00060
H          1.13650       -5.90080        6.53510
H          4.50540       -7.27480        7.40560
H          3.03830       -6.63370        8.16410
H          3.96300       -4.31630        7.95530
H          5.04670       -5.35490        8.88810
H          5.42160       -4.96970        7.20470
