132
IDF-4F.sdf
C         -2.15480        5.70120        1.04620
C         -1.30890        6.31490        1.93240
C         -1.43760        7.69380        2.36670
C         -0.43240        7.92880        3.40330
C          0.32150        6.75800        3.57480
C         -0.17250        5.69950        2.65990
C         -0.15010        9.04920        4.17060
C          0.88460        8.96560        5.08980
C          1.63090        7.79760        5.25010
C          1.35320        6.67430        4.48860
F          2.62240        7.76220        6.14900
F          1.17040       10.03460        5.84180
O          0.27670        4.58040        2.57380
C         -2.30490        8.64200        1.88930
C         -2.35910        9.97250        2.35840
C         -3.25430        8.46100        0.86100
N         -2.45880       11.06580        2.69260
N         -4.04680        8.41520        0.03070
C         -2.13830        4.39580        0.52860
O         -1.15750        3.48640        0.78510
C         -1.48820        2.38580        0.13060
C         -2.68540        2.53950       -0.57390
C         -3.10960        3.83330       -0.32220
C          0.49880       -6.13770       -1.81800
C          1.26690       -7.27330       -1.80920
C          0.86440       -8.52950       -2.41820
C          1.97550       -9.47050       -2.27170
C          3.01480       -8.83510       -1.57470
C          2.62130       -7.44660       -1.24480
C          2.12890      -10.78420       -2.68850
C          3.32210      -11.42650       -2.39400
C          4.34860      -10.78600       -1.69890
C          4.20310       -9.47390       -1.27990
F          5.48330      -11.44550       -1.43630
F          3.48950      -12.69330       -2.78970
O          3.30680       -6.64810       -0.64280
C         -0.33560       -8.82960       -3.00840
C         -1.44600       -7.96840       -3.14530
C         -0.64740      -10.08630       -3.57200
N         -2.40330       -7.35330       -3.30140
N         -0.97180      -11.08030       -4.04510
C         -0.95110        1.07660       -0.04540
C         -1.87420        0.37870       -0.86740
C         -3.05180        1.25940       -1.27010
C          0.21910        0.48780        0.42930
C          0.44850       -0.82330        0.08230
C         -0.47240       -1.52080       -0.74340
C         -1.63490       -0.92570       -1.23100
C          1.64520       -1.69130        0.45170
C          1.28800       -2.96530       -0.25880
C          0.06380       -2.83100       -0.91450
C         -4.39420        0.79710       -0.73080
C         -3.06640        1.36250       -2.78570
C          2.89960       -1.01830       -0.08080
C          1.77470       -1.99260        1.93470
C         -3.75350        0.42020       -3.54040
C         -3.74230        0.48500       -4.92060
C         -3.04520        1.48740       -5.58310
C         -2.34920        2.41810       -4.82360
C         -2.35480        2.35640       -3.44230
C         -4.50900       -0.19860        0.22690
C         -5.75340       -0.55690        0.71540
C         -6.90640        0.07530        0.27190
C         -6.78300        1.08100       -0.67930
C         -5.54450        1.44130       -1.17190
C          0.79480       -1.65690        2.85570
C          0.95320       -1.98240        4.19160
C          2.08100       -2.65800        4.63570
C          3.05320       -3.00290        3.70430
C          2.90250       -2.67880        2.37090
C          3.56280       -0.07610        0.69500
C          4.68220        0.57010        0.20660
C          5.16480        0.29860       -1.06730
C          4.49320       -0.63870       -1.84030
C          3.37060       -1.28610       -1.35800
C         -3.00340        1.53220       -7.08290
C         -1.84200        0.68670       -7.60990
C         -8.25760       -0.34770        0.77030
C         -8.83700       -1.44570       -0.12430
C          6.41160        0.96320       -1.57460
C          7.64580        0.14540       -1.18820
C          2.27090       -2.96510        6.09280
C          2.99900       -1.81360        6.78950
C          1.70760       -4.26840       -0.47710
C          0.71200       -4.86460       -1.26610
O         -0.29250       -3.95360       -1.52070
H         -2.98940        6.27940        0.67280
H         -0.69620        9.97430        4.08870
H          1.92490        5.76800        4.60910
H         -3.98420        4.33820       -0.67920
H         -0.45060       -6.19170       -2.33710
H          1.37020      -11.32550       -3.22890
H          4.99260       -8.97260       -0.74300
H          0.90300        1.04960        1.04540
H         -2.31280       -1.47680       -1.86350
H         -4.31350       -0.35970       -3.04530
H         -4.28760       -0.25210       -5.49230
H         -1.79730        3.20470       -5.31790
H         -1.80430        3.09240       -2.87430
H         -3.62710       -0.70160        0.59560
H         -5.82630       -1.33900        1.45760
H         -7.66730        1.58980       -1.03520
H         -5.46500        2.22350       -1.91280
H         -0.09620       -1.13640        2.53680
H          0.18320       -1.70810        4.89870
H          3.93660       -3.53440        4.02740
H          3.66720       -2.95200        1.65890
H          3.20920        0.14390        1.69170
H          5.18810        1.29830        0.82420
H          4.85050       -0.86460       -2.83490
H          2.86370       -2.00820       -1.98140
H         -2.87930        2.56330       -7.41930
H         -3.94070        1.14930       -7.49120
H         -0.89640        1.05900       -7.22200
H         -1.95540       -0.34900       -7.29760
H         -1.80970        0.72070       -8.69630
H         -8.17510       -0.72260        1.79240
H         -8.93530        0.50830        0.77330
H         -9.81620       -1.75170        0.23590
H         -8.18200       -2.31400       -0.13040
H         -8.93910       -1.08690       -1.14600
H          6.49640        1.96520       -1.14950
H          6.36670        1.05500       -2.66160
H          7.58500       -0.85430       -1.61240
H          8.55010        0.62460       -1.55560
H          7.71540        0.05400       -0.10660
H          2.85540       -3.88030        6.20490
H          1.30060       -3.11800        6.56940
H          3.97450       -1.65340        6.33570
H          3.13880       -2.03500        7.84490
H          2.42510       -0.89390        6.70010
H          2.59720       -4.75680       -0.13860
