92
IDIC8-F.sdf
C          4.30160       -3.62760        3.27900
C          5.48650       -4.13850        2.80880
C          6.38330       -5.00720        3.54460
C          7.51900       -5.30540        2.66870
C          7.32880       -4.64900        1.44020
C          6.05890       -3.90000        1.47880
C          8.65020       -6.07920        2.86710
C          9.55320       -6.16460        1.81550
C          9.37540       -5.52090        0.60000
C          8.24160       -4.74750        0.40750
O          5.59500       -3.22390        0.57810
C          6.22460       -5.49270        4.81630
C          7.14580       -6.34740        5.45960
C          5.13490       -5.23000        5.67310
N          7.84460       -7.04500        6.04460
N          4.28690       -5.06840        6.43110
C          3.34150       -2.82160        2.65570
S          3.39440       -2.20450        1.01070
C          1.86740       -1.47590        1.23980
C          1.33450       -1.67800        2.51510
C          2.16190       -2.43520        3.31290
C         -4.49560        3.75400       -3.20800
C         -4.85950        4.19760       -4.45460
C         -6.02680        5.02660       -4.69770
C         -6.26440        5.05010       -6.14030
C         -5.23110        4.34190       -6.77540
C         -4.29050        3.81530       -5.76580
C         -7.27440        5.62250       -6.89560
C         -7.20450        5.46080       -8.27270
C         -6.18610        4.76820       -8.91120
C         -5.18000        4.19680       -8.14900
O         -3.28490        3.17890       -6.00810
C         -6.74690        5.73380       -3.77130
C         -7.86760        6.53290       -4.08440
C         -6.46620        5.81070       -2.38990
N         -8.78570        7.19710       -4.26590
N         -6.30090        5.94760       -1.26160
C          0.96790       -0.69630        0.45190
C         -0.16330       -0.40930        1.25670
C         -0.03290       -1.05370        2.62450
C          1.09030       -0.23170       -0.85610
C          0.06160        0.53070       -1.35610
C         -1.06010        0.83280       -0.54790
C         -1.17670        0.38100        0.76580
C         -0.08080        1.13410       -2.74220
C         -1.40790        1.83100       -2.61680
C         -1.93810        1.62990       -1.34140
C         -0.11230       -0.02120        3.75930
C         -1.04370       -2.20740        2.82780
C         -0.13130       -0.02030       -3.76790
C          1.05340        2.12470       -3.05400
C         -2.21780        2.60780       -3.42470
C         -3.39600        2.98970       -2.78650
S         -3.44830        2.39200       -1.12470
F         10.65600       -6.91080        1.98600
F         -8.17580        6.00160       -9.02540
C         -2.51550       -1.81910        2.79440
C         -0.37100        0.40310       -5.21120
C          0.96970        1.04730        3.65270
C          1.21090        3.19480       -1.97950
H          4.03450       -3.88610        4.29650
H          8.85400       -6.60670        3.78400
H         10.12010       -5.63350       -0.17180
H          8.06530       -4.23010       -0.52240
H          1.96180       -2.72290        4.32990
H         -5.17990        3.99560       -2.40260
H         -8.09670        6.17030       -6.46640
H         -6.19660        4.68520       -9.98630
H         -4.37100        3.64830       -8.60560
H          1.97020       -0.46620       -1.43510
H         -2.03340        0.66130        1.35810
H         -1.09010        0.46040        3.73420
H         -0.01560       -0.54370        4.71310
H         -0.81810       -2.67090        3.79070
H         -0.86090       -2.95450        2.05090
H          0.81380       -0.56380       -3.70550
H         -0.92640       -0.70540       -3.46170
H          1.98690        1.56790       -3.15300
H          0.84090        2.60890       -4.00730
H         -1.99580        2.90840       -4.43050
H         -2.74420       -1.06020        3.53740
H         -3.12030       -2.69620        3.01390
H         -2.80040       -1.45290        1.81220
H         -0.40050       -0.48220       -5.84250
H          0.42700        1.04550       -5.57280
H         -1.31740        0.92460       -5.31850
H          0.88960        1.58260        2.70890
H          1.96060        0.60300        3.71200
H          0.86690        1.76390        4.46380
H          0.29350        3.76910       -1.86960
H          2.01070        3.87940       -2.25120
H          1.45360        2.74800       -1.01780
