118
IDT-OB.sdf
C          3.52510        3.02850       -4.71090
C          4.36370        4.04810       -4.33900
C          5.18380        4.83960       -5.23510
C          5.96770        5.76030       -4.41070
C          5.62920        5.55940       -3.06080
C          4.61480        4.49900       -2.96290
C          6.91680        6.70990       -4.74450
C          7.52530        7.45480       -3.73370
C          7.17290        7.24140       -2.40340
C          6.22330        6.29410       -2.05380
O          4.09520        4.08580       -1.94070
C          5.23820        4.76520       -6.60320
C          4.48790        3.89090       -7.41660
C          6.06950        5.57220       -7.40830
N          3.91960        3.21700       -8.15390
N          6.71880        6.19070       -8.12540
C          2.72830        2.17190       -3.93880
S          2.53550        2.20680       -2.19280
C          1.51030        0.84310       -2.28360
C          1.31920        0.37330       -3.58330
C          1.99460        1.12570       -4.51800
C         -3.20630       -5.15360        3.13670
C         -3.35940       -5.56010        4.43630
C         -4.12560       -6.73680        4.81500
C         -3.83380       -7.02590        6.21720
C         -3.01260       -6.00460        6.72200
C         -2.71440       -5.02810        5.66050
C         -4.21880       -8.06840        7.04210
C         -3.79140       -8.08360        8.36930
C         -2.98680       -7.05410        8.85350
C         -2.58870       -6.00820        8.03690
O         -2.06080       -4.01320        5.80180
C         -5.01780       -7.43190        4.04100
C         -5.39450       -7.11890        2.71730
C         -5.73450       -8.56310        4.48580
N         -5.77810       -6.93250        1.65050
N         -6.34720       -9.48970        4.77650
C          0.80260        0.02010       -1.35610
C          0.15020       -0.99470       -2.09850
C          0.45300       -0.86480       -3.58090
C          0.69410        0.12020        0.02960
C         -0.05700       -0.83110        0.68130
C         -0.71530       -1.84090       -0.06370
C         -0.63330       -1.92320       -1.45240
C         -0.32080       -0.99000        2.16800
C         -1.20320       -2.21530        2.17120
C         -1.40960       -2.66650        0.87040
C         -0.77890       -0.62320       -4.43280
C          1.31240       -2.05600       -4.06730
C          0.98110       -1.31650        2.93800
C         -1.08910        0.16950        2.77880
C         -1.97500       -0.21480       -3.85600
C         -3.08590        0.04650       -4.63670
C         -3.03650       -0.08320       -6.01740
C         -1.83450       -0.46930       -6.59480
C         -0.72220       -0.73150       -5.81760
C         -1.65110        1.16430        1.98960
C         -2.38170        2.19130        2.55950
C         -2.58050        2.25330        3.93100
C         -2.03500        1.24650        4.71670
C         -1.30410        0.21900        4.15190
C         -4.23070        0.24190       -6.86690
C         -4.21970        1.72110       -7.25830
C         -3.41000        3.34500        4.54250
C         -4.87730        2.91920        4.62460
C         -1.81270       -3.00360        3.13030
C         -2.49000       -4.08340        2.57270
S         -2.37740       -4.07060        0.80820
C          8.53850        8.49480       -4.09240
C         -4.17960       -9.22050        9.26020
C          0.55710       -3.37300       -4.18570
C          1.91150       -0.12800        3.14010
H          3.46720        2.81080       -5.77070
H          7.20030        6.88600       -5.76950
H          7.65270        7.82610       -1.63200
H          5.94870        6.12290       -1.02430
H          1.98900        0.95920       -5.58060
H         -3.67830       -5.78160        2.38960
H         -4.83780       -8.87300        6.67940
H         -2.66810       -7.07770        9.88540
H         -1.96290       -5.21010        8.40590
H          1.17330        0.93460        0.54900
H         -1.18790       -2.68070       -1.98340
H          2.14550       -2.17370       -3.36950
H          1.73940       -1.79560       -5.03660
H          1.50580       -2.10490        2.39210
H          0.70500       -1.72520        3.91080
H         -2.04570       -0.09710       -2.78480
H         -4.00650        0.35540       -4.16230
H         -1.76660       -0.56720       -7.66890
H          0.19400       -1.02500       -6.30600
H         -1.52290        1.14430        0.91780
H         -2.80320        2.95720        1.92390
H         -2.18430        1.26560        5.78690
H         -0.90220       -0.54810        4.79500
H         -5.14760        0.02200       -6.31640
H         -4.21960       -0.36940       -7.77150
H         -5.08490        1.95890       -7.87270
H         -3.31880        1.95730       -7.82010
H         -4.24150        2.34760       -6.36930
H         -3.33180        4.25130        3.93870
H         -3.04440        3.57020        5.54640
H         -5.26400        2.70150        3.63150
H         -5.47920        3.70980        5.06650
H         -4.97790        2.02360        5.23350
H         -1.78300       -2.83990        4.19080
H          9.22260        8.67620       -3.26710
H          8.03460        9.43300       -4.32690
H          9.10690        8.19490       -4.96950
H         -5.12760       -9.65160        8.94850
H         -4.25620       -8.89680       10.29530
H         -3.42180      -10.00310        9.20780
H         -0.36330       -3.24110       -4.74970
H          0.31490       -3.77470       -3.20630
H          1.17580       -4.10290       -4.70320
H          2.37590        0.17330        2.20580
H          2.70330       -0.40070        3.83430
H          1.36950        0.71970        3.55300
