IDT-OB.sdf
  xtb     12202114083D
 energy: -186.690762402206 gnorm: 0.000299443562 xtb: 6.4.1 (unknown)
118128  0     0  0            999 V2000
    3.5251    3.0285   -4.7109 C   0  0  0  0  0  0  0  0  0  0  0  0
    4.3637    4.0481   -4.3390 C   0  0  0  0  0  0  0  0  0  0  0  0
    5.1838    4.8396   -5.2351 C   0  0  0  0  0  0  0  0  0  0  0  0
    5.9677    5.7603   -4.4107 C   0  0  0  0  0  0  0  0  0  0  0  0
    5.6292    5.5594   -3.0608 C   0  0  0  0  0  0  0  0  0  0  0  0
    4.6148    4.4990   -2.9629 C   0  0  0  0  0  0  0  0  0  0  0  0
    6.9168    6.7099   -4.7445 C   0  0  0  0  0  0  0  0  0  0  0  0
    7.5253    7.4548   -3.7337 C   0  0  0  0  0  0  0  0  0  0  0  0
    7.1729    7.2414   -2.4034 C   0  0  0  0  0  0  0  0  0  0  0  0
    6.2233    6.2941   -2.0538 C   0  0  0  0  0  0  0  0  0  0  0  0
    4.0952    4.0858   -1.9407 O   0  0  0  0  0  0  0  0  0  0  0  0
    5.2382    4.7652   -6.6032 C   0  0  0  0  0  0  0  0  0  0  0  0
    4.4879    3.8909   -7.4166 C   0  0  0  0  0  0  0  0  0  0  0  0
    6.0695    5.5722   -7.4083 C   0  0  0  0  0  0  0  0  0  0  0  0
    3.9196    3.2170   -8.1539 N   0  0  0  0  0  0  0  0  0  0  0  0
    6.7188    6.1907   -8.1254 N   0  0  0  0  0  0  0  0  0  0  0  0
    2.7283    2.1719   -3.9388 C   0  0  0  0  0  0  0  0  0  0  0  0
    2.5355    2.2068   -2.1928 S   0  0  0  0  0  0  0  0  0  0  0  0
    1.5103    0.8431   -2.2836 C   0  0  0  0  0  0  0  0  0  0  0  0
    1.3192    0.3733   -3.5833 C   0  0  0  0  0  0  0  0  0  0  0  0
    1.9946    1.1257   -4.5180 C   0  0  0  0  0  0  0  0  0  0  0  0
   -3.2063   -5.1536    3.1367 C   0  0  0  0  0  0  0  0  0  0  0  0
   -3.3594   -5.5601    4.4363 C   0  0  0  0  0  0  0  0  0  0  0  0
   -4.1256   -6.7368    4.8150 C   0  0  0  0  0  0  0  0  0  0  0  0
   -3.8338   -7.0259    6.2172 C   0  0  0  0  0  0  0  0  0  0  0  0
   -3.0126   -6.0046    6.7220 C   0  0  0  0  0  0  0  0  0  0  0  0
   -2.7144   -5.0281    5.6605 C   0  0  0  0  0  0  0  0  0  0  0  0
   -4.2188   -8.0684    7.0421 C   0  0  0  0  0  0  0  0  0  0  0  0
   -3.7914   -8.0836    8.3693 C   0  0  0  0  0  0  0  0  0  0  0  0
   -2.9868   -7.0541    8.8535 C   0  0  0  0  0  0  0  0  0  0  0  0
   -2.5887   -6.0082    8.0369 C   0  0  0  0  0  0  0  0  0  0  0  0
   -2.0608   -4.0132    5.8018 O   0  0  0  0  0  0  0  0  0  0  0  0
   -5.0178   -7.4319    4.0410 C   0  0  0  0  0  0  0  0  0  0  0  0
   -5.3945   -7.1189    2.7173 C   0  0  0  0  0  0  0  0  0  0  0  0
   -5.7345   -8.5631    4.4858 C   0  0  0  0  0  0  0  0  0  0  0  0
   -5.7781   -6.9325    1.6505 N   0  0  0  0  0  0  0  0  0  0  0  0
   -6.3472   -9.4897    4.7765 N   0  0  0  0  0  0  0  0  0  0  0  0
    0.8026    0.0201   -1.3561 C   0  0  0  0  0  0  0  0  0  0  0  0
    0.1502   -0.9947   -2.0985 C   0  0  0  0  0  0  0  0  0  0  0  0
    0.4530   -0.8648   -3.5809 C   0  0  0  0  0  0  0  0  0  0  0  0
    0.6941    0.1202    0.0296 C   0  0  0  0  0  0  0  0  0  0  0  0
   -0.0570   -0.8311    0.6813 C   0  0  0  0  0  0  0  0  0  0  0  0
   -0.7153   -1.8409   -0.0637 C   0  0  0  0  0  0  0  0  0  0  0  0
   -0.6333   -1.9232   -1.4524 C   0  0  0  0  0  0  0  0  0  0  0  0
   -0.3208   -0.9900    2.1680 C   0  0  0  0  0  0  0  0  0  0  0  0
   -1.2032   -2.2153    2.1712 C   0  0  0  0  0  0  0  0  0  0  0  0
   -1.4096   -2.6665    0.8704 C   0  0  0  0  0  0  0  0  0  0  0  0
   -0.7789   -0.6232   -4.4328 C   0  0  0  0  0  0  0  0  0  0  0  0
    1.3124   -2.0560   -4.0673 C   0  0  0  0  0  0  0  0  0  0  0  0
    0.9811   -1.3165    2.9380 C   0  0  0  0  0  0  0  0  0  0  0  0
   -1.0891    0.1695    2.7788 C   0  0  0  0  0  0  0  0  0  0  0  0
   -1.9750   -0.2148   -3.8560 C   0  0  0  0  0  0  0  0  0  0  0  0
   -3.0859    0.0465   -4.6367 C   0  0  0  0  0  0  0  0  0  0  0  0
   -3.0365   -0.0832   -6.0174 C   0  0  0  0  0  0  0  0  0  0  0  0
   -1.8345   -0.4693   -6.5948 C   0  0  0  0  0  0  0  0  0  0  0  0
   -0.7222   -0.7315   -5.8176 C   0  0  0  0  0  0  0  0  0  0  0  0
   -1.6511    1.1643    1.9896 C   0  0  0  0  0  0  0  0  0  0  0  0
   -2.3817    2.1913    2.5595 C   0  0  0  0  0  0  0  0  0  0  0  0
   -2.5805    2.2533    3.9310 C   0  0  0  0  0  0  0  0  0  0  0  0
   -2.0350    1.2465    4.7167 C   0  0  0  0  0  0  0  0  0  0  0  0
   -1.3041    0.2190    4.1519 C   0  0  0  0  0  0  0  0  0  0  0  0
   -4.2307    0.2419   -6.8669 C   0  0  0  0  0  0  0  0  0  0  0  0
   -4.2197    1.7211   -7.2583 C   0  0  0  0  0  0  0  0  0  0  0  0
   -3.4100    3.3450    4.5425 C   0  0  0  0  0  0  0  0  0  0  0  0
   -4.8773    2.9192    4.6246 C   0  0  0  0  0  0  0  0  0  0  0  0
   -1.8127   -3.0036    3.1303 C   0  0  0  0  0  0  0  0  0  0  0  0
   -2.4900   -4.0834    2.5727 C   0  0  0  0  0  0  0  0  0  0  0  0
   -2.3774   -4.0706    0.8082 S   0  0  0  0  0  0  0  0  0  0  0  0
    8.5385    8.4948   -4.0924 C   0  0  0  0  0  0  0  0  0  0  0  0
   -4.1796   -9.2205    9.2602 C   0  0  0  0  0  0  0  0  0  0  0  0
    0.5571   -3.3730   -4.1857 C   0  0  0  0  0  0  0  0  0  0  0  0
    1.9115   -0.1280    3.1401 C   0  0  0  0  0  0  0  0  0  0  0  0
    3.4672    2.8108   -5.7707 H   0  0  0  0  0  0  0  0  0  0  0  0
    7.2003    6.8860   -5.7695 H   0  0  0  0  0  0  0  0  0  0  0  0
    7.6527    7.8261   -1.6320 H   0  0  0  0  0  0  0  0  0  0  0  0
    5.9487    6.1229   -1.0243 H   0  0  0  0  0  0  0  0  0  0  0  0
    1.9890    0.9592   -5.5806 H   0  0  0  0  0  0  0  0  0  0  0  0
   -3.6783   -5.7816    2.3896 H   0  0  0  0  0  0  0  0  0  0  0  0
   -4.8378   -8.8730    6.6794 H   0  0  0  0  0  0  0  0  0  0  0  0
   -2.6681   -7.0777    9.8854 H   0  0  0  0  0  0  0  0  0  0  0  0
   -1.9629   -5.2101    8.4059 H   0  0  0  0  0  0  0  0  0  0  0  0
    1.1733    0.9346    0.5490 H   0  0  0  0  0  0  0  0  0  0  0  0
   -1.1879   -2.6807   -1.9834 H   0  0  0  0  0  0  0  0  0  0  0  0
    2.1455   -2.1737   -3.3695 H   0  0  0  0  0  0  0  0  0  0  0  0
    1.7394   -1.7956   -5.0366 H   0  0  0  0  0  0  0  0  0  0  0  0
    1.5058   -2.1049    2.3921 H   0  0  0  0  0  0  0  0  0  0  0  0
    0.7050   -1.7252    3.9108 H   0  0  0  0  0  0  0  0  0  0  0  0
   -2.0457   -0.0971   -2.7848 H   0  0  0  0  0  0  0  0  0  0  0  0
   -4.0065    0.3554   -4.1623 H   0  0  0  0  0  0  0  0  0  0  0  0
   -1.7666   -0.5672   -7.6689 H   0  0  0  0  0  0  0  0  0  0  0  0
    0.1940   -1.0250   -6.3060 H   0  0  0  0  0  0  0  0  0  0  0  0
   -1.5229    1.1443    0.9178 H   0  0  0  0  0  0  0  0  0  0  0  0
   -2.8032    2.9572    1.9239 H   0  0  0  0  0  0  0  0  0  0  0  0
   -2.1843    1.2656    5.7869 H   0  0  0  0  0  0  0  0  0  0  0  0
   -0.9022   -0.5481    4.7950 H   0  0  0  0  0  0  0  0  0  0  0  0
   -5.1476    0.0220   -6.3164 H   0  0  0  0  0  0  0  0  0  0  0  0
   -4.2196   -0.3694   -7.7715 H   0  0  0  0  0  0  0  0  0  0  0  0
   -5.0849    1.9589   -7.8727 H   0  0  0  0  0  0  0  0  0  0  0  0
   -3.3188    1.9573   -7.8201 H   0  0  0  0  0  0  0  0  0  0  0  0
   -4.2415    2.3476   -6.3693 H   0  0  0  0  0  0  0  0  0  0  0  0
   -3.3318    4.2513    3.9387 H   0  0  0  0  0  0  0  0  0  0  0  0
   -3.0444    3.5702    5.5464 H   0  0  0  0  0  0  0  0  0  0  0  0
   -5.2640    2.7015    3.6315 H   0  0  0  0  0  0  0  0  0  0  0  0
   -5.4792    3.7098    5.0665 H   0  0  0  0  0  0  0  0  0  0  0  0
   -4.9779    2.0236    5.2335 H   0  0  0  0  0  0  0  0  0  0  0  0
   -1.7830   -2.8399    4.1908 H   0  0  0  0  0  0  0  0  0  0  0  0
    9.2226    8.6762   -3.2671 H   0  0  0  0  0  0  0  0  0  0  0  0
    8.0346    9.4330   -4.3269 H   0  0  0  0  0  0  0  0  0  0  0  0
    9.1069    8.1949   -4.9695 H   0  0  0  0  0  0  0  0  0  0  0  0
   -5.1276   -9.6516    8.9485 H   0  0  0  0  0  0  0  0  0  0  0  0
   -4.2562   -8.8968   10.2953 H   0  0  0  0  0  0  0  0  0  0  0  0
   -3.4218  -10.0031    9.2078 H   0  0  0  0  0  0  0  0  0  0  0  0
   -0.3633   -3.2411   -4.7497 H   0  0  0  0  0  0  0  0  0  0  0  0
    0.3149   -3.7747   -3.2063 H   0  0  0  0  0  0  0  0  0  0  0  0
    1.1758   -4.1029   -4.7032 H   0  0  0  0  0  0  0  0  0  0  0  0
    2.3759    0.1733    2.2058 H   0  0  0  0  0  0  0  0  0  0  0  0
    2.7033   -0.4007    3.8343 H   0  0  0  0  0  0  0  0  0  0  0  0
    1.3695    0.7197    3.5530 H   0  0  0  0  0  0  0  0  0  0  0  0
  1  2  2  0  0  0  0
  2  3  1  0  0  0  0
  3  4  1  0  0  0  0
  4  5  2  0  0  0  0
  5  6  1  0  0  0  0
  6  2  1  0  0  0  0
  4  7  1  0  0  0  0
  7  8  2  0  0  0  0
  8  9  1  0  0  0  0
  9 10  2  0  0  0  0
 10  5  1  0  0  0  0
  6 11  2  0  0  0  0
  3 12  2  0  0  0  0
 12 13  1  0  0  0  0
 12 14  1  0  0  0  0
 13 15  3  0  0  0  0
 14 16  3  0  0  0  0
  1 17  1  0  0  0  0
 17 18  1  0  0  0  0
 18 19  1  0  0  0  0
 19 20  2  0  0  0  0
 20 21  1  0  0  0  0
 21 17  2  0  0  0  0
 22 23  2  0  0  0  0
 23 24  1  0  0  0  0
 24 25  1  0  0  0  0
 25 26  2  0  0  0  0
 26 27  1  0  0  0  0
 27 23  1  0  0  0  0
 25 28  1  0  0  0  0
 28 29  2  0  0  0  0
 29 30  1  0  0  0  0
 30 31  2  0  0  0  0
 31 26  1  0  0  0  0
 27 32  2  0  0  0  0
 24 33  2  0  0  0  0
 33 34  1  0  0  0  0
 33 35  1  0  0  0  0
 34 36  3  0  0  0  0
 35 37  3  0  0  0  0
 19 38  1  0  0  0  0
 38 39  2  0  0  0  0
 39 40  1  0  0  0  0
 40 20  1  0  0  0  0
 38 41  1  0  0  0  0
 41 42  2  0  0  0  0
 42 43  1  0  0  0  0
 43 44  2  0  0  0  0
 44 39  1  0  0  0  0
 42 45  1  0  0  0  0
 45 46  1  0  0  0  0
 46 47  2  0  0  0  0
 47 43  1  0  0  0  0
 40 48  1  0  0  0  0
 40 49  1  0  0  0  0
 45 50  1  0  0  0  0
 45 51  1  0  0  0  0
 48 52  2  0  0  0  0
 52 53  1  0  0  0  0
 53 54  2  0  0  0  0
 54 55  1  0  0  0  0
 55 56  2  0  0  0  0
 56 48  1  0  0  0  0
 51 57  2  0  0  0  0
 57 58  1  0  0  0  0
 58 59  2  0  0  0  0
 59 60  1  0  0  0  0
 60 61  2  0  0  0  0
 61 51  1  0  0  0  0
 54 62  1  0  0  0  0
 62 63  1  0  0  0  0
 59 64  1  0  0  0  0
 64 65  1  0  0  0  0
 46 66  1  0  0  0  0
 66 67  2  0  0  0  0
 67 68  1  0  0  0  0
 68 47  1  0  0  0  0
 67 22  1  0  0  0  0
  8 69  1  0  0  0  0
 29 70  1  0  0  0  0
 49 71  1  0  0  0  0
 50 72  1  0  0  0  0
  1 73  1  0  0  0  0
  7 74  1  0  0  0  0
  9 75  1  0  0  0  0
 10 76  1  0  0  0  0
 21 77  1  0  0  0  0
 22 78  1  0  0  0  0
 28 79  1  0  0  0  0
 30 80  1  0  0  0  0
 31 81  1  0  0  0  0
 41 82  1  0  0  0  0
 44 83  1  0  0  0  0
 49 84  1  0  0  0  0
 49 85  1  0  0  0  0
 50 86  1  0  0  0  0
 50 87  1  0  0  0  0
 52 88  1  0  0  0  0
 53 89  1  0  0  0  0
 55 90  1  0  0  0  0
 56 91  1  0  0  0  0
 57 92  1  0  0  0  0
 58 93  1  0  0  0  0
 60 94  1  0  0  0  0
 61 95  1  0  0  0  0
 62 96  1  0  0  0  0
 62 97  1  0  0  0  0
 63 98  1  0  0  0  0
 63 99  1  0  0  0  0
 63100  1  0  0  0  0
 64101  1  0  0  0  0
 64102  1  0  0  0  0
 65103  1  0  0  0  0
 65104  1  0  0  0  0
 65105  1  0  0  0  0
 66106  1  0  0  0  0
 69107  1  0  0  0  0
 69108  1  0  0  0  0
 69109  1  0  0  0  0
 70110  1  0  0  0  0
 70111  1  0  0  0  0
 70112  1  0  0  0  0
 71113  1  0  0  0  0
 71114  1  0  0  0  0
 71115  1  0  0  0  0
 72116  1  0  0  0  0
 72117  1  0  0  0  0
 72118  1  0  0  0  0
M  END
