164
IDT-3EsT.sdf
C         -1.25220        0.34220        0.04480
C         -0.21600        1.23580       -0.31650
C          1.12450        0.85860       -0.28980
C          1.40730       -0.42690        0.10720
C          0.36950       -1.33080        0.43930
C         -0.97050       -0.95400        0.40950
C         -2.61250        1.01010       -0.07260
C         -2.21750        2.38340       -0.55310
C         -0.83650        2.47280       -0.66950
C         -2.87710        3.56200       -0.87370
C         -1.99950        4.56540       -1.25480
S         -0.32390        4.01680       -1.20160
C          2.76870       -1.09180        0.22850
C          2.36980       -2.48170        0.65270
C          0.99090       -2.57560        0.76880
C          3.03000       -3.66920        0.94030
C          2.14880       -4.69010        1.25420
S          0.48190       -4.14320        1.24100
C         -2.24420        5.89190       -1.68920
C          2.44210       -6.03880        1.58430
C          3.64820       -0.50510        1.31690
C          3.44440       -1.06370       -1.13020
C         -3.34360        1.17010        1.24780
C         -3.43650        0.22760       -1.07900
C         -4.66600        1.59950        1.23430
C         -5.35200        1.79290        2.41660
C         -4.73820        1.56780        3.64300
C         -3.41400        1.15430        3.65050
C         -2.72050        0.96010        2.46850
C         -3.38270        0.52620       -2.43320
C         -4.10080       -0.22410       -3.34540
C         -4.88080       -1.29600       -2.93280
C         -4.92320       -1.59690       -1.57790
C         -4.20800       -0.84920       -0.66140
C          4.98540       -0.87950        1.38370
C          5.79930       -0.40350        2.39270
C          5.30090        0.45420        3.36560
C          3.96210        0.81370        3.30250
C          3.14220        0.33890        2.29430
C          4.24690        0.00990       -1.49430
C          4.85050        0.04530       -2.73740
C          4.66170       -0.98210       -3.65240
C          3.83870       -2.04090       -3.29310
C          3.23210       -2.08110       -2.05110
C          6.17680        0.93490        4.48620
C          5.37130       -0.98030       -4.97540
C         -5.69600       -2.07650       -3.92330
C         -5.47730        1.81740        4.92630
C         -7.05430       -1.40700       -4.14190
C         -5.35360        3.28580        5.33760
C          6.15000       -0.05930        5.64900
C          6.69540       -1.73980       -4.86730
S          1.34580       -6.94650        2.56900
C          2.41950       -8.32520        2.57610
C          3.56570       -8.04480        1.83740
C          3.58450       -6.77920        1.26270
S         -0.92130        6.73830       -2.43020
C         -1.87780        8.18330       -2.62960
C         -3.15500        7.97770       -2.12350
C         -3.38750        6.70540       -1.60360
C         -4.71180        6.37650       -1.03840
O         -5.34430        7.49240       -0.66050
C         -6.66230        7.33640       -0.13400
C         -1.48790        9.40420       -3.20350
C         -0.29250        9.77440       -3.76160
C          0.88920        8.91160       -3.89660
C          1.90610        9.71880       -4.59380
C          1.38560       10.99830       -4.85640
C          0.01820       11.06790       -4.33930
C          3.18510        9.36040       -4.97120
C          3.96230       10.30420       -5.62790
C          3.45740       11.56890       -5.89220
C          2.17120       11.93240       -5.51320
O          1.01540        7.76150       -3.51640
C         -0.79180       12.17220       -4.39590
C         -2.10660       12.25990       -3.89270
C         -0.41450       13.40420       -4.97120
N         -0.17730       14.43330       -5.42150
N         -3.17880       12.41920       -3.51180
C          4.68740       -6.37540        0.35940
O          4.23570       -5.68240       -0.69180
C          5.18820       -5.23010       -1.65690
C          2.22260       -9.56250        3.21090
C          1.17310      -10.00710        3.97140
C         -0.02480       -9.22720        4.31050
C         -0.84110      -10.08950        5.18240
C         -0.19150      -11.32410        5.35660
C          1.06080      -11.31050        4.59920
C         -2.05620       -9.81410        5.77780
C         -2.63500      -10.79670        6.56860
C         -2.00000      -12.01680        6.74950
C         -0.77810      -12.29690        6.15080
O         -0.29950       -8.09590        3.95170
C          1.93620      -12.36020        4.50460
C          3.13240      -12.37500        3.75640
C          1.75580      -13.60400        5.14680
N          4.11480      -12.47840        3.17010
N          1.67540      -14.64060        5.63370
O          5.84130       -6.67150        0.53890
C          5.02040       -5.99030       -2.96300
O         -5.20770        5.27880       -0.93620
C         -7.32220        8.70160       -0.08750
H          1.90050        1.55590       -0.56520
H         -1.74780       -1.65590        0.66890
H         -3.94040        3.70420       -0.85640
H          4.09650       -3.79150        0.95010
H         -5.16090        1.77510        0.29080
H         -6.38090        2.12180        2.38760
H         -2.91510        0.97840        4.59310
H         -1.68960        0.63920        2.50300
H         -2.77900        1.35200       -2.78000
H         -4.05120        0.02580       -4.39570
H         -5.52160       -2.42890       -1.23460
H         -4.25990       -1.09740        0.38890
H          5.39360       -1.53980        0.63190
H          6.83770       -0.70090        2.42540
H          3.55220        1.47600        4.05170
H          2.10300        0.63240        2.27000
H          4.41340        0.81670       -0.79520
H          5.47810        0.88480       -3.00020
H          3.66840       -2.84530       -3.99490
H          2.59320       -2.91440       -1.79730
H          5.82900        1.90850        4.83700
H          7.20380        1.04560        4.13220
H          4.74470       -1.45590       -5.73270
H          5.56900        0.04610       -5.28990
H         -5.84990       -3.09380       -3.55780
H         -5.16540       -2.13200       -4.87620
H         -5.06970        1.18590        5.71830
H         -6.53280        1.56800        4.79930
H         -7.60470       -1.35450       -3.20530
H         -6.92090       -0.39460       -4.51650
H         -7.64480       -1.96920       -4.86160
H         -5.89210        3.46890        6.26460
H         -4.30870        3.55060        5.48390
H         -5.76370        3.93060        4.56350
H          5.13570       -0.17400        6.02500
H          6.78490        0.28740        6.46090
H          6.50480       -1.03400        5.32190
H          7.21300       -1.74170       -5.82360
H          6.51740       -2.77000       -4.56610
H          7.33900       -1.27350       -4.12460
H          4.36120       -8.75710        1.70440
H         -3.90840        8.74540       -2.14090
H         -7.21870        6.64050       -0.77210
H         -6.58880        6.89590        0.86730
H         -2.27860       10.14450       -3.19530
H          3.55500        8.37000       -4.75500
H          4.96630       10.05410       -5.93620
H          4.07500       12.29120       -6.40470
H          1.80780       12.92240       -5.73390
H          6.19510       -5.37330       -1.25150
H          4.99220       -4.16280       -1.80070
H          3.05050      -10.24610        3.06490
H         -2.52950       -8.85670        5.62270
H         -3.58480      -10.61200        7.04730
H         -2.46290      -12.76980        7.36960
H         -0.31010      -13.25390        6.31200
H          5.22200       -7.04800       -2.81220
H          4.00480       -5.87710       -3.33380
H          5.71560       -5.60180       -3.70180
H         -6.73800        9.37800        0.53050
H         -8.32050        8.60990        0.33020
H         -7.39340        9.11990       -1.08790
