146
IDT-T.sdf
C          0.78840       -0.76980        1.29700
C          0.96880        0.59140        1.64290
C          1.67840        1.46880        0.82640
C          2.13000        0.97900       -0.37640
C          1.84230       -0.34860       -0.77310
C          1.20510       -1.24850        0.07780
C          0.03020       -1.50840        2.38750
C         -0.38500       -0.35870        3.26970
C          0.23490        0.80930        2.84870
C         -1.21770       -0.17300        4.36610
C         -1.25640        1.15100        4.77130
S         -0.19750        2.16550        3.80600
C          2.86850        1.72490       -1.47700
C          2.80490        0.71460       -2.59590
C          2.25440       -0.47290       -2.13490
C          3.13840        0.67550       -3.94440
C          2.80180       -0.53700       -4.52780
S          2.11390       -1.65600       -3.36740
C         -2.09990        1.72570        5.75180
C          2.87150       -0.88960       -5.89910
C          4.33960        1.94450       -1.16370
C          2.15170        3.02770       -1.76200
C         -1.10810       -2.30260        1.78610
C          0.93760       -2.38800        3.23670
C         -2.37200       -1.75120        1.63480
C         -3.38910       -2.48110        1.04670
C         -3.16710       -3.77000        0.58220
C         -1.89600       -4.31240        0.72340
C         -0.87840       -3.59010        1.31560
C          2.32020       -2.32880        3.14640
C          3.10900       -3.10490        3.97700
C          2.54110       -3.94820        4.92140
C          1.15530       -4.00100        5.00920
C          0.36310       -3.22920        4.18240
C          4.97220        1.30540       -0.10800
C          6.32460        1.49420        0.11530
C          7.07810        2.31790       -0.70880
C          6.44150        2.94680       -1.77190
C          5.09210        2.76190       -1.99910
C          2.47610        4.17160       -1.04260
C          1.79220        5.35270       -1.25710
C          0.76590        5.42390       -2.19030
C          0.43740        4.27520       -2.89720
C          1.11750        3.08990       -2.68500
C          8.55420        2.48480       -0.49030
C         -0.00320        6.69830       -2.38680
C          3.40040       -4.81700        5.79370
C         -4.28220       -4.58070       -0.01210
C          3.65590       -6.16630        5.11920
C         -4.96030       -5.42660        1.06770
C          9.33330        1.42950       -1.27810
C         -1.16360        6.77890       -1.39280
S          2.02830       -2.27560       -6.50480
C          2.51940       -1.90440       -8.13850
C          3.32280       -0.75930       -8.15440
C          3.51450       -0.18750       -6.91500
S         -3.27550        0.77340        6.59140
C         -3.92490        2.19450        7.39600
C         -3.20220        3.32200        7.02940
C         -2.19250        3.06170        6.11830
C         -5.03400        1.98470        8.23400
C         -5.88840        2.86430        8.84620
C         -5.94880        4.33770        8.71220
C         -7.22980        4.73950        9.32780
C         -7.87000        3.61470        9.87280
C         -7.02410        2.44380        9.64990
C         -7.79190        5.99930        9.39260
C         -9.02680        6.13460       10.01070
C         -9.67030        5.02720       10.54440
C         -9.10500        3.76000       10.48550
O         -5.14360        5.09260        8.20630
C         -7.25560        1.19760       10.17160
C         -6.40860        0.07530       10.05070
C         -8.38120        0.86560       10.95520
N         -9.27160        0.52160       11.59330
N         -5.77630       -0.88360       10.02250
C          2.15530       -2.57770       -9.31180
C          1.32770       -3.65780       -9.49400
C          0.64740       -4.40060       -8.42690
C         -0.15990       -5.43490       -9.09890
C          0.02470       -5.33810      -10.48910
C          0.95430       -4.24150      -10.76660
C         -0.99350       -6.38180       -8.53810
C         -1.66000       -7.25300       -9.38860
C         -1.48440       -7.16540      -10.76170
C         -0.64540       -6.21390      -11.32840
O          0.72620       -4.21480       -7.22500
C          1.36650       -3.85590      -12.01640
C          0.94760       -4.47090      -13.21500
C          2.25660       -2.80080      -12.30500
N          0.65100       -4.91910      -14.22970
N          2.97090       -1.96150      -12.63040
H          1.83380        2.49590        1.11880
H          1.02120       -2.26630       -0.22950
H         -1.80450       -0.93700        4.84370
H          3.56210        1.49250       -4.49840
H         -2.56640       -0.74590        1.97970
H         -4.36980       -2.03870        0.94400
H         -1.70010       -5.31240        0.36350
H          0.10150       -4.03280        1.42410
H          2.78870       -1.67640        2.42430
H          4.18500       -3.04820        3.89140
H          0.69160       -4.64950        5.73860
H         -0.71270       -3.28390        4.26370
H          4.40870        0.65880        0.54850
H          6.80010        0.99330        0.94660
H          7.00990        3.59080       -2.42780
H          4.61140        3.26600       -2.82500
H          3.27710        4.13990       -0.31780
H          2.06150        6.23420       -0.69260
H         -0.36120        4.30690       -3.62480
H          0.84100        2.20760       -3.24400
H          8.78530        2.38380        0.57200
H          8.86670        3.47920       -0.81530
H          0.65680        7.55560       -2.23870
H         -0.39680        6.74130       -3.40420
H          2.90570       -4.98240        6.75280
H          4.35560       -4.32260        5.98230
H         -5.02070       -3.91840       -0.46790
H         -3.88710       -5.23880       -0.78880
H          4.27840       -6.79570        5.75090
H          4.16030       -6.02340        4.16600
H          2.71560       -6.68090        4.93470
H         -4.24140       -6.10200        1.52630
H         -5.76690       -6.01660        0.63900
H         -5.37250       -4.78750        1.84540
H         10.40260        1.54930       -1.12040
H          9.04450        0.43030       -0.95980
H          9.12630        1.52190       -2.34190
H         -1.72170        7.70150       -1.53300
H         -1.83980        5.93830       -1.53230
H         -0.79000        6.75010       -0.37160
H          3.73400       -0.36920       -9.06930
H          4.10070        0.69710       -6.74330
H         -3.42930        4.29830        7.41550
H         -1.53870        3.81230        5.71000
H         -5.26880        0.93420        8.36370
H         -7.27370        6.84490        8.96700
H         -9.49270        7.10640       10.07540
H        -10.63360        5.14880       11.01670
H         -9.63100        2.91830       10.90490
H          2.58720       -2.13710      -10.20240
H         -1.11440       -6.42960       -7.46680
H         -2.32010       -8.00360       -8.98060
H         -2.01070       -7.85030      -11.40950
H         -0.53090       -6.17130      -12.39900
