176
IDT-BC6.sdf
C          0.78200       -0.55150       -1.60490
C          0.13240       -1.22210       -0.54330
C         -0.87380       -0.61680        0.20240
C         -1.19070        0.68540       -0.10900
C         -0.53080        1.36080       -1.16030
C          0.44920        0.74300       -1.93080
C          1.83640       -1.44140       -2.24610
C          1.72360       -2.67710       -1.39000
C          0.75370       -2.50690       -0.42310
C          2.44840       -3.86290       -1.24600
C          2.03620       -4.59770       -0.16110
S          0.68870       -3.83150        0.66730
C         -2.21660        1.58890        0.55940
C         -2.00970        2.87090       -0.20700
C         -1.04440        2.69700       -1.17900
C         -2.49740        4.17740       -0.14730
C         -1.88960        5.01010       -1.06270
S         -0.71760        4.14680       -2.03530
C          2.56190       -5.83020        0.39380
C         -2.19390        6.41700       -1.24000
C         -3.58540        0.96950        0.34770
C         -1.94130        1.86640        2.02390
C          3.25940       -0.94670       -2.06750
C          1.47220       -1.64910       -3.70080
C          3.59390       -0.02850       -1.08310
C          4.91510        0.32470       -0.87420
C          5.93310       -0.23310       -1.63450
C          5.59360       -1.15670       -2.61530
C          4.27630       -1.51220       -2.82810
C          1.86700       -0.72180       -4.65710
C          1.50490       -0.88210       -5.98080
C          0.73980       -1.96860       -6.38500
C          0.33960       -2.88690       -5.42410
C          0.69760       -2.72980       -4.09770
C         -4.36280        1.30130       -0.75290
C         -5.58810        0.69360       -0.95650
C         -6.06430       -0.26710       -0.07510
C         -5.27940       -0.60170        1.02090
C         -4.05530        0.00400        1.22960
C         -2.93630        2.44260        2.80510
C         -2.69990        2.75090        4.13040
C         -1.46230        2.50170        4.71020
C         -0.46780        1.93900        3.92270
C         -0.69900        1.63020        2.59430
C         -7.41480       -0.89270       -0.27480
C         -1.22320        2.78770        6.16470
C          0.31350       -2.11880       -7.81710
C          7.37160        0.10470       -1.36740
C         -1.02320       -1.41260       -8.05280
C          7.97840       -0.89550       -0.38110
C         -8.49690       -0.06580        0.42250
C         -1.58110        1.56630        7.01410
C          3.86980       -9.41290        2.25550
C          5.02950      -10.10400        2.08470
C          5.94970      -10.03640        0.91690
C          6.86160      -11.18940        1.07220
C          6.56300      -11.88390        2.25660
C          5.45590      -11.21050        2.92760
C          7.87750      -11.59600        0.22910
C          8.61160      -12.71950        0.58090
C          8.31990      -13.41370        1.74680
C          7.29840      -13.00980        2.59560
O          5.94020       -9.25730       -0.01040
C          4.96840      -11.52000        4.16970
C          3.96320      -10.80310        4.85370
C          5.43510      -12.59200        4.95960
N          5.76150      -13.45280        5.64540
N          3.17000      -10.26540        5.48760
C         -3.38280       10.48990       -1.50810
C         -2.69340       11.58200       -1.08360
C         -1.56010       11.59130       -0.11730
C         -1.38290       13.00900        0.26070
C         -2.29160       13.81380       -0.44740
C         -3.09380       12.96100       -1.31860
C         -0.48800       13.54730        1.16500
C         -0.50020       14.92060        1.36150
C         -1.39680       15.72230        0.66860
C         -2.29960       15.18500       -0.23900
O         -0.94030       10.65240        0.33060
C         -4.00600       13.39560       -2.24290
C         -4.34160       14.75060       -2.44870
C         -4.71920       12.56630       -3.13520
N         -4.66590       15.83130       -2.66030
N         -5.32060       11.96360       -3.90650
C          3.93870       -6.07130        0.55760
C          4.32520       -7.25880        1.14550
C          3.41560       -8.23150        1.57830
C          2.03700       -7.97330        1.43630
C          1.65070       -6.78440        0.85370
C         -1.23680        7.41620       -1.48010
C         -1.66100        8.73000       -1.54960
C         -2.99670        9.10910       -1.39910
C         -3.96300        8.10270       -1.19930
C         -3.53750        6.79470       -1.11330
C          5.00030       -5.06250        0.21180
C          4.95460       -3.84480        1.13620
C          0.97820       -8.93450        1.89850
C          0.57550       -8.64210        3.34750
C         -5.42970        8.40860       -1.07300
C         -6.10290        8.42210       -2.44890
C          0.23170        7.14970       -1.64960
C          0.60790        7.07030       -3.13040
H         -1.36120       -1.14750        1.00590
H          0.93850        1.27440       -2.73260
H          3.22270       -4.17950       -1.91940
H         -3.22810        4.52310        0.56110
H          2.81980        0.41380       -0.47310
H          5.15710        1.04380       -0.10430
H          6.37120       -1.60450       -3.21790
H          4.03120       -2.23220       -3.59600
H          2.47470        0.12280       -4.36560
H          1.82520       -0.15420       -6.71290
H         -0.25760       -3.73890       -5.71670
H          0.37470       -3.45710       -3.36690
H         -4.01130        2.04060       -1.45790
H         -6.18120        0.96790       -1.81760
H         -5.62980       -1.34900        1.71890
H         -3.46410       -0.26690        2.09250
H         -3.90650        2.64050        2.37220
H         -3.48690        3.19490        4.72370
H          0.50440        1.74200        4.35210
H          0.09430        1.19970        2.00080
H         -7.41740       -1.90540        0.13330
H         -7.64030       -0.95340       -1.34150
H         -0.17340        3.04200        6.32470
H         -1.83270        3.63690        6.48040
H          0.20930       -3.17750       -8.06360
H          1.06950       -1.68720       -8.47620
H          7.44610        1.11120       -0.95120
H          7.93820        0.07760       -2.30050
H         -0.93680       -0.35320       -7.82190
H         -1.33270       -1.51870       -9.09000
H         -1.79360       -1.83900       -7.41420
H          9.02200       -0.65720       -0.18940
H          7.43750       -0.87030        0.56260
H          7.92100       -1.90500       -0.78280
H         -8.29570       -0.00280        1.48970
H         -9.47490       -0.51950        0.27940
H         -8.52000        0.94410        0.01880
H         -2.62830        1.30500        6.87810
H         -0.97500        0.71180        6.72160
H         -1.40810        1.77080        8.06820
H          3.18910       -9.79680        3.00370
H          8.08410      -11.04180       -0.67370
H          9.41520      -13.05810       -0.05560
H          8.89810      -14.28900        2.00250
H          7.08990      -13.57140        3.49150
H         -4.34590       10.66680       -1.96830
H          0.19750       12.90330        1.69440
H          0.19070       15.37060        2.05840
H         -1.39560       16.78880        0.83730
H         -2.98870       15.83070       -0.75820
H          5.37550       -7.42480        1.32180
H          0.59530       -6.58080        0.73380
H         -0.92660        9.49310       -1.75250
H         -4.27340        6.01960       -0.95290
H          5.97600       -5.54260        0.30490
H          4.89900       -4.73210       -0.82080
H          5.07290       -4.15240        2.17290
H          4.00980       -3.31650        1.03870
H          5.75570       -3.15450        0.88280
H          0.09770       -8.82290        1.26190
H          1.32100       -9.96610        1.80780
H          0.23330       -7.61400        3.44030
H          1.41090       -8.78560        4.02900
H         -0.23030       -9.30550        3.65200
H         -5.58330        9.36710       -0.57500
H         -5.90220        7.63870       -0.45920
H         -5.69010        9.20150       -3.08510
H         -5.95780        7.46570       -2.94580
H         -7.17040        8.59920       -2.34140
H          0.51880        6.22600       -1.14720
H          0.78610        7.96800       -1.18560
H          1.67350        6.88360       -3.23870
H          0.06520        6.26660       -3.62250
H          0.36540        8.00410       -3.63260
