152
IDT-CR.sdf
C         -0.45730        0.06610        1.21500
C         -1.43900       -0.34350        0.28330
C         -1.28270       -0.14490       -1.08600
C         -0.11400        0.44550       -1.50610
C          0.86380        0.86190       -0.57370
C          0.69600        0.68920        0.79590
C         -0.87630       -0.27680        2.63560
C         -2.18850       -0.97600        2.38610
C         -2.47660       -0.98280        1.02940
C         -3.12620       -1.65490        3.15190
C         -4.15630       -2.18150        2.38440
S         -3.93850       -1.80140        0.67900
C          0.33200        0.74100       -2.93010
C          1.68700        1.35400       -2.68390
C          1.95250        1.40040       -1.33250
C          2.75230        1.81860       -3.46950
C          3.81350        2.21860       -2.70500
S          3.51590        2.03330       -0.99850
C          0.53610       -0.49720       -3.78270
C         -0.66990        1.69380       -3.55320
C          0.04300       -1.25390        3.34310
C         -1.01790        1.02410        3.40490
C         -0.10430       -1.44820        4.71190
C          0.67670       -2.37150        5.37790
C          1.62260       -3.12820        4.69710
C          1.75770       -2.93860        3.32930
C          0.97570       -2.01630        2.65630
C         -2.22750        1.70210        3.45570
C         -2.32940        2.90640        4.12740
C         -1.22810        3.46800        4.75850
C         -0.01600        2.79300        4.69210
C          0.09050        1.58800        4.02430
C          0.62550       -1.76610       -3.23030
C          0.86300       -2.86580       -4.03590
C          1.03200       -2.72630       -5.40600
C          0.95490       -1.45110       -5.95290
C          0.71340       -0.35110       -5.15400
C         -1.81350        1.19590       -4.16540
C         -2.75420        2.05510       -4.70000
C         -2.58090        3.43180       -4.63790
C         -1.44200        3.92440       -4.01570
C         -0.49890        3.06870       -3.47650
C          1.24470       -3.92430       -6.28570
C         -3.62330        4.36400       -5.18450
C         -1.33370        4.79570        5.45180
C          2.43560       -4.16400        5.41870
C         -1.06170        5.93570        4.46820
C          1.67130       -5.48780        5.48590
C         -0.08960       -4.41870       -6.84760
C         -4.64600        4.71600       -4.10220
C          5.12260        2.75580       -3.18520
C          7.60870        4.22330       -6.34920
S          8.10280        5.91170       -6.42540
C          9.04540        5.61900       -7.86900
N          8.97300        4.31900       -8.25260
C          8.19880        3.47950       -7.45840
O          8.06170        2.30290       -7.71250
C          9.67680        3.74980       -9.38770
C         11.11720        3.39910       -9.03480
C          9.72600        6.65180       -8.46170
C          9.64560        7.94190       -7.89580
C         10.53140        6.58050       -9.61110
N         11.20750        6.59500      -10.53950
N          9.58310        8.99230       -7.43950
C          4.98580        4.19330       -3.70560
C          6.31730        4.66500       -4.27950
C          6.80480        3.74770       -5.36090
C          6.43400        2.36210       -5.27230
C          5.68710        1.88790       -4.26730
C         -6.38120       -3.23070        1.84710
C         -6.44330       -4.69570        5.85850
S         -7.80010       -5.62760        6.47940
C         -7.00270       -5.85450        8.01600
N         -5.79390       -5.24230        8.03840
C         -5.41640       -4.57180        6.87390
O         -4.35600       -3.98290        6.79510
C         -4.86060       -5.28940        9.14770
C         -4.05340       -6.58250        9.14630
C         -7.62330       -6.56800        9.01330
C         -8.89980       -7.11600        8.77460
C         -7.11870       -6.83010       10.29680
N         -6.76540       -7.08610       11.36000
N         -9.93830       -7.56710        8.58760
C         -7.13010       -4.50490        2.21900
C         -7.59330       -4.42820        3.66930
C         -6.42480       -4.19840        4.58070
C         -5.32810       -3.45200        4.08870
C         -5.26870       -2.95730        2.81610
H         -2.04360       -0.46530       -1.78100
H          1.45460        1.01290        1.49170
H         -3.07500       -1.76330        4.21900
H          2.75600        1.85320       -4.54410
H         -0.83020       -0.86430        5.25900
H          0.55020       -2.50740        6.44240
H          2.48440       -3.51980        2.77930
H          1.09710       -1.89120        1.59010
H         -3.10010        1.28680        2.97260
H         -3.28210        3.41560        4.16400
H          0.85530        3.21350        5.17390
H          1.03980        1.07280        3.99720
H          0.50680       -1.90160       -2.16530
H          0.92230       -3.84790       -3.58860
H          1.08910       -1.31870       -7.01710
H          0.65110        0.63230       -5.59750
H         -1.96130        0.12800       -4.23720
H         -3.63530        1.64990       -5.17720
H         -1.28820        4.99250       -3.95370
H          0.37870        3.47610       -2.99570
H          1.71350       -4.72650       -5.71270
H          1.90760       -3.66250       -7.11280
H         -4.13700        3.89330       -6.02520
H         -3.14980        5.28030       -5.54290
H         -2.33430        4.91500        5.87220
H         -0.61140        4.84570        6.26900
H          3.38360       -4.32050        4.90000
H          2.65260       -3.82310        6.43310
H         -0.06290        5.84200        4.04770
H         -1.13960        6.89770        4.96920
H         -1.77950        5.90960        3.65120
H          1.46090       -5.85380        4.48330
H          2.25410       -6.23810        6.01520
H          0.72510       -5.35170        6.00480
H         -0.56700       -3.63620       -7.43310
H          0.06380       -5.28560       -7.48580
H         -0.76060       -4.69720       -6.03810
H         -5.13800        3.81600       -3.74010
H         -4.15460        5.19840       -3.26020
H         -5.40170        5.39070       -4.49750
H          5.82440        2.75470       -2.33920
H          9.63820        4.45020      -10.22320
H          9.12980        2.84010       -9.65080
H         11.13910        2.68380       -8.21560
H         11.59970        2.95500       -9.90000
H         11.67850        4.28570       -8.74920
H          4.67000        4.85590       -2.89870
H          4.22140        4.21610       -4.48520
H          7.06900        4.68420       -3.48270
H          6.22500        5.68340       -4.66480
H          6.80460        1.70060       -6.03890
H          5.45980        0.83350       -4.21060
H         -5.98410       -3.30800        0.83280
H         -7.07120       -2.37970        1.86230
H         -4.19100       -4.43620        9.00640
H         -5.40640       -5.17120       10.08500
H         -3.34580       -6.56490        9.96970
H         -4.70000       -7.44790        9.27070
H         -3.50370       -6.67960        8.21250
H         -7.98720       -4.64410        1.55900
H         -6.46490       -5.36280        2.09890
H         -8.11980       -5.34230        3.95340
H         -8.29470       -3.59530        3.78660
H         -4.50810       -3.28620        4.76670
