IDT-2BR.sdf
  xtb     12202113353D
 energy: -234.522558019780 gnorm: 0.000339005350 xtb: 6.4.1 (unknown)
144158  0     0  0            999 V2000
    1.1385   -0.2043   -0.7581 C   0  0  0  0  0  0  0  0  0  0  0  0
    1.0817   -1.0996    0.3367 C   0  0  0  0  0  0  0  0  0  0  0  0
   -0.0870   -1.2891    1.0701 C   0  0  0  0  0  0  0  0  0  0  0  0
   -1.1982   -0.5811    0.6776 C   0  0  0  0  0  0  0  0  0  0  0  0
   -1.1441    0.3086   -0.4217 C   0  0  0  0  0  0  0  0  0  0  0  0
    0.0268    0.5028   -1.1512 C   0  0  0  0  0  0  0  0  0  0  0  0
    2.5265   -0.1952   -1.3801 C   0  0  0  0  0  0  0  0  0  0  0  0
    3.2324   -1.2091   -0.5154 C   0  0  0  0  0  0  0  0  0  0  0  0
    2.3757   -1.6908    0.4649 C   0  0  0  0  0  0  0  0  0  0  0  0
    4.5058   -1.7550   -0.4406 C   0  0  0  0  0  0  0  0  0  0  0  0
    4.6225   -2.6718    0.5953 C   0  0  0  0  0  0  0  0  0  0  0  0
    3.1276   -2.8405    1.4916 S   0  0  0  0  0  0  0  0  0  0  0  0
   -2.5837   -0.5879    1.3045 C   0  0  0  0  0  0  0  0  0  0  0  0
   -3.3018    0.3968    0.4170 C   0  0  0  0  0  0  0  0  0  0  0  0
   -2.4455    0.8814   -0.5627 C   0  0  0  0  0  0  0  0  0  0  0  0
   -4.5858    0.9137    0.3212 C   0  0  0  0  0  0  0  0  0  0  0  0
   -4.7130    1.8096   -0.7317 C   0  0  0  0  0  0  0  0  0  0  0  0
   -3.2123    1.9987   -1.6143 S   0  0  0  0  0  0  0  0  0  0  0  0
    5.7665   -3.4449    0.9536 C   0  0  0  0  0  0  0  0  0  0  0  0
   -5.8748    2.5392   -1.1226 C   0  0  0  0  0  0  0  0  0  0  0  0
   -2.4458   -0.1206    2.7419 C   0  0  0  0  0  0  0  0  0  0  0  0
   -3.2978   -1.9225    1.2097 C   0  0  0  0  0  0  0  0  0  0  0  0
    2.4035   -0.6124   -2.8331 C   0  0  0  0  0  0  0  0  0  0  0  0
    3.2566    1.1266   -1.2304 C   0  0  0  0  0  0  0  0  0  0  0  0
    6.9913   -3.3594    0.2942 C   0  0  0  0  0  0  0  0  0  0  0  0
    8.0859   -4.1349    0.6448 C   0  0  0  0  0  0  0  0  0  0  0  0
    8.0715   -5.0744    1.6778 C   0  0  0  0  0  0  0  0  0  0  0  0
    6.8461   -5.1827    2.3855 C   0  0  0  0  0  0  0  0  0  0  0  0
    5.7122   -4.3747    2.0255 C   0  0  0  0  0  0  0  0  0  0  0  0
   -7.1067    2.4264   -0.4807 C   0  0  0  0  0  0  0  0  0  0  0  0
   -8.2241    3.1479   -0.8724 C   0  0  0  0  0  0  0  0  0  0  0  0
   -8.2294    4.0527   -1.9361 C   0  0  0  0  0  0  0  0  0  0  0  0
   -6.9940    4.1950   -2.6203 C   0  0  0  0  0  0  0  0  0  0  0  0
   -5.8353    3.4451   -2.2154 C   0  0  0  0  0  0  0  0  0  0  0  0
    6.5695   -5.9761    3.4145 N   0  0  0  0  0  0  0  0  0  0  0  0
    5.0486   -5.7412    3.8840 S   0  0  0  0  0  0  0  0  0  0  0  0
    4.6613   -4.6166    2.8041 N   0  0  0  0  0  0  0  0  0  0  0  0
   -6.7272    4.9761   -3.6611 N   0  0  0  0  0  0  0  0  0  0  0  0
   -5.1873    4.7957   -4.0910 S   0  0  0  0  0  0  0  0  0  0  0  0
   -4.7780    3.7134   -2.9764 N   0  0  0  0  0  0  0  0  0  0  0  0
    2.1284    0.3376   -3.8091 C   0  0  0  0  0  0  0  0  0  0  0  0
    1.9792   -0.0367   -5.1307 C   0  0  0  0  0  0  0  0  0  0  0  0
    2.0979   -1.3664   -5.5141 C   0  0  0  0  0  0  0  0  0  0  0  0
    2.3578   -2.3136   -4.5333 C   0  0  0  0  0  0  0  0  0  0  0  0
    2.5052   -1.9444   -3.2088 C   0  0  0  0  0  0  0  0  0  0  0  0
    2.8398    2.0959   -0.3300 C   0  0  0  0  0  0  0  0  0  0  0  0
    3.5559    3.2708   -0.1856 C   0  0  0  0  0  0  0  0  0  0  0  0
    4.7055    3.5045   -0.9270 C   0  0  0  0  0  0  0  0  0  0  0  0
    5.1286    2.5225   -1.8140 C   0  0  0  0  0  0  0  0  0  0  0  0
    4.4168    1.3484   -1.9632 C   0  0  0  0  0  0  0  0  0  0  0  0
   -2.1459   -1.0348    3.7444 C   0  0  0  0  0  0  0  0  0  0  0  0
   -1.9693   -0.6138    5.0485 C   0  0  0  0  0  0  0  0  0  0  0  0
   -2.0800    0.7288    5.3868 C   0  0  0  0  0  0  0  0  0  0  0  0
   -2.3722    1.6391    4.3805 C   0  0  0  0  0  0  0  0  0  0  0  0
   -2.5472    1.2232    3.0733 C   0  0  0  0  0  0  0  0  0  0  0  0
   -4.4458   -2.1347    1.9642 C   0  0  0  0  0  0  0  0  0  0  0  0
   -5.1367   -3.3271    1.8727 C   0  0  0  0  0  0  0  0  0  0  0  0
   -4.7039   -4.3380    1.0237 C   0  0  0  0  0  0  0  0  0  0  0  0
   -3.5687   -4.1132    0.2578 C   0  0  0  0  0  0  0  0  0  0  0  0
   -2.8741   -2.9199    0.3439 C   0  0  0  0  0  0  0  0  0  0  0  0
   -1.9373    1.1776    6.8124 C   0  0  0  0  0  0  0  0  0  0  0  0
   -5.4741   -5.6212    0.9007 C   0  0  0  0  0  0  0  0  0  0  0  0
    5.5019    4.7632   -0.7374 C   0  0  0  0  0  0  0  0  0  0  0  0
    1.8988   -1.7749   -6.9452 C   0  0  0  0  0  0  0  0  0  0  0  0
    0.4222   -2.0711   -7.2152 C   0  0  0  0  0  0  0  0  0  0  0  0
    6.5572    4.5693    0.3533 C   0  0  0  0  0  0  0  0  0  0  0  0
   -3.2941    1.1506    7.5192 C   0  0  0  0  0  0  0  0  0  0  0  0
   -6.5418   -5.5029   -0.1887 C   0  0  0  0  0  0  0  0  0  0  0  0
    9.2419   -5.8410    1.9399 C   0  0  0  0  0  0  0  0  0  0  0  0
   -9.4296    4.7495   -2.2522 C   0  0  0  0  0  0  0  0  0  0  0  0
    9.4908   -6.8447    2.8167 C   0  0  0  0  0  0  0  0  0  0  0  0
    8.4652   -7.6093    4.0002 S   0  0  0  0  0  0  0  0  0  0  0  0
    9.7544   -8.7155    4.4685 C   0  0  0  0  0  0  0  0  0  0  0  0
   10.8847   -8.4785    3.7574 N   0  0  0  0  0  0  0  0  0  0  0  0
   10.8254   -7.4647    2.8228 C   0  0  0  0  0  0  0  0  0  0  0  0
    9.5887   -9.8581    5.6230 S   0  0  0  0  0  0  0  0  0  0  0  0
   12.0917   -9.2641    3.9250 C   0  0  0  0  0  0  0  0  0  0  0  0
   12.0245  -10.5541    3.1173 C   0  0  0  0  0  0  0  0  0  0  0  0
   11.7587   -7.1457    2.1188 O   0  0  0  0  0  0  0  0  0  0  0  0
   -9.7174    5.6816   -3.1940 C   0  0  0  0  0  0  0  0  0  0  0  0
   -8.7187    6.4165   -4.4184 S   0  0  0  0  0  0  0  0  0  0  0  0
  -10.0588    7.4167   -4.9746 C   0  0  0  0  0  0  0  0  0  0  0  0
  -11.1816    7.1757   -4.2530 N   0  0  0  0  0  0  0  0  0  0  0  0
  -11.0823    6.2286   -3.2539 C   0  0  0  0  0  0  0  0  0  0  0  0
   -9.9349    8.4953   -6.1940 S   0  0  0  0  0  0  0  0  0  0  0  0
  -12.4388    7.8478   -4.5176 C   0  0  0  0  0  0  0  0  0  0  0  0
  -13.1921    7.1811   -5.6616 C   0  0  0  0  0  0  0  0  0  0  0  0
  -12.0040    5.9158   -2.5320 O   0  0  0  0  0  0  0  0  0  0  0  0
   -0.1080   -1.9717    1.9054 H   0  0  0  0  0  0  0  0  0  0  0  0
    0.0479    1.1852   -1.9866 H   0  0  0  0  0  0  0  0  0  0  0  0
    5.3108   -1.5095   -1.1081 H   0  0  0  0  0  0  0  0  0  0  0  0
   -5.3922    0.6598    0.9839 H   0  0  0  0  0  0  0  0  0  0  0  0
    7.0973   -2.6650   -0.5239 H   0  0  0  0  0  0  0  0  0  0  0  0
    9.0010   -4.0132    0.0837 H   0  0  0  0  0  0  0  0  0  0  0  0
   -7.2012    1.7513    0.3548 H   0  0  0  0  0  0  0  0  0  0  0  0
   -9.1439    3.0056   -0.3241 H   0  0  0  0  0  0  0  0  0  0  0  0
    2.0462    1.3795   -3.5349 H   0  0  0  0  0  0  0  0  0  0  0  0
    1.7722    0.7167   -5.8775 H   0  0  0  0  0  0  0  0  0  0  0  0
    2.4499   -3.3548   -4.8085 H   0  0  0  0  0  0  0  0  0  0  0  0
    2.7061   -2.7008   -2.4641 H   0  0  0  0  0  0  0  0  0  0  0  0
    1.9498    1.9372    0.2613 H   0  0  0  0  0  0  0  0  0  0  0  0
    3.2121    4.0188    0.5147 H   0  0  0  0  0  0  0  0  0  0  0  0
    6.0246    2.6813   -2.3974 H   0  0  0  0  0  0  0  0  0  0  0  0
    4.7556    0.5999   -2.6651 H   0  0  0  0  0  0  0  0  0  0  0  0
   -2.0623   -2.0850    3.5049 H   0  0  0  0  0  0  0  0  0  0  0  0
   -1.7390   -1.3394    5.8157 H   0  0  0  0  0  0  0  0  0  0  0  0
   -2.4602    2.6893    4.6205 H   0  0  0  0  0  0  0  0  0  0  0  0
   -2.7663    1.9526    2.3072 H   0  0  0  0  0  0  0  0  0  0  0  0
   -4.7904   -1.3641    2.6390 H   0  0  0  0  0  0  0  0  0  0  0  0
   -6.0227   -3.4782    2.4731 H   0  0  0  0  0  0  0  0  0  0  0  0
   -3.2184   -4.8836   -0.4145 H   0  0  0  0  0  0  0  0  0  0  0  0
   -1.9944   -2.7694   -0.2645 H   0  0  0  0  0  0  0  0  0  0  0  0
   -1.5363    2.1927    6.8427 H   0  0  0  0  0  0  0  0  0  0  0  0
   -1.2438    0.5199    7.3401 H   0  0  0  0  0  0  0  0  0  0  0  0
   -4.7941   -6.4379    0.6502 H   0  0  0  0  0  0  0  0  0  0  0  0
   -5.9555   -5.8568    1.8520 H   0  0  0  0  0  0  0  0  0  0  0  0
    4.8379    5.5821   -0.4535 H   0  0  0  0  0  0  0  0  0  0  0  0
    5.9969    5.0329   -1.6726 H   0  0  0  0  0  0  0  0  0  0  0  0
    2.2323   -0.9745   -7.6089 H   0  0  0  0  0  0  0  0  0  0  0  0
    2.4900   -2.6670   -7.1615 H   0  0  0  0  0  0  0  0  0  0  0  0
   -0.1824   -1.1883   -7.0198 H   0  0  0  0  0  0  0  0  0  0  0  0
    0.0734   -2.8733   -6.5686 H   0  0  0  0  0  0  0  0  0  0  0  0
    0.2769   -2.3705   -8.2505 H   0  0  0  0  0  0  0  0  0  0  0  0
    7.2383    3.7655    0.0824 H   0  0  0  0  0  0  0  0  0  0  0  0
    7.1334    5.4810    0.4923 H   0  0  0  0  0  0  0  0  0  0  0  0
    6.0823    4.3104    1.2970 H   0  0  0  0  0  0  0  0  0  0  0  0
   -3.1924    1.4760    8.5519 H   0  0  0  0  0  0  0  0  0  0  0  0
   -3.9964    1.8104    7.0146 H   0  0  0  0  0  0  0  0  0  0  0  0
   -3.7047    0.1434    7.5109 H   0  0  0  0  0  0  0  0  0  0  0  0
   -7.2385   -4.7023    0.0494 H   0  0  0  0  0  0  0  0  0  0  0  0
   -7.0985   -6.4328   -0.2788 H   0  0  0  0  0  0  0  0  0  0  0  0
   -6.0800   -5.2794   -1.1479 H   0  0  0  0  0  0  0  0  0  0  0  0
   10.0984   -5.5958    1.3182 H   0  0  0  0  0  0  0  0  0  0  0  0
  -10.2812    4.5009   -1.6252 H   0  0  0  0  0  0  0  0  0  0  0  0
   12.2052   -9.4859    4.9887 H   0  0  0  0  0  0  0  0  0  0  0  0
   12.9188   -8.6395    3.5797 H   0  0  0  0  0  0  0  0  0  0  0  0
   12.9451  -11.1148    3.2498 H   0  0  0  0  0  0  0  0  0  0  0  0
   11.8986  -10.3306    2.0605 H   0  0  0  0  0  0  0  0  0  0  0  0
   11.1912  -11.1662    3.4540 H   0  0  0  0  0  0  0  0  0  0  0  0
  -12.2193    8.8897   -4.7628 H   0  0  0  0  0  0  0  0  0  0  0  0
  -13.0195    7.7924   -3.5939 H   0  0  0  0  0  0  0  0  0  0  0  0
  -14.1319    7.6992   -5.8282 H   0  0  0  0  0  0  0  0  0  0  0  0
  -13.4021    6.1418   -5.4199 H   0  0  0  0  0  0  0  0  0  0  0  0
  -12.6037    7.2231   -6.5751 H   0  0  0  0  0  0  0  0  0  0  0  0
  1  2  1  0  0  0  0
  2  3  2  0  0  0  0
  3  4  1  0  0  0  0
  4  5  2  0  0  0  0
  5  6  1  0  0  0  0
  6  1  2  0  0  0  0
  1  7  1  0  0  0  0
  7  8  1  0  0  0  0
  8  9  2  0  0  0  0
  9  2  1  0  0  0  0
  8 10  1  0  0  0  0
 10 11  2  0  0  0  0
 11 12  1  0  0  0  0
 12  9  1  0  0  0  0
  4 13  1  0  0  0  0
 13 14  1  0  0  0  0
 14 15  2  0  0  0  0
 15  5  1  0  0  0  0
 14 16  1  0  0  0  0
 16 17  2  0  0  0  0
 17 18  1  0  0  0  0
 18 15  1  0  0  0  0
 11 19  1  0  0  0  0
 17 20  1  0  0  0  0
 13 21  1  0  0  0  0
 13 22  1  0  0  0  0
  7 23  1  0  0  0  0
  7 24  1  0  0  0  0
 19 25  2  0  0  0  0
 25 26  1  0  0  0  0
 26 27  2  0  0  0  0
 27 28  1  0  0  0  0
 28 29  1  0  0  0  0
 29 19  1  0  0  0  0
 20 30  2  0  0  0  0
 30 31  1  0  0  0  0
 31 32  2  0  0  0  0
 32 33  1  0  0  0  0
 33 34  1  0  0  0  0
 34 20  1  0  0  0  0
 28 35  2  0  0  0  0
 35 36  1  0  0  0  0
 36 37  1  0  0  0  0
 37 29  2  0  0  0  0
 33 38  2  0  0  0  0
 38 39  1  0  0  0  0
 39 40  1  0  0  0  0
 40 34  2  0  0  0  0
 23 41  2  0  0  0  0
 41 42  1  0  0  0  0
 42 43  2  0  0  0  0
 43 44  1  0  0  0  0
 44 45  2  0  0  0  0
 45 23  1  0  0  0  0
 24 46  2  0  0  0  0
 46 47  1  0  0  0  0
 47 48  2  0  0  0  0
 48 49  1  0  0  0  0
 49 50  2  0  0  0  0
 50 24  1  0  0  0  0
 21 51  2  0  0  0  0
 51 52  1  0  0  0  0
 52 53  2  0  0  0  0
 53 54  1  0  0  0  0
 54 55  2  0  0  0  0
 55 21  1  0  0  0  0
 22 56  2  0  0  0  0
 56 57  1  0  0  0  0
 57 58  2  0  0  0  0
 58 59  1  0  0  0  0
 59 60  2  0  0  0  0
 60 22  1  0  0  0  0
 53 61  1  0  0  0  0
 58 62  1  0  0  0  0
 48 63  1  0  0  0  0
 43 64  1  0  0  0  0
 64 65  1  0  0  0  0
 63 66  1  0  0  0  0
 61 67  1  0  0  0  0
 62 68  1  0  0  0  0
 27 69  1  0  0  0  0
 32 70  1  0  0  0  0
 69 71  2  0  0  0  0
 71 72  1  0  0  0  0
 72 73  1  0  0  0  0
 73 74  1  0  0  0  0
 74 75  1  0  0  0  0
 75 71  1  0  0  0  0
 73 76  2  0  0  0  0
 74 77  1  0  0  0  0
 77 78  1  0  0  0  0
 75 79  2  0  0  0  0
 70 80  2  0  0  0  0
 80 81  1  0  0  0  0
 81 82  1  0  0  0  0
 82 83  1  0  0  0  0
 83 84  1  0  0  0  0
 84 80  1  0  0  0  0
 82 85  2  0  0  0  0
 83 86  1  0  0  0  0
 86 87  1  0  0  0  0
 84 88  2  0  0  0  0
  3 89  1  0  0  0  0
  6 90  1  0  0  0  0
 10 91  1  0  0  0  0
 16 92  1  0  0  0  0
 25 93  1  0  0  0  0
 26 94  1  0  0  0  0
 30 95  1  0  0  0  0
 31 96  1  0  0  0  0
 41 97  1  0  0  0  0
 42 98  1  0  0  0  0
 44 99  1  0  0  0  0
 45100  1  0  0  0  0
 46101  1  0  0  0  0
 47102  1  0  0  0  0
 49103  1  0  0  0  0
 50104  1  0  0  0  0
 51105  1  0  0  0  0
 52106  1  0  0  0  0
 54107  1  0  0  0  0
 55108  1  0  0  0  0
 56109  1  0  0  0  0
 57110  1  0  0  0  0
 59111  1  0  0  0  0
 60112  1  0  0  0  0
 61113  1  0  0  0  0
 61114  1  0  0  0  0
 62115  1  0  0  0  0
 62116  1  0  0  0  0
 63117  1  0  0  0  0
 63118  1  0  0  0  0
 64119  1  0  0  0  0
 64120  1  0  0  0  0
 65121  1  0  0  0  0
 65122  1  0  0  0  0
 65123  1  0  0  0  0
 66124  1  0  0  0  0
 66125  1  0  0  0  0
 66126  1  0  0  0  0
 67127  1  0  0  0  0
 67128  1  0  0  0  0
 67129  1  0  0  0  0
 68130  1  0  0  0  0
 68131  1  0  0  0  0
 68132  1  0  0  0  0
 69133  1  0  0  0  0
 70134  1  0  0  0  0
 77135  1  0  0  0  0
 77136  1  0  0  0  0
 78137  1  0  0  0  0
 78138  1  0  0  0  0
 78139  1  0  0  0  0
 86140  1  0  0  0  0
 86141  1  0  0  0  0
 87142  1  0  0  0  0
 87143  1  0  0  0  0
 87144  1  0  0  0  0
M  END
