164
IDT-3EsT-2IC2F.sdf
C         -0.22230        1.63940        0.85290
C         -0.41770        1.51370       -0.54350
C          0.03670        0.40590       -1.25450
C          0.67810       -0.57840       -0.54040
C          0.83110       -0.47530        0.86330
C          0.39740        0.64320        1.57040
C         -0.74220        2.97700        1.35610
C         -1.31890        3.55400        0.08920
C         -1.11480        2.68430       -0.97360
C         -2.03470        4.69060       -0.26230
C         -2.38360        4.69010       -1.60430
S         -1.78580        3.26860       -2.43800
C          1.27560       -1.87520       -1.06000
C          1.71860       -2.51990        0.22730
C          1.46210       -1.68000        1.30190
C          2.30710       -3.72200        0.59520
C          2.47140       -3.82000        1.96810
S          1.93970       -2.36820        2.79710
C         -3.11020        5.67340       -2.32130
C          2.97430       -4.92270        2.70310
C          2.51440       -1.67260       -1.91650
C          0.20350       -2.66310       -1.78800
C         -1.85540        2.88490        2.38060
C          0.45410        3.74870        1.88800
C         -2.19250        4.01170        3.12130
C         -3.23010        3.96830        4.03230
C         -3.96630        2.80500        4.21860
C         -3.63610        1.68780        3.46370
C         -2.59740        1.72530        2.55070
C          0.87530        3.55380        3.19780
C          1.99190        4.20870        3.68020
C          2.72150        5.06870        2.86910
C          2.29970        5.25490        1.55990
C          1.18420        4.59960        1.07090
C          3.18450       -0.45910       -1.96270
C          4.34200       -0.32800       -2.70900
C          4.86530       -1.40240       -3.41450
C          4.19500       -2.61810       -3.35650
C          3.03830       -2.75450       -2.61450
C         -0.61680       -3.55130       -1.10530
C         -1.60270       -4.25240       -1.77580
C         -1.80250       -4.07790       -3.13840
C         -0.99520       -3.17020       -3.81180
C         -0.00800       -2.46770       -3.14700
C          6.09820       -1.24420       -4.25610
C         -2.82740       -4.89170       -3.87340
C          3.90500        5.81600        3.41130
C         -5.05980        2.74340        5.24520
C          3.45990        7.14130        4.03320
C         -4.50370        2.26060        6.58660
C          5.72440       -0.81770       -5.67720
C         -2.21040       -6.20370       -4.36280
S          3.56080       -4.74290        4.31650
C          3.99260       -6.44260        4.41610
C          3.68810       -7.08060        3.22210
C          3.10860       -6.24550        2.27300
S         -2.95670        5.81530       -4.03750
C         -4.01850        7.20360       -4.06240
C         -4.44160        7.51090       -2.76780
C         -3.96120        6.65080       -1.79330
C         -4.41800        6.71700       -0.38080
O         -4.85090        5.52140        0.02650
C         -5.33930        5.43350        1.36710
C         -4.44210        7.93650       -5.17890
C         -4.17920        7.74920       -6.51400
C         -3.34180        6.68510       -7.07440
C         -3.37360        6.87080       -8.53960
C         -4.17740        7.98010       -8.85070
C         -4.69020        8.55570       -7.60530
C         -2.74860        6.11640       -9.51230
C         -2.94080        6.48670      -10.83340
C         -3.73950        7.58460      -11.15400
C         -4.36490        8.34330      -10.17520
O         -2.73640        5.81530       -6.47580
C         -5.50290        9.65570       -7.52580
C         -6.01510       10.22190       -6.33870
C         -5.95110       10.39080       -8.64460
N         -6.34950       11.03460       -9.50690
N         -6.47710       10.74190       -5.42500
C          2.62650       -6.75850        0.96050
O          1.32010       -6.52070        0.81690
C          0.68890       -6.95140       -0.39370
C          4.53890       -6.87630        5.63680
C          4.99100       -8.10140        6.05620
C          5.06740       -9.36610        5.29370
C          5.74970      -10.32860        6.18720
C          6.02890       -9.71880        7.41950
C          5.53230       -8.34310        7.38450
C          6.09230      -11.63890        5.91720
C          6.73810      -12.35160        6.91380
C          7.02500      -11.75340        8.14150
C          6.67670      -10.43870        8.41210
O          4.66370       -9.61560        4.17840
C          5.55430       -7.48360        8.45150
C          5.03920       -6.16940        8.48760
C          6.08670       -7.81010        9.71820
N          4.64100       -5.10090        8.62570
N          6.50350       -8.00130       10.77020
O          3.31690       -7.32730        0.15770
C         -0.62690       -7.63110       -0.05930
O         -4.43890        7.71430        0.29190
C         -5.93060        4.05180        1.56390
F         -3.91080        7.91780      -12.43780
F         -2.35650        5.78370      -11.81110
F          7.09160      -13.62430        6.69840
F          7.65340      -12.46300        9.08530
H         -0.10830        0.33540       -2.32130
H          0.54350        0.71200        2.63710
H         -2.26640        5.50050        0.40400
H          2.62920       -4.48170       -0.09160
H         -1.62850        4.92430        2.99130
H         -3.47310        4.85070        4.60730
H         -4.20130        0.77510        3.58790
H         -2.36290        0.84500        1.96980
H          0.31820        2.89550        3.84860
H          2.30360        4.04710        4.70220
H          2.85260        5.91860        0.91060
H          0.88130        4.75700        0.04600
H          2.80520        0.39100       -1.41460
H          4.84910        0.62590       -2.73630
H          4.58710       -3.47000       -3.89320
H          2.53150       -3.70830       -2.58330
H         -0.48380       -3.70230       -0.04370
H         -2.22730       -4.94560       -1.23070
H         -1.14030       -3.01110       -4.87070
H          0.61450       -1.77280       -3.69170
H          6.64260       -2.18960       -4.29580
H          6.75310       -0.49020       -3.81490
H         -3.20340       -4.32960       -4.73010
H         -3.66840       -5.11360       -3.21340
H          4.40710        5.21330        4.17060
H          4.61650        6.01670        2.60790
H         -5.84240        2.05800        4.91310
H         -5.50230        3.73310        5.37620
H          2.76080        6.96160        4.84690
H          4.31660        7.68430        4.42480
H          2.96580        7.76160        3.28870
H         -5.29380        2.21590        7.33210
H         -4.06850        1.26950        6.48100
H         -3.72990        2.93810        6.94050
H          5.07990       -1.56250       -6.13870
H          6.61730       -0.70510       -6.28740
H          5.19300        0.13130       -5.66020
H         -1.38000       -6.00320       -5.03600
H         -2.95070       -6.79860       -4.89220
H         -1.83530       -6.78310       -3.52170
H          3.86870       -8.12790        3.05990
H         -5.10690        8.32940       -2.55530
H         -6.08530        6.22040        1.52350
H         -4.50650        5.60550        2.05830
H         -5.08530        8.76820       -4.91820
H         -2.13370        5.26800       -9.25780
H         -4.97090        9.18110      -10.47820
H          0.51880       -6.06030       -1.00930
H          1.36660       -7.63110       -0.92030
H          4.61580       -6.07630        6.36350
H          5.86820      -12.09350        4.96540
H          6.92350      -10.02660        9.37640
H         -0.45260       -8.51950        0.54210
H         -1.12950       -7.91990       -0.97800
H         -1.26560       -6.95240        0.49960
H         -5.16650        3.29520        1.40750
H         -6.73960        3.88650        0.85770
H         -6.31410        3.96060        2.57540
