IDT-3EsT-2IC2F.sdf
  xtb     12202113423D
 energy: -285.917527375715 gnorm: 0.000758355293 xtb: 6.4.1 (unknown)
164178  0     0  0            999 V2000
   -0.2223    1.6394    0.8529 C   0  0  0  0  0  0  0  0  0  0  0  0
   -0.4177    1.5137   -0.5435 C   0  0  0  0  0  0  0  0  0  0  0  0
    0.0367    0.4059   -1.2545 C   0  0  0  0  0  0  0  0  0  0  0  0
    0.6781   -0.5784   -0.5404 C   0  0  0  0  0  0  0  0  0  0  0  0
    0.8311   -0.4753    0.8633 C   0  0  0  0  0  0  0  0  0  0  0  0
    0.3974    0.6432    1.5704 C   0  0  0  0  0  0  0  0  0  0  0  0
   -0.7422    2.9770    1.3561 C   0  0  0  0  0  0  0  0  0  0  0  0
   -1.3189    3.5540    0.0892 C   0  0  0  0  0  0  0  0  0  0  0  0
   -1.1148    2.6843   -0.9736 C   0  0  0  0  0  0  0  0  0  0  0  0
   -2.0347    4.6906   -0.2623 C   0  0  0  0  0  0  0  0  0  0  0  0
   -2.3836    4.6901   -1.6043 C   0  0  0  0  0  0  0  0  0  0  0  0
   -1.7858    3.2686   -2.4380 S   0  0  0  0  0  0  0  0  0  0  0  0
    1.2756   -1.8752   -1.0600 C   0  0  0  0  0  0  0  0  0  0  0  0
    1.7186   -2.5199    0.2273 C   0  0  0  0  0  0  0  0  0  0  0  0
    1.4621   -1.6800    1.3019 C   0  0  0  0  0  0  0  0  0  0  0  0
    2.3071   -3.7220    0.5952 C   0  0  0  0  0  0  0  0  0  0  0  0
    2.4714   -3.8200    1.9681 C   0  0  0  0  0  0  0  0  0  0  0  0
    1.9397   -2.3682    2.7971 S   0  0  0  0  0  0  0  0  0  0  0  0
   -3.1102    5.6734   -2.3213 C   0  0  0  0  0  0  0  0  0  0  0  0
    2.9743   -4.9227    2.7031 C   0  0  0  0  0  0  0  0  0  0  0  0
    2.5144   -1.6726   -1.9165 C   0  0  0  0  0  0  0  0  0  0  0  0
    0.2035   -2.6631   -1.7880 C   0  0  0  0  0  0  0  0  0  0  0  0
   -1.8554    2.8849    2.3806 C   0  0  0  0  0  0  0  0  0  0  0  0
    0.4541    3.7487    1.8880 C   0  0  0  0  0  0  0  0  0  0  0  0
   -2.1925    4.0117    3.1213 C   0  0  0  0  0  0  0  0  0  0  0  0
   -3.2301    3.9683    4.0323 C   0  0  0  0  0  0  0  0  0  0  0  0
   -3.9663    2.8050    4.2186 C   0  0  0  0  0  0  0  0  0  0  0  0
   -3.6361    1.6878    3.4637 C   0  0  0  0  0  0  0  0  0  0  0  0
   -2.5974    1.7253    2.5507 C   0  0  0  0  0  0  0  0  0  0  0  0
    0.8753    3.5538    3.1978 C   0  0  0  0  0  0  0  0  0  0  0  0
    1.9919    4.2087    3.6802 C   0  0  0  0  0  0  0  0  0  0  0  0
    2.7215    5.0687    2.8691 C   0  0  0  0  0  0  0  0  0  0  0  0
    2.2997    5.2549    1.5599 C   0  0  0  0  0  0  0  0  0  0  0  0
    1.1842    4.5996    1.0709 C   0  0  0  0  0  0  0  0  0  0  0  0
    3.1845   -0.4591   -1.9627 C   0  0  0  0  0  0  0  0  0  0  0  0
    4.3420   -0.3280   -2.7090 C   0  0  0  0  0  0  0  0  0  0  0  0
    4.8653   -1.4024   -3.4145 C   0  0  0  0  0  0  0  0  0  0  0  0
    4.1950   -2.6181   -3.3565 C   0  0  0  0  0  0  0  0  0  0  0  0
    3.0383   -2.7545   -2.6145 C   0  0  0  0  0  0  0  0  0  0  0  0
   -0.6168   -3.5513   -1.1053 C   0  0  0  0  0  0  0  0  0  0  0  0
   -1.6027   -4.2524   -1.7758 C   0  0  0  0  0  0  0  0  0  0  0  0
   -1.8025   -4.0779   -3.1384 C   0  0  0  0  0  0  0  0  0  0  0  0
   -0.9952   -3.1702   -3.8118 C   0  0  0  0  0  0  0  0  0  0  0  0
   -0.0080   -2.4677   -3.1470 C   0  0  0  0  0  0  0  0  0  0  0  0
    6.0982   -1.2442   -4.2561 C   0  0  0  0  0  0  0  0  0  0  0  0
   -2.8274   -4.8917   -3.8734 C   0  0  0  0  0  0  0  0  0  0  0  0
    3.9050    5.8160    3.4113 C   0  0  0  0  0  0  0  0  0  0  0  0
   -5.0598    2.7434    5.2452 C   0  0  0  0  0  0  0  0  0  0  0  0
    3.4599    7.1413    4.0332 C   0  0  0  0  0  0  0  0  0  0  0  0
   -4.5037    2.2606    6.5866 C   0  0  0  0  0  0  0  0  0  0  0  0
    5.7244   -0.8177   -5.6772 C   0  0  0  0  0  0  0  0  0  0  0  0
   -2.2104   -6.2037   -4.3628 C   0  0  0  0  0  0  0  0  0  0  0  0
    3.5608   -4.7429    4.3165 S   0  0  0  0  0  0  0  0  0  0  0  0
    3.9926   -6.4426    4.4161 C   0  0  0  0  0  0  0  0  0  0  0  0
    3.6881   -7.0806    3.2221 C   0  0  0  0  0  0  0  0  0  0  0  0
    3.1086   -6.2455    2.2730 C   0  0  0  0  0  0  0  0  0  0  0  0
   -2.9567    5.8153   -4.0375 S   0  0  0  0  0  0  0  0  0  0  0  0
   -4.0185    7.2036   -4.0624 C   0  0  0  0  0  0  0  0  0  0  0  0
   -4.4416    7.5109   -2.7678 C   0  0  0  0  0  0  0  0  0  0  0  0
   -3.9612    6.6508   -1.7933 C   0  0  0  0  0  0  0  0  0  0  0  0
   -4.4180    6.7170   -0.3808 C   0  0  0  0  0  0  0  0  0  0  0  0
   -4.8509    5.5214    0.0265 O   0  0  0  0  0  0  0  0  0  0  0  0
   -5.3393    5.4335    1.3671 C   0  0  0  0  0  0  0  0  0  0  0  0
   -4.4421    7.9365   -5.1789 C   0  0  0  0  0  0  0  0  0  0  0  0
   -4.1792    7.7492   -6.5140 C   0  0  0  0  0  0  0  0  0  0  0  0
   -3.3418    6.6851   -7.0744 C   0  0  0  0  0  0  0  0  0  0  0  0
   -3.3736    6.8708   -8.5396 C   0  0  0  0  0  0  0  0  0  0  0  0
   -4.1774    7.9801   -8.8507 C   0  0  0  0  0  0  0  0  0  0  0  0
   -4.6902    8.5557   -7.6053 C   0  0  0  0  0  0  0  0  0  0  0  0
   -2.7486    6.1164   -9.5123 C   0  0  0  0  0  0  0  0  0  0  0  0
   -2.9408    6.4867  -10.8334 C   0  0  0  0  0  0  0  0  0  0  0  0
   -3.7395    7.5846  -11.1540 C   0  0  0  0  0  0  0  0  0  0  0  0
   -4.3649    8.3433  -10.1752 C   0  0  0  0  0  0  0  0  0  0  0  0
   -2.7364    5.8153   -6.4758 O   0  0  0  0  0  0  0  0  0  0  0  0
   -5.5029    9.6557   -7.5258 C   0  0  0  0  0  0  0  0  0  0  0  0
   -6.0151   10.2219   -6.3387 C   0  0  0  0  0  0  0  0  0  0  0  0
   -5.9511   10.3908   -8.6446 C   0  0  0  0  0  0  0  0  0  0  0  0
   -6.3495   11.0346   -9.5069 N   0  0  0  0  0  0  0  0  0  0  0  0
   -6.4771   10.7419   -5.4250 N   0  0  0  0  0  0  0  0  0  0  0  0
    2.6265   -6.7585    0.9605 C   0  0  0  0  0  0  0  0  0  0  0  0
    1.3201   -6.5207    0.8169 O   0  0  0  0  0  0  0  0  0  0  0  0
    0.6889   -6.9514   -0.3937 C   0  0  0  0  0  0  0  0  0  0  0  0
    4.5389   -6.8763    5.6368 C   0  0  0  0  0  0  0  0  0  0  0  0
    4.9910   -8.1014    6.0562 C   0  0  0  0  0  0  0  0  0  0  0  0
    5.0674   -9.3661    5.2937 C   0  0  0  0  0  0  0  0  0  0  0  0
    5.7497  -10.3286    6.1872 C   0  0  0  0  0  0  0  0  0  0  0  0
    6.0289   -9.7188    7.4195 C   0  0  0  0  0  0  0  0  0  0  0  0
    5.5323   -8.3431    7.3845 C   0  0  0  0  0  0  0  0  0  0  0  0
    6.0923  -11.6389    5.9172 C   0  0  0  0  0  0  0  0  0  0  0  0
    6.7381  -12.3516    6.9138 C   0  0  0  0  0  0  0  0  0  0  0  0
    7.0250  -11.7534    8.1415 C   0  0  0  0  0  0  0  0  0  0  0  0
    6.6767  -10.4387    8.4121 C   0  0  0  0  0  0  0  0  0  0  0  0
    4.6637   -9.6156    4.1784 O   0  0  0  0  0  0  0  0  0  0  0  0
    5.5543   -7.4836    8.4515 C   0  0  0  0  0  0  0  0  0  0  0  0
    5.0392   -6.1694    8.4876 C   0  0  0  0  0  0  0  0  0  0  0  0
    6.0867   -7.8101    9.7182 C   0  0  0  0  0  0  0  0  0  0  0  0
    4.6410   -5.1009    8.6257 N   0  0  0  0  0  0  0  0  0  0  0  0
    6.5035   -8.0013   10.7702 N   0  0  0  0  0  0  0  0  0  0  0  0
    3.3169   -7.3273    0.1577 O   0  0  0  0  0  0  0  0  0  0  0  0
   -0.6269   -7.6311   -0.0593 C   0  0  0  0  0  0  0  0  0  0  0  0
   -4.4389    7.7143    0.2919 O   0  0  0  0  0  0  0  0  0  0  0  0
   -5.9306    4.0518    1.5639 C   0  0  0  0  0  0  0  0  0  0  0  0
   -3.9108    7.9178  -12.4378 F   0  0  0  0  0  0  0  0  0  0  0  0
   -2.3565    5.7837  -11.8111 F   0  0  0  0  0  0  0  0  0  0  0  0
    7.0916  -13.6243    6.6984 F   0  0  0  0  0  0  0  0  0  0  0  0
    7.6534  -12.4630    9.0853 F   0  0  0  0  0  0  0  0  0  0  0  0
   -0.1083    0.3354   -2.3213 H   0  0  0  0  0  0  0  0  0  0  0  0
    0.5435    0.7120    2.6371 H   0  0  0  0  0  0  0  0  0  0  0  0
   -2.2664    5.5005    0.4040 H   0  0  0  0  0  0  0  0  0  0  0  0
    2.6292   -4.4817   -0.0916 H   0  0  0  0  0  0  0  0  0  0  0  0
   -1.6285    4.9243    2.9913 H   0  0  0  0  0  0  0  0  0  0  0  0
   -3.4731    4.8507    4.6073 H   0  0  0  0  0  0  0  0  0  0  0  0
   -4.2013    0.7751    3.5879 H   0  0  0  0  0  0  0  0  0  0  0  0
   -2.3629    0.8450    1.9698 H   0  0  0  0  0  0  0  0  0  0  0  0
    0.3182    2.8955    3.8486 H   0  0  0  0  0  0  0  0  0  0  0  0
    2.3036    4.0471    4.7022 H   0  0  0  0  0  0  0  0  0  0  0  0
    2.8526    5.9186    0.9106 H   0  0  0  0  0  0  0  0  0  0  0  0
    0.8813    4.7570    0.0460 H   0  0  0  0  0  0  0  0  0  0  0  0
    2.8052    0.3910   -1.4146 H   0  0  0  0  0  0  0  0  0  0  0  0
    4.8491    0.6259   -2.7363 H   0  0  0  0  0  0  0  0  0  0  0  0
    4.5871   -3.4700   -3.8932 H   0  0  0  0  0  0  0  0  0  0  0  0
    2.5315   -3.7083   -2.5833 H   0  0  0  0  0  0  0  0  0  0  0  0
   -0.4838   -3.7023   -0.0437 H   0  0  0  0  0  0  0  0  0  0  0  0
   -2.2273   -4.9456   -1.2307 H   0  0  0  0  0  0  0  0  0  0  0  0
   -1.1403   -3.0111   -4.8707 H   0  0  0  0  0  0  0  0  0  0  0  0
    0.6145   -1.7728   -3.6917 H   0  0  0  0  0  0  0  0  0  0  0  0
    6.6426   -2.1896   -4.2958 H   0  0  0  0  0  0  0  0  0  0  0  0
    6.7531   -0.4902   -3.8149 H   0  0  0  0  0  0  0  0  0  0  0  0
   -3.2034   -4.3296   -4.7301 H   0  0  0  0  0  0  0  0  0  0  0  0
   -3.6684   -5.1136   -3.2134 H   0  0  0  0  0  0  0  0  0  0  0  0
    4.4071    5.2133    4.1706 H   0  0  0  0  0  0  0  0  0  0  0  0
    4.6165    6.0167    2.6079 H   0  0  0  0  0  0  0  0  0  0  0  0
   -5.8424    2.0580    4.9131 H   0  0  0  0  0  0  0  0  0  0  0  0
   -5.5023    3.7331    5.3762 H   0  0  0  0  0  0  0  0  0  0  0  0
    2.7608    6.9616    4.8469 H   0  0  0  0  0  0  0  0  0  0  0  0
    4.3166    7.6843    4.4248 H   0  0  0  0  0  0  0  0  0  0  0  0
    2.9658    7.7616    3.2887 H   0  0  0  0  0  0  0  0  0  0  0  0
   -5.2938    2.2159    7.3321 H   0  0  0  0  0  0  0  0  0  0  0  0
   -4.0685    1.2695    6.4810 H   0  0  0  0  0  0  0  0  0  0  0  0
   -3.7299    2.9381    6.9405 H   0  0  0  0  0  0  0  0  0  0  0  0
    5.0799   -1.5625   -6.1387 H   0  0  0  0  0  0  0  0  0  0  0  0
    6.6173   -0.7051   -6.2874 H   0  0  0  0  0  0  0  0  0  0  0  0
    5.1930    0.1313   -5.6602 H   0  0  0  0  0  0  0  0  0  0  0  0
   -1.3800   -6.0032   -5.0360 H   0  0  0  0  0  0  0  0  0  0  0  0
   -2.9507   -6.7986   -4.8922 H   0  0  0  0  0  0  0  0  0  0  0  0
   -1.8353   -6.7831   -3.5217 H   0  0  0  0  0  0  0  0  0  0  0  0
    3.8687   -8.1279    3.0599 H   0  0  0  0  0  0  0  0  0  0  0  0
   -5.1069    8.3294   -2.5553 H   0  0  0  0  0  0  0  0  0  0  0  0
   -6.0853    6.2204    1.5235 H   0  0  0  0  0  0  0  0  0  0  0  0
   -4.5065    5.6055    2.0583 H   0  0  0  0  0  0  0  0  0  0  0  0
   -5.0853    8.7682   -4.9182 H   0  0  0  0  0  0  0  0  0  0  0  0
   -2.1337    5.2680   -9.2578 H   0  0  0  0  0  0  0  0  0  0  0  0
   -4.9709    9.1811  -10.4782 H   0  0  0  0  0  0  0  0  0  0  0  0
    0.5188   -6.0603   -1.0093 H   0  0  0  0  0  0  0  0  0  0  0  0
    1.3666   -7.6311   -0.9203 H   0  0  0  0  0  0  0  0  0  0  0  0
    4.6158   -6.0763    6.3635 H   0  0  0  0  0  0  0  0  0  0  0  0
    5.8682  -12.0935    4.9654 H   0  0  0  0  0  0  0  0  0  0  0  0
    6.9235  -10.0266    9.3764 H   0  0  0  0  0  0  0  0  0  0  0  0
   -0.4526   -8.5195    0.5421 H   0  0  0  0  0  0  0  0  0  0  0  0
   -1.1295   -7.9199   -0.9780 H   0  0  0  0  0  0  0  0  0  0  0  0
   -1.2656   -6.9524    0.4996 H   0  0  0  0  0  0  0  0  0  0  0  0
   -5.1665    3.2952    1.4075 H   0  0  0  0  0  0  0  0  0  0  0  0
   -6.7396    3.8865    0.8577 H   0  0  0  0  0  0  0  0  0  0  0  0
   -6.3141    3.9606    2.5754 H   0  0  0  0  0  0  0  0  0  0  0  0
  1  2  1  0  0  0  0
  2  3  2  0  0  0  0
  3  4  1  0  0  0  0
  4  5  2  0  0  0  0
  5  6  1  0  0  0  0
  6  1  2  0  0  0  0
  1  7  1  0  0  0  0
  7  8  1  0  0  0  0
  8  9  2  0  0  0  0
  9  2  1  0  0  0  0
  8 10  1  0  0  0  0
 10 11  2  0  0  0  0
 11 12  1  0  0  0  0
 12  9  1  0  0  0  0
  4 13  1  0  0  0  0
 13 14  1  0  0  0  0
 14 15  2  0  0  0  0
 15  5  1  0  0  0  0
 14 16  1  0  0  0  0
 16 17  2  0  0  0  0
 17 18  1  0  0  0  0
 18 15  1  0  0  0  0
 11 19  1  0  0  0  0
 17 20  1  0  0  0  0
 13 21  1  0  0  0  0
 13 22  1  0  0  0  0
  7 23  1  0  0  0  0
  7 24  1  0  0  0  0
 23 25  2  0  0  0  0
 25 26  1  0  0  0  0
 26 27  2  0  0  0  0
 27 28  1  0  0  0  0
 28 29  2  0  0  0  0
 29 23  1  0  0  0  0
 24 30  2  0  0  0  0
 30 31  1  0  0  0  0
 31 32  2  0  0  0  0
 32 33  1  0  0  0  0
 33 34  2  0  0  0  0
 34 24  1  0  0  0  0
 21 35  2  0  0  0  0
 35 36  1  0  0  0  0
 36 37  2  0  0  0  0
 37 38  1  0  0  0  0
 38 39  2  0  0  0  0
 39 21  1  0  0  0  0
 22 40  2  0  0  0  0
 40 41  1  0  0  0  0
 41 42  2  0  0  0  0
 42 43  1  0  0  0  0
 43 44  2  0  0  0  0
 44 22  1  0  0  0  0
 37 45  1  0  0  0  0
 42 46  1  0  0  0  0
 32 47  1  0  0  0  0
 27 48  1  0  0  0  0
 47 49  1  0  0  0  0
 48 50  1  0  0  0  0
 45 51  1  0  0  0  0
 46 52  1  0  0  0  0
 20 53  1  0  0  0  0
 53 54  1  0  0  0  0
 54 55  2  0  0  0  0
 55 56  1  0  0  0  0
 56 20  2  0  0  0  0
 19 57  1  0  0  0  0
 57 58  1  0  0  0  0
 58 59  2  0  0  0  0
 59 60  1  0  0  0  0
 60 19  2  0  0  0  0
 60 61  1  0  0  0  0
 61 62  1  0  0  0  0
 62 63  1  0  0  0  0
 58 64  1  0  0  0  0
 64 65  2  0  0  0  0
 65 66  1  0  0  0  0
 66 67  1  0  0  0  0
 67 68  2  0  0  0  0
 68 69  1  0  0  0  0
 69 65  1  0  0  0  0
 67 70  1  0  0  0  0
 70 71  2  0  0  0  0
 71 72  1  0  0  0  0
 72 73  2  0  0  0  0
 73 68  1  0  0  0  0
 66 74  2  0  0  0  0
 69 75  2  0  0  0  0
 75 76  1  0  0  0  0
 75 77  1  0  0  0  0
 77 78  3  0  0  0  0
 76 79  3  0  0  0  0
 56 80  1  0  0  0  0
 80 81  1  0  0  0  0
 81 82  1  0  0  0  0
 54 83  1  0  0  0  0
 83 84  2  0  0  0  0
 84 85  1  0  0  0  0
 85 86  1  0  0  0  0
 86 87  2  0  0  0  0
 87 88  1  0  0  0  0
 88 84  1  0  0  0  0
 86 89  1  0  0  0  0
 89 90  2  0  0  0  0
 90 91  1  0  0  0  0
 91 92  2  0  0  0  0
 92 87  1  0  0  0  0
 85 93  2  0  0  0  0
 88 94  2  0  0  0  0
 94 95  1  0  0  0  0
 94 96  1  0  0  0  0
 95 97  3  0  0  0  0
 96 98  3  0  0  0  0
 80 99  2  0  0  0  0
 82100  1  0  0  0  0
 61101  2  0  0  0  0
 63102  1  0  0  0  0
 72103  1  0  0  0  0
 71104  1  0  0  0  0
 90105  1  0  0  0  0
 91106  1  0  0  0  0
  3107  1  0  0  0  0
  6108  1  0  0  0  0
 10109  1  0  0  0  0
 16110  1  0  0  0  0
 25111  1  0  0  0  0
 26112  1  0  0  0  0
 28113  1  0  0  0  0
 29114  1  0  0  0  0
 30115  1  0  0  0  0
 31116  1  0  0  0  0
 33117  1  0  0  0  0
 34118  1  0  0  0  0
 35119  1  0  0  0  0
 36120  1  0  0  0  0
 38121  1  0  0  0  0
 39122  1  0  0  0  0
 40123  1  0  0  0  0
 41124  1  0  0  0  0
 43125  1  0  0  0  0
 44126  1  0  0  0  0
 45127  1  0  0  0  0
 45128  1  0  0  0  0
 46129  1  0  0  0  0
 46130  1  0  0  0  0
 47131  1  0  0  0  0
 47132  1  0  0  0  0
 48133  1  0  0  0  0
 48134  1  0  0  0  0
 49135  1  0  0  0  0
 49136  1  0  0  0  0
 49137  1  0  0  0  0
 50138  1  0  0  0  0
 50139  1  0  0  0  0
 50140  1  0  0  0  0
 51141  1  0  0  0  0
 51142  1  0  0  0  0
 51143  1  0  0  0  0
 52144  1  0  0  0  0
 52145  1  0  0  0  0
 52146  1  0  0  0  0
 55147  1  0  0  0  0
 59148  1  0  0  0  0
 63149  1  0  0  0  0
 63150  1  0  0  0  0
 64151  1  0  0  0  0
 70152  1  0  0  0  0
 73153  1  0  0  0  0
 82154  1  0  0  0  0
 82155  1  0  0  0  0
 83156  1  0  0  0  0
 89157  1  0  0  0  0
 92158  1  0  0  0  0
100159  1  0  0  0  0
100160  1  0  0  0  0
100161  1  0  0  0  0
102162  1  0  0  0  0
102163  1  0  0  0  0
102164  1  0  0  0  0
M  END
