142
IDT2-IC-4Cl.sdf
C          3.88880        1.41680        1.95320
C          3.52880        2.01860        3.18530
C          4.50310        2.50500        4.02350
C          5.83190        2.33120        3.63720
C          6.18940        1.70540        2.42020
C          5.21550        1.25480        1.56070
C          7.04620        2.67360        4.30000
C          8.15300        2.28050        3.54240
C          7.69770        1.66620        2.24640
C          2.67330        1.07320        1.29160
C          1.57340        1.43240        2.05220
C          2.01700        2.06040        3.34920
S          7.48130        3.38100        5.78790
C          9.19570        3.13640        5.41600
C          9.35750        2.52740        4.17070
S          2.23890        0.31300       -0.18780
C          0.54520        0.45890        0.23250
C          0.36590        1.06960        1.45990
C          8.06210        2.55600        1.03660
C          8.22300        0.23210        2.07650
C          7.75620       -0.69790        3.19050
C          9.55490        2.74720        0.80420
C          1.57200        3.53020        3.47520
C          1.52310        1.15450        4.49780
C          0.06700        3.74440        3.56670
C          1.90700        1.59050        5.90530
C         10.09740        3.57240        6.39460
C         11.47140        3.54360        6.46430
C         12.43290        3.01900        5.47640
C         13.77050        3.22250        6.07360
C         13.64150        3.83470        7.32960
C         12.22080        4.05420        7.59910
C         14.99960        2.88890        5.54370
C         16.13610        3.17370        6.28970
C         16.01940        3.78370        7.54260
C         14.77710        4.11820        8.07090
O         12.22610        2.51910        4.38830
C         11.73220        4.64640        8.73630
C         10.37880        4.89200        9.05160
C         12.54210        5.11630        9.79260
N         13.13040        5.52270       10.69080
N          9.31380        5.13900        9.40590
C         -3.82550       -0.95480       -2.33130
C         -3.48820       -1.51170       -3.58840
C         -4.48620       -1.96350       -4.41760
C         -5.80470       -1.80670       -3.98990
C         -6.14520       -1.24060       -2.73460
C         -5.14090       -0.81410       -1.89560
C         -7.02370       -2.12810       -4.65380
C         -8.11590       -1.77580       -3.86270
C         -7.65330       -1.19210       -2.54930
C         -2.59960       -0.62490       -1.68330
C         -1.51180       -0.95730       -2.47250
C         -1.97910       -1.54690       -3.78060
S         -7.48740       -2.79590       -6.15300
C         -9.19550       -2.59340       -5.72900
C         -9.33390       -2.03730       -4.45730
S         -2.14700        0.10380       -0.19510
C         -0.45930       -0.02030       -0.64700
C         -0.29600       -0.60290       -1.89010
C         -8.18390       -2.09980       -1.41230
C         -8.19590        0.25340       -2.48130
C         -7.93940        1.02760       -1.19610
C         -7.34620       -2.17670       -0.14180
C         -1.53740       -3.01220       -3.95920
C         -1.50500       -0.60710       -4.90990
C         -0.03410       -3.22280       -4.08120
C         -1.91240       -1.00170       -6.32300
C        -10.11910       -3.00800       -6.69690
C        -11.49200       -2.93690       -6.74820
C        -12.41900       -2.30490       -5.78960
C        -13.75540       -2.38020       -6.41940
C        -13.66300       -3.04290       -7.65290
C        -12.27150       -3.43790       -7.86680
C        -14.95290       -1.89390       -5.93760
C        -16.09280       -2.06920       -6.71170
C        -16.01100       -2.72310       -7.94510
C        -14.80120       -3.21480       -8.42370
O        -12.18850       -1.80670       -4.70590
C        -11.83210       -4.18760       -8.92830
C        -10.51770       -4.65360       -9.14420
C        -12.66520       -4.63690       -9.97520
N        -13.27730       -5.03320      -10.86200
N         -9.48730       -5.09080       -9.40400
Cl        17.68690        2.77370        5.66890
Cl        17.43180        4.13130        8.45710
Cl       -17.42630       -2.92800       -8.89740
Cl       -17.60460       -1.47770       -6.15050
H          4.27620        3.01010        4.94900
H          5.45120        0.78680        0.61700
H         10.33010        2.28030        3.78840
H         -0.61300        1.21990        1.87870
H          7.59770        3.53410        1.18800
H          7.61220        2.11210        0.14600
H          7.88340       -0.15390        1.11330
H          9.31290        0.25730        2.06990
H          6.67040       -0.76310        3.21280
H          8.09880       -0.33960        4.15870
H          8.15770       -1.69630        3.03470
H         10.02860        3.20900        1.66560
H          9.70450        3.39840       -0.05420
H         10.04850        1.80160        0.59910
H          1.95440        4.06550        2.60180
H          2.05250        3.96020        4.35480
H          0.43600        1.08960        4.42560
H          1.92060        0.15170        4.31870
H         -0.35350        3.24180        4.43340
H         -0.14100        4.80810        3.65990
H         -0.43240        3.38140        2.67300
H          1.44800        0.91640        6.62560
H          2.98280        1.54890        6.04780
H          1.56000        2.59760        6.11930
H          9.60050        4.00920        7.25250
H         15.07170        2.41900        4.57570
H         14.73150        4.58690        9.03970
H         -4.28810       -2.43020       -5.36970
H         -5.33040       -0.38780       -0.92450
H        -10.29740       -1.84490       -4.02410
H          0.67710       -0.73680       -2.32750
H         -9.19320       -1.76470       -1.16650
H         -8.26820       -3.11450       -1.81090
H         -9.27480        0.20030       -2.64500
H         -7.76390        0.80670       -3.31990
H         -8.40570        0.54150       -0.34420
H         -8.37150        2.02190       -1.29080
H         -6.87650        1.14310       -1.00670
H         -6.36650       -2.59980       -0.34960
H         -7.21520       -1.20420        0.32140
H         -7.84920       -2.82550        0.57270
H         -2.03260       -3.41470       -4.84380
H         -1.90590       -3.57440       -3.09680
H         -0.41680       -0.54350       -4.85440
H         -1.89950        0.38980       -4.69460
H          0.37210       -2.69610       -4.94030
H          0.17270       -4.28340       -4.20700
H          0.47940       -2.88400       -3.18590
H         -1.46710       -0.30560       -7.03070
H         -2.99070       -0.95840       -6.44550
H         -1.56770       -2.00130       -6.57290
H         -9.64460       -3.44510       -7.56760
H        -14.99860       -1.39060       -4.98480
H        -14.78060       -3.71110       -9.37960
