IDT2Se-4F.sdf
  xtb     12202114223D
 energy: -252.422826233203 gnorm: 0.000410186790 xtb: 6.4.1 (unknown)
146160  0     0  0            999 V2000
   -1.0416    0.7950   -0.7069 C   0  0  0  0  0  0  0  0  0  0  0  0
   -1.0040    0.8109    0.7109 C   0  0  0  0  0  0  0  0  0  0  0  0
   -0.3349   -0.1719    1.4387 C   0  0  0  0  0  0  0  0  0  0  0  0
    0.3038   -1.1580    0.7254 C   0  0  0  0  0  0  0  0  0  0  0  0
    0.2572   -1.1801   -0.6918 C   0  0  0  0  0  0  0  0  0  0  0  0
   -0.4048   -0.1906   -1.4205 C   0  0  0  0  0  0  0  0  0  0  0  0
   -1.7627    2.0214   -1.2447 C   0  0  0  0  0  0  0  0  0  0  0  0
   -2.2344    2.6563    0.0399 C   0  0  0  0  0  0  0  0  0  0  0  0
   -1.7425    1.9533    1.1388 C   0  0  0  0  0  0  0  0  0  0  0  0
   -3.0630    3.7037    0.3939 C   0  0  0  0  0  0  0  0  0  0  0  0
   -3.1596    3.8541    1.7765 C   0  0  0  0  0  0  0  0  0  0  0  0
   -2.2355    2.6313    2.6281 S   0  0  0  0  0  0  0  0  0  0  0  0
    1.1035   -2.3308    1.2676 C   0  0  0  0  0  0  0  0  0  0  0  0
    1.4019   -3.0811   -0.0090 C   0  0  0  0  0  0  0  0  0  0  0  0
    0.9438   -2.3518   -1.1153 C   0  0  0  0  0  0  0  0  0  0  0  0
    2.0011   -4.2668   -0.3485 C   0  0  0  0  0  0  0  0  0  0  0  0
    2.0394   -4.4642   -1.7426 C   0  0  0  0  0  0  0  0  0  0  0  0
    1.3052   -3.1064   -2.6032 S   0  0  0  0  0  0  0  0  0  0  0  0
   -3.9205    4.7941    2.5101 C   0  0  0  0  0  0  0  0  0  0  0  0
    2.5460   -5.5512   -2.4068 C   0  0  0  0  0  0  0  0  0  0  0  0
    2.4346   -1.9106    1.8765 C   0  0  0  0  0  0  0  0  0  0  0  0
    0.2237   -3.1393    2.2044 C   0  0  0  0  0  0  0  0  0  0  0  0
   -2.9668    1.7595   -2.1203 C   0  0  0  0  0  0  0  0  0  0  0  0
   -0.6596    2.8268   -1.9266 C   0  0  0  0  0  0  0  0  0  0  0  0
   -3.5080    0.4917   -2.2701 C   0  0  0  0  0  0  0  0  0  0  0  0
   -4.6495    0.3020   -3.0291 C   0  0  0  0  0  0  0  0  0  0  0  0
   -5.2862    1.3698   -3.6454 C   0  0  0  0  0  0  0  0  0  0  0  0
   -4.7465    2.6402   -3.4844 C   0  0  0  0  0  0  0  0  0  0  0  0
   -3.6067    2.8345   -2.7297 C   0  0  0  0  0  0  0  0  0  0  0  0
   -0.5993    2.9796   -3.3044 C   0  0  0  0  0  0  0  0  0  0  0  0
    0.4913    3.5903   -3.8975 C   0  0  0  0  0  0  0  0  0  0  0  0
    1.5744    4.0180   -3.1420 C   0  0  0  0  0  0  0  0  0  0  0  0
    1.5119    3.8563   -1.7641 C   0  0  0  0  0  0  0  0  0  0  0  0
    0.4051    3.2907   -1.1612 C   0  0  0  0  0  0  0  0  0  0  0  0
    2.8250   -0.5815    1.9609 C   0  0  0  0  0  0  0  0  0  0  0  0
    4.0539   -0.2427    2.5000 C   0  0  0  0  0  0  0  0  0  0  0  0
    4.9271   -1.2152    2.9650 C   0  0  0  0  0  0  0  0  0  0  0  0
    4.5402   -2.5459    2.8633 C   0  0  0  0  0  0  0  0  0  0  0  0
    3.3177   -2.8890    2.3220 C   0  0  0  0  0  0  0  0  0  0  0  0
    0.5843   -3.3240    3.5879 C   0  0  0  0  0  0  0  0  0  0  0  0
   -0.3816   -3.9903    4.4803 C   0  0  0  0  0  0  0  0  0  0  0  0
   -1.6575   -4.4079    3.9497 C   0  0  0  0  0  0  0  0  0  0  0  0
   -1.8834   -4.2820    2.6173 C   0  0  0  0  0  0  0  0  0  0  0  0
   -0.9462   -3.6595    1.7489 C   0  0  0  0  0  0  0  0  0  0  0  0
    6.2746   -0.8477    3.5130 C   0  0  0  0  0  0  0  0  0  0  0  0
   -2.6908   -4.9154    4.9072 C   0  0  0  0  0  0  0  0  0  0  0  0
    2.8102    4.5528   -3.8044 C   0  0  0  0  0  0  0  0  0  0  0  0
   -6.4996    1.1551   -4.5022 C   0  0  0  0  0  0  0  0  0  0  0  0
    3.6864    3.3985   -4.2971 C   0  0  0  0  0  0  0  0  0  0  0  0
   -6.0906    0.9097   -5.9562 C   0  0  0  0  0  0  0  0  0  0  0  0
    7.3254   -0.8672    2.4009 C   0  0  0  0  0  0  0  0  0  0  0  0
   -3.3905   -3.7544    5.6185 C   0  0  0  0  0  0  0  0  0  0  0  0
    1.1824   -5.2223    4.0563 Se  0  0  0  0  0  2  0  0  0  0  0  0
    3.1366   -6.7898   -2.0233 C   0  0  0  0  0  0  0  0  0  0  0  0
    3.6622   -6.9006   -3.4409 C   0  0  0  0  0  0  0  0  0  0  0  0
    3.0124   -5.7877   -3.8137 C   0  0  0  0  0  0  0  0  0  0  0  0
   -4.0150    4.7119    4.3161 Se  0  0  0  0  0  2  0  0  0  0  0  0
   -3.0811    6.7049    0.1856 C   0  0  0  0  0  0  0  0  0  0  0  0
   -4.3675    6.6048    0.8157 C   0  0  0  0  0  0  0  0  0  0  0  0
   -4.7068    5.8152    1.8496 C   0  0  0  0  0  0  0  0  0  0  0  0
   -1.8001    6.4736    0.6566 C   0  0  0  0  0  0  0  0  0  0  0  0
   -0.9485    6.7781   -0.4202 C   0  0  0  0  0  0  0  0  0  0  0  0
   -1.7737    7.1698   -1.4701 C   0  0  0  0  0  0  0  0  0  0  0  0
   -0.9943    7.5037   -2.6306 C   0  0  0  0  0  0  0  0  0  0  0  0
    0.3675    7.3407   -2.2434 C   0  0  0  0  0  0  0  0  0  0  0  0
    0.4266    6.8730   -0.8504 C   0  0  0  0  0  0  0  0  0  0  0  0
   -1.3344    7.9004   -3.9068 C   0  0  0  0  0  0  0  0  0  0  0  0
   -0.3024    8.1392   -4.8074 C   0  0  0  0  0  0  0  0  0  0  0  0
    1.0277    7.9932   -4.4318 C   0  0  0  0  0  0  0  0  0  0  0  0
    1.3781    7.5965   -3.1448 C   0  0  0  0  0  0  0  0  0  0  0  0
   -3.0529    7.1420   -1.1125 O   0  0  0  0  0  0  0  0  0  0  0  0
    1.5191    6.5648   -0.0993 C   0  0  0  0  0  0  0  0  0  0  0  0
    1.3612    6.0150    1.1940 C   0  0  0  0  0  0  0  0  0  0  0  0
    2.8544    6.7022   -0.5316 C   0  0  0  0  0  0  0  0  0  0  0  0
    3.9518    6.7993   -0.8502 N   0  0  0  0  0  0  0  0  0  0  0  0
    1.2313    5.5311    2.2245 N   0  0  0  0  0  0  0  0  0  0  0  0
    3.2028   -7.6146   -0.9399 C   0  0  0  0  0  0  0  0  0  0  0  0
    2.3643   -7.6155    0.1868 C   0  0  0  0  0  0  0  0  0  0  0  0
    1.0081   -7.0744    0.2057 C   0  0  0  0  0  0  0  0  0  0  0  0
    0.4024   -7.5635    1.4674 C   0  0  0  0  0  0  0  0  0  0  0  0
    1.3602   -8.2884    2.1938 C   0  0  0  0  0  0  0  0  0  0  0  0
    2.5984   -8.3256    1.4082 C   0  0  0  0  0  0  0  0  0  0  0  0
   -0.8840   -7.3834    1.9264 C   0  0  0  0  0  0  0  0  0  0  0  0
   -1.2073   -7.9317    3.1576 C   0  0  0  0  0  0  0  0  0  0  0  0
   -0.2568   -8.6257    3.8994 C   0  0  0  0  0  0  0  0  0  0  0  0
    1.0369   -8.8180    3.4303 C   0  0  0  0  0  0  0  0  0  0  0  0
    0.4539   -6.3762   -0.6295 O   0  0  0  0  0  0  0  0  0  0  0  0
    3.7883   -8.8819    1.8220 C   0  0  0  0  0  0  0  0  0  0  0  0
    3.9577   -9.5672    3.0396 C   0  0  0  0  0  0  0  0  0  0  0  0
    4.9923   -8.8105    1.0955 C   0  0  0  0  0  0  0  0  0  0  0  0
    4.1547  -10.1507    4.0093 N   0  0  0  0  0  0  0  0  0  0  0  0
    6.0116   -8.7663    0.5662 N   0  0  0  0  0  0  0  0  0  0  0  0
    2.0005    8.2312   -5.3229 F   0  0  0  0  0  0  0  0  0  0  0  0
   -0.6053    8.5160   -6.0559 F   0  0  0  0  0  0  0  0  0  0  0  0
   -2.4570   -7.7966    3.6333 F   0  0  0  0  0  0  0  0  0  0  0  0
   -0.6000   -9.1383    5.0895 F   0  0  0  0  0  0  0  0  0  0  0  0
   -0.3177   -0.1460    2.5178 H   0  0  0  0  0  0  0  0  0  0  0  0
   -0.4173   -0.2115   -2.4997 H   0  0  0  0  0  0  0  0  0  0  0  0
   -3.6096    4.3143   -0.2985 H   0  0  0  0  0  0  0  0  0  0  0  0
    2.4509   -4.9675    0.3282 H   0  0  0  0  0  0  0  0  0  0  0  0
   -3.0414   -0.3554   -1.7896 H   0  0  0  0  0  0  0  0  0  0  0  0
   -5.0549   -0.6937   -3.1367 H   0  0  0  0  0  0  0  0  0  0  0  0
   -5.2281    3.4873   -3.9519 H   0  0  0  0  0  0  0  0  0  0  0  0
   -3.2005    3.8303   -2.6194 H   0  0  0  0  0  0  0  0  0  0  0  0
   -1.3989    2.6075   -3.9270 H   0  0  0  0  0  0  0  0  0  0  0  0
    0.5135    3.7064   -4.9716 H   0  0  0  0  0  0  0  0  0  0  0  0
    2.3557    4.1515   -1.1562 H   0  0  0  0  0  0  0  0  0  0  0  0
    0.3864    3.1814   -0.0857 H   0  0  0  0  0  0  0  0  0  0  0  0
    2.1741    0.2039    1.6075 H   0  0  0  0  0  0  0  0  0  0  0  0
    4.3327    0.7994    2.5614 H   0  0  0  0  0  0  0  0  0  0  0  0
    5.2010   -3.3247    3.2143 H   0  0  0  0  0  0  0  0  0  0  0  0
    3.0441   -3.9322    2.2630 H   0  0  0  0  0  0  0  0  0  0  0  0
    1.2943   -2.6281    4.0222 H   0  0  0  0  0  0  0  0  0  0  0  0
   -0.3361   -3.7655    5.5412 H   0  0  0  0  0  0  0  0  0  0  0  0
   -2.8276   -4.6027    2.2021 H   0  0  0  0  0  0  0  0  0  0  0  0
   -1.2123   -3.5493    0.7075 H   0  0  0  0  0  0  0  0  0  0  0  0
    6.5624   -1.5571    4.2911 H   0  0  0  0  0  0  0  0  0  0  0  0
    6.2357    0.1499    3.9546 H   0  0  0  0  0  0  0  0  0  0  0  0
   -2.2139   -5.5595    5.6493 H   0  0  0  0  0  0  0  0  0  0  0  0
   -3.4329   -5.5063    4.3700 H   0  0  0  0  0  0  0  0  0  0  0  0
    2.5364    5.1807   -4.6547 H   0  0  0  0  0  0  0  0  0  0  0  0
    3.3840    5.1545   -3.0976 H   0  0  0  0  0  0  0  0  0  0  0  0
   -7.1466    2.0333   -4.4541 H   0  0  0  0  0  0  0  0  0  0  0  0
   -7.0631    0.2946   -4.1369 H   0  0  0  0  0  0  0  0  0  0  0  0
    4.5824    3.7847   -4.7761 H   0  0  0  0  0  0  0  0  0  0  0  0
    3.1436    2.7868   -5.0142 H   0  0  0  0  0  0  0  0  0  0  0  0
    3.9826    2.7672   -3.4624 H   0  0  0  0  0  0  0  0  0  0  0  0
   -6.9698    0.7543   -6.5766 H   0  0  0  0  0  0  0  0  0  0  0  0
   -5.4552    0.0298   -6.0271 H   0  0  0  0  0  0  0  0  0  0  0  0
   -5.5383    1.7629   -6.3439 H   0  0  0  0  0  0  0  0  0  0  0  0
    8.3023   -0.6022    2.7977 H   0  0  0  0  0  0  0  0  0  0  0  0
    7.0631   -0.1572    1.6195 H   0  0  0  0  0  0  0  0  0  0  0  0
    7.3881   -1.8579    1.9564 H   0  0  0  0  0  0  0  0  0  0  0  0
   -3.8827   -3.1089    4.8943 H   0  0  0  0  0  0  0  0  0  0  0  0
   -4.1383   -4.1374    6.3076 H   0  0  0  0  0  0  0  0  0  0  0  0
   -2.6781   -3.1559    6.1820 H   0  0  0  0  0  0  0  0  0  0  0  0
    4.3071   -7.6081   -3.9232 H   0  0  0  0  0  0  0  0  0  0  0  0
    2.8897   -5.2320   -4.7215 H   0  0  0  0  0  0  0  0  0  0  0  0
   -5.1159    7.2667    0.3999 H   0  0  0  0  0  0  0  0  0  0  0  0
   -5.6800    5.9734    2.2972 H   0  0  0  0  0  0  0  0  0  0  0  0
   -1.5343    6.1579    1.6441 H   0  0  0  0  0  0  0  0  0  0  0  0
   -2.3588    8.0255   -4.2177 H   0  0  0  0  0  0  0  0  0  0  0  0
    2.4221    7.5050   -2.8943 H   0  0  0  0  0  0  0  0  0  0  0  0
    3.9405   -8.4071   -0.9988 H   0  0  0  0  0  0  0  0  0  0  0  0
   -1.6151   -6.8395    1.3515 H   0  0  0  0  0  0  0  0  0  0  0  0
    1.7340   -9.3735    4.0360 H   0  0  0  0  0  0  0  0  0  0  0  0
  1  2  1  0  0  0  0
  2  3  2  0  0  0  0
  3  4  1  0  0  0  0
  4  5  2  0  0  0  0
  5  6  1  0  0  0  0
  6  1  2  0  0  0  0
  1  7  1  0  0  0  0
  7  8  1  0  0  0  0
  8  9  2  0  0  0  0
  9  2  1  0  0  0  0
  8 10  1  0  0  0  0
 10 11  2  0  0  0  0
 11 12  1  0  0  0  0
 12  9  1  0  0  0  0
  4 13  1  0  0  0  0
 13 14  1  0  0  0  0
 14 15  2  0  0  0  0
 15  5  1  0  0  0  0
 14 16  1  0  0  0  0
 16 17  2  0  0  0  0
 17 18  1  0  0  0  0
 18 15  1  0  0  0  0
 11 19  1  0  0  0  0
 17 20  1  0  0  0  0
 13 21  1  0  0  0  0
 13 22  1  0  0  0  0
  7 23  1  0  0  0  0
  7 24  1  0  0  0  0
 23 25  2  0  0  0  0
 25 26  1  0  0  0  0
 26 27  2  0  0  0  0
 27 28  1  0  0  0  0
 28 29  2  0  0  0  0
 29 23  1  0  0  0  0
 24 30  2  0  0  0  0
 30 31  1  0  0  0  0
 31 32  2  0  0  0  0
 32 33  1  0  0  0  0
 33 34  2  0  0  0  0
 34 24  1  0  0  0  0
 21 35  2  0  0  0  0
 35 36  1  0  0  0  0
 36 37  2  0  0  0  0
 37 38  1  0  0  0  0
 38 39  2  0  0  0  0
 39 21  1  0  0  0  0
 22 40  2  0  0  0  0
 40 41  1  0  0  0  0
 41 42  2  0  0  0  0
 42 43  1  0  0  0  0
 43 44  2  0  0  0  0
 44 22  1  0  0  0  0
 37 45  1  0  0  0  0
 42 46  1  0  0  0  0
 32 47  1  0  0  0  0
 27 48  1  0  0  0  0
 47 49  1  0  0  0  0
 48 50  1  0  0  0  0
 45 51  1  0  0  0  0
 46 52  1  0  0  0  0
 20 53  1  0  0  0  0
 53 54  1  0  0  0  0
 54 55  2  0  0  0  0
 55 56  1  0  0  0  0
 56 20  2  0  0  0  0
 19 57  1  0  0  0  0
 57 58  1  0  0  0  0
 58 59  2  0  0  0  0
 59 60  1  0  0  0  0
 60 19  2  0  0  0  0
 58 61  1  0  0  0  0
 61 62  2  0  0  0  0
 62 63  1  0  0  0  0
 63 64  1  0  0  0  0
 64 65  2  0  0  0  0
 65 66  1  0  0  0  0
 66 62  1  0  0  0  0
 64 67  1  0  0  0  0
 67 68  2  0  0  0  0
 68 69  1  0  0  0  0
 69 70  2  0  0  0  0
 70 65  1  0  0  0  0
 63 71  2  0  0  0  0
 66 72  2  0  0  0  0
 72 73  1  0  0  0  0
 72 74  1  0  0  0  0
 74 75  3  0  0  0  0
 73 76  3  0  0  0  0
 54 77  1  0  0  0  0
 77 78  2  0  0  0  0
 78 79  1  0  0  0  0
 79 80  1  0  0  0  0
 80 81  2  0  0  0  0
 81 82  1  0  0  0  0
 82 78  1  0  0  0  0
 80 83  1  0  0  0  0
 83 84  2  0  0  0  0
 84 85  1  0  0  0  0
 85 86  2  0  0  0  0
 86 81  1  0  0  0  0
 79 87  2  0  0  0  0
 82 88  2  0  0  0  0
 88 89  1  0  0  0  0
 88 90  1  0  0  0  0
 89 91  3  0  0  0  0
 90 92  3  0  0  0  0
 69 93  1  0  0  0  0
 68 94  1  0  0  0  0
 84 95  1  0  0  0  0
 85 96  1  0  0  0  0
  3 97  1  0  0  0  0
  6 98  1  0  0  0  0
 10 99  1  0  0  0  0
 16100  1  0  0  0  0
 25101  1  0  0  0  0
 26102  1  0  0  0  0
 28103  1  0  0  0  0
 29104  1  0  0  0  0
 30105  1  0  0  0  0
 31106  1  0  0  0  0
 33107  1  0  0  0  0
 34108  1  0  0  0  0
 35109  1  0  0  0  0
 36110  1  0  0  0  0
 38111  1  0  0  0  0
 39112  1  0  0  0  0
 40113  1  0  0  0  0
 41114  1  0  0  0  0
 43115  1  0  0  0  0
 44116  1  0  0  0  0
 45117  1  0  0  0  0
 45118  1  0  0  0  0
 46119  1  0  0  0  0
 46120  1  0  0  0  0
 47121  1  0  0  0  0
 47122  1  0  0  0  0
 48123  1  0  0  0  0
 48124  1  0  0  0  0
 49125  1  0  0  0  0
 49126  1  0  0  0  0
 49127  1  0  0  0  0
 50128  1  0  0  0  0
 50129  1  0  0  0  0
 50130  1  0  0  0  0
 51131  1  0  0  0  0
 51132  1  0  0  0  0
 51133  1  0  0  0  0
 52134  1  0  0  0  0
 52135  1  0  0  0  0
 52136  1  0  0  0  0
 55137  1  0  0  0  0
 56138  1  0  0  0  0
 59139  1  0  0  0  0
 60140  1  0  0  0  0
 61141  1  0  0  0  0
 67142  1  0  0  0  0
 70143  1  0  0  0  0
 77144  1  0  0  0  0
 83145  1  0  0  0  0
 86146  1  0  0  0  0
M  END
