104
IDT_DCV_2.sdf
C          1.50770       -0.22590        1.25030
C          0.24780       -0.87100        1.24580
C         -0.66050       -0.71170        0.20270
C         -0.28140        0.09870       -0.84210
C          0.99520        0.71030       -0.85670
C          1.90020        0.55830        0.19100
C          2.28630       -0.55650        2.51310
C          1.33560       -1.50880        3.19370
C          0.16880       -1.63830        2.44830
C          1.30490       -2.23440        4.37330
C          0.11100       -2.93450        4.52940
S         -0.98440       -2.66610        3.18250
C         -1.06820        0.44470       -2.09450
C         -0.06150        1.27800       -2.84420
C          1.09540        1.42870       -2.08710
C         -0.01760        1.95010       -4.05630
C          1.18850        2.61590       -4.24040
S          2.26690        2.40030       -2.86430
C         -2.27910        1.32600       -1.83060
C         -1.46180       -0.84020       -2.79900
C          3.61510       -1.17290        2.12180
C          2.46590        0.63180        3.44350
C          3.74970       -2.54390        1.95620
C          4.95920       -3.08730        1.56340
C          6.05880       -2.27760        1.31360
C          5.91430       -0.90450        1.46650
C          4.70920       -0.35670        1.86190
C          1.72370        1.79480        3.30130
C          1.87500        2.83550        4.20020
C          2.76100        2.73970        5.26410
C          3.49200        1.56710        5.40920
C          3.34600        0.52570        4.51400
C         -2.48370        1.95470       -0.61180
C         -3.58160        2.77600       -0.42460
C         -4.49330        2.99610       -1.44730
C         -4.27240        2.37790       -2.67210
C         -3.18040        1.55490       -2.86400
C         -0.64310       -1.41330       -3.76120
C         -1.00380       -2.60100       -4.37070
C         -2.18290       -3.24970       -4.02980
C         -2.98940       -2.68090       -3.05240
C         -2.63580       -1.49240       -2.44330
C         -5.66130        3.91900       -1.25290
C         -2.55240       -4.55870       -4.66490
C          2.88520        3.85230        6.26420
C          7.38520       -2.87240        0.93920
C          1.86790        3.67020        7.39270
C          8.22050       -3.14270        2.19250
C         -5.28260        5.34960       -1.64150
C         -1.96240       -5.72420       -3.86830
C         -0.19510       -3.76260        5.62920
C          1.64920        3.39320       -5.32400
C         -1.34030       -4.47330        5.84720
C         -2.45180       -4.50610        4.98160
C         -1.47810       -5.25770        7.01290
C          0.98110        3.67500       -6.48210
C          1.59590        4.46770       -7.47560
C         -0.31700        3.23570       -6.80770
N         -1.58220       -5.89070        7.96340
N         -3.37840       -4.55890        4.30610
N          2.10070        5.11060       -8.27990
N         -1.37300        2.89950       -7.10730
H         -1.61920       -1.20600        0.22300
H          2.86520        1.04030        0.16390
H          2.09740       -2.27430        5.09870
H         -0.80900        1.96000       -4.78210
H          2.90630       -3.19460        2.13690
H          5.04770       -4.15790        1.44620
H          6.75610       -0.25510        1.27230
H          4.62130        0.71340        1.98380
H          1.02470        1.89450        2.48380
H          1.29380        3.73730        4.07020
H          4.18510        1.46930        6.23260
H          3.92920       -0.37550        4.63780
H         -1.78930        1.80160        0.20170
H         -3.73140        3.25010        0.53500
H         -4.96510        2.54030       -3.48500
H         -3.03180        1.07490       -3.82010
H          0.28050       -0.92890       -4.04420
H         -0.35970       -3.02730       -5.12650
H         -3.90940       -3.17110       -2.76800
H         -3.28590       -1.05910       -1.69690
H         -6.49920        3.58920       -1.87000
H         -5.97770        3.90130       -0.20800
H         -3.63880       -4.65970       -4.69840
H         -2.17370       -4.59360       -5.68830
H          3.89220        3.86120        6.68570
H          2.71050        4.81220        5.77430
H          7.23270       -3.80890        0.39930
H          7.92820       -2.18560        0.28690
H          0.85600        3.66930        6.99370
H          1.95530        4.47630        8.11720
H          2.03430        2.72440        7.90360
H          9.18130       -3.57480        1.92350
H          7.70070       -3.83470        2.85150
H          8.39570       -2.21770        2.73740
H         -4.97370        5.38920       -2.68360
H         -6.12960        6.01760       -1.50440
H         -4.45770        5.70330       -1.02680
H         -2.23020       -6.67270       -4.32770
H         -2.33850       -5.71380       -2.84770
H         -0.87780       -5.64840       -3.83350
H          0.57940       -3.83440        6.38450
H          2.64530        3.80740       -5.22220
