186
IDTC-4Cl.sdf
C          0.64060        0.62690        2.60440
C         -0.76830        0.75600        2.64820
C         -1.42350        1.84830        2.08460
C         -0.65290        2.75710        1.39780
C          0.74720        2.58460        1.28910
C          1.41150        1.53660        1.92130
C          1.08910       -0.65310        3.29100
C         -0.24040       -1.31450        3.55040
C         -1.27240       -0.44470        3.23550
C         -0.68220       -2.55860        3.98780
C         -2.06280       -2.65040        3.98650
S         -2.81990       -1.14690        3.48610
C         -1.10710        3.99020        0.63050
C          0.18050        4.39810       -0.04020
C          1.21880        3.58430        0.38480
C          0.55330        5.29060       -1.03910
C          1.88780        5.15200       -1.38830
S          2.69080        3.92330       -0.42800
C         -2.85160       -3.80380        4.21710
C          2.57370        5.78670       -2.45480
C         -1.60560        4.99680        1.65290
C         -2.13890        3.72250       -0.44650
C          1.72900       -0.40850        4.64850
C          2.01080       -1.42260        2.36910
C          2.31620       -1.47680        5.31640
C          2.86810       -1.30290        6.57010
C          2.84150       -0.06170        7.19450
C          2.24770        0.99930        6.52580
C          1.69210        0.83080        5.26970
C          1.51220       -2.33980        1.45540
C          2.36350       -2.99810        0.58680
C          3.72950       -2.75210        0.60200
C          4.22210       -1.82280        1.50920
C          3.37640       -1.16510        2.38140
C         -0.76940        5.97320        2.17480
C         -1.23310        6.85430        3.13500
C         -2.53800        6.78060        3.60200
C         -3.36760        5.79360        3.08500
C         -2.90980        4.91210        2.12500
C         -2.33800        2.45330       -0.96970
C         -3.25490        2.25090       -1.98570
C         -3.98200        3.30790       -2.51500
C         -3.76410        4.58030       -2.00120
C         -2.85290        4.78720       -0.98420
C         -3.02600        7.71030        4.67520
C         -5.01410        3.07820       -3.58090
C          4.64730       -3.42990       -0.37380
C          3.48430        0.13630        8.53680
C          4.80940       -2.57560       -1.63280
C          4.95750        0.51560        8.37220
C         -2.77270        7.10840        6.05890
C         -6.38750        2.84020       -2.94970
S          4.22710        5.35530       -2.82670
C          4.18140        6.36370       -4.21680
C          2.94920        7.00440       -4.37980
C          2.05080        6.69220       -3.36960
S         -2.08450       -5.35580        4.47180
C         -3.62620       -6.11450        4.47910
C         -4.68090       -5.20930        4.31810
C         -4.23420       -3.90260        4.17170
C         -5.53220      -10.99350        4.52720
C         -4.77330      -12.14370        4.56820
C         -3.31800      -12.19950        4.69970
C         -2.96300      -13.63400        4.68470
C         -4.13430      -14.39950        4.55420
C         -5.28240      -13.49400        4.47830
C         -1.71600      -14.21530        4.77500
C         -1.63290      -15.60210        4.73380
C         -2.79160      -16.37290        4.60460
C         -4.04750      -15.78060        4.51420
O         -2.53880      -11.26830        4.80460
C         -6.58820      -13.89270        4.33320
C         -6.99900      -15.23910        4.24550
C         -7.70780      -13.04080        4.24350
N         -8.67310      -12.42260        4.16010
N         -7.40570      -16.31010        4.16820
Cl        -2.67600      -18.08650        4.55440
Cl        -0.09840      -16.36690        4.84150
C          7.38150        7.31400       -8.21510
C          7.48910        7.85720       -9.47680
C          6.46300        8.55790      -10.26950
C          7.05280        8.73770      -11.61470
C          8.36160        8.23170      -11.63000
C          8.67900        7.72240      -10.29630
C          6.47140        9.29570      -12.73400
C          7.21530        9.34420      -13.90620
C          8.51780        8.83710      -13.93390
C          9.10080        8.28060      -12.80020
O          5.35310        8.93040       -9.94160
C          9.91170        7.25310       -9.91770
C         10.28890        6.82980       -8.62560
C         11.01930        7.15570      -10.78620
N         10.69920        6.48150       -7.61030
N         11.96050        7.04120      -11.43370
Cl         6.52780       10.02700      -15.32500
Cl         9.42550        8.89490      -15.39180
C         -4.12400       -7.42850        4.54670
C         -5.52550       -7.36860        4.42910
C         -6.00540       -5.93850        4.28030
C         -6.68300       -5.82380        2.89710
C         -6.94950       -5.58600        5.45280
C         -6.89890       -4.13860        5.92770
C         -7.23550       -4.45270        2.53510
S         -3.51240       -9.01990        4.67050
C         -5.15330       -9.65210        4.55460
C         -6.09840       -8.61380        4.44110
C          5.03190        6.70970       -5.28110
C          4.34570        7.58240       -6.14650
C          2.95150        7.86040       -5.62740
S          6.59610        6.32080       -5.83540
C          6.33450        7.30160       -7.28870
C          5.07190        7.90060       -7.27220
C          1.93710        7.36900       -6.67950
C          2.76730        9.33620       -5.22140
C          0.47290        7.52390       -6.29190
C          2.80320       10.32490       -6.37880
H         -2.49690        1.93950        2.14730
H          2.48210        1.42890        1.83830
H         -0.05100       -3.38400        4.26360
H         -0.11090        5.98810       -1.51470
H          2.34900       -2.44780        4.84400
H          3.32270       -2.14380        7.07410
H          2.21420        1.97290        6.99380
H          1.23060        1.67230        4.77370
H          0.45190       -2.54530        1.42180
H          1.95860       -3.71550       -0.11300
H          5.28210       -1.61360        1.53540
H          3.78080       -0.45300        3.08650
H          0.25050        6.05250        1.82770
H         -0.56930        7.61320        3.52440
H         -4.38700        5.71680        3.43590
H         -3.57580        4.16050        1.72690
H         -1.77650        1.61560       -0.58270
H         -3.40300        1.25390       -2.37580
H         -4.31350        5.41920       -2.40450
H         -2.69940        5.78350       -0.59430
H         -4.09600        7.88940        4.55160
H         -2.50800        8.66850        4.59960
H         -5.06700        3.94790       -4.23910
H         -4.73890        2.20990       -4.18270
H          5.62640       -3.58370        0.08440
H          4.24150       -4.40520       -0.64950
H          2.96750        0.92860        9.08210
H          3.41310       -0.78350        9.12070
H          5.22420       -1.60250       -1.37940
H          3.84490       -2.42100       -2.11160
H          5.47520       -3.06340       -2.34090
H          5.49230       -0.26770        7.83960
H          5.04900        1.43880        7.80430
H          5.42530        0.65710        9.34360
H         -3.28860        6.15590        6.15730
H         -3.12930        7.77920        6.83700
H         -1.70880        6.93720        6.20780
H         -6.68520        3.70150       -2.35570
H         -6.35810        1.96950       -2.29850
H         -7.13690        2.67330       -3.71980
H          1.05420        7.08240       -3.28230
H         -4.85070       -3.03380        4.02970
H         -6.60350      -11.12780        4.44100
H         -0.83050      -13.60770        4.87390
H         -4.91670      -16.40960        4.41530
H          8.24800        6.75880       -7.87570
H          5.46490        9.68140      -12.69720
H         10.10640        7.89910      -12.86310
H         -7.49580       -6.55280        2.86810
H         -5.94820       -6.12090        2.14390
H         -6.68810       -6.22550        6.29950
H         -7.96820       -5.84060        5.15510
H         -5.91770       -3.89990        6.33020
H         -7.12250       -3.44190        5.12630
H         -7.63300       -3.99560        6.71790
H         -6.45450       -3.69820        2.55170
H         -7.64760       -4.48840        1.52880
H         -8.03200       -4.15830        3.21240
H         -7.15120       -8.81980        4.36250
H          4.73920        8.51960       -8.08440
H          2.12890        7.90920       -7.60720
H          2.14370        6.31220       -6.86870
H          1.81910        9.42810       -4.68890
H          3.56340        9.58530       -4.51480
H          0.22100        8.56270       -6.09750
H          0.23880        6.93330       -5.41070
H         -0.15380        7.17180       -7.10830
H          2.69060       11.33570       -5.99270
H          1.99700       10.14120       -7.08310
H          3.74890       10.26840       -6.90950
