218
IDTIDSe-IC.sdf
C         -0.34850        2.50710        5.88960
C         -1.09930        3.41580        5.11010
C         -0.69190        2.71070        7.25970
C         -1.62320        3.75100        7.36070
C         -1.94450        4.31240        5.99680
C         -1.46310        5.73950        5.80200
C         -3.43850        4.18340        5.77080
C         -1.97470        6.50770        4.76340
C         -1.51730        7.79390        4.55040
C         -0.53710        8.34720        5.36410
C         -0.01850        7.57020        6.39080
C         -0.47080        6.28140        6.60650
C         -4.29460        5.13810        6.30780
C         -5.66230        5.01800        6.15950
C         -6.21390        3.93980        5.47850
C         -5.35570        2.98380        4.95400
C         -3.98500        3.09730        5.10300
C         -0.01480        9.73160        5.10870
C          1.18040        9.68440        4.15460
C         -7.69810        3.83990        5.27470
C         -8.11340        4.58250        4.00290
Se        -0.28700        1.94110        8.88600
C         -1.52280        3.18320        9.63430
C         -2.07130        4.00750        8.63550
C         -1.91930        3.32480       10.96680
C         -1.55610        2.62560       12.09700
C         -0.60540        1.52290       12.13670
C         -0.55600        1.06230       13.53470
C         -1.42740        1.85060       14.30770
C         -2.06230        2.84260       13.43580
O          0.03420        1.06020       11.19970
C         -2.96600        3.78870       13.84730
C         -3.41130        3.93500       15.17770
C         -3.58480        4.75350       13.02560
N         -3.81880        4.11350       16.23630
N         -4.13410        5.57180       12.43450
C          0.18450        0.03760       14.08880
C          0.04960       -0.20600       15.44910
C         -0.80780        0.56510       16.21900
C         -1.55380        1.59820       15.66350
C          0.08630       -4.10950      -10.38860
C         -0.81890       -3.87900      -11.40140
C         -1.76320       -2.77130      -11.45150
C         -2.55290       -2.94930      -12.68200
C         -2.10370       -4.10180      -13.35160
C         -1.01460       -4.70180      -12.57610
O         -1.88700       -1.86420      -10.63710
C         -0.32990       -5.83680      -12.92850
C          0.72160       -6.42810      -12.19790
C         -0.58530       -6.58790      -14.09480
N          1.58280       -6.97640      -11.67030
N         -0.73610       -7.24920      -15.02140
C         -3.58100       -2.17320      -13.17790
C         -4.17480       -2.55870      -14.37240
C         -3.73860       -3.69310      -15.03960
C         -2.70320       -4.47620      -14.54250
C          0.52260        1.58460        5.31000
C          0.60010        1.56590        3.93960
C         -0.16640        2.46640        3.15870
C         -1.00890        3.41130        3.73740
C          1.43300        0.65400        3.05280
C          1.00360        1.11980        1.68690
C          0.08520        2.14860        1.78880
C          1.06810       -0.81620        3.14600
C          2.89810        0.89480        3.35840
C          1.18380        0.71570        0.36480
C          0.38580        1.45170       -0.53260
S         -0.56520        2.66520        0.26700
S          2.09800       -0.53060       -0.42530
C          1.36680       -0.08550       -1.93250
C          0.48490        0.97600       -1.83930
C          1.36790       -0.62560       -3.25470
C          0.44750        0.13810       -4.01410
C         -0.12790        1.27300       -3.18230
C          0.36380        2.64560       -3.60970
C         -1.64070        1.19080       -3.19940
C          2.04020       -1.71760       -3.79560
C          1.74020       -2.05860       -5.09390
C          0.76910       -1.34170       -5.82910
C          0.12970       -0.21980       -5.30080
C          2.27840       -3.22240       -5.90610
C          1.41680       -3.12940       -7.14230
C          0.58510       -2.00450       -7.07970
C          2.09090       -4.49070       -5.09900
C          3.71740       -3.03340       -6.35300
C          1.29620       -3.87730       -8.29010
C          0.33680       -3.40910       -9.20560
Se        -0.49310       -1.81860       -8.56440
C          1.93770       -1.76420        2.61970
C          1.59420       -3.10160        2.60980
C          0.37530       -3.52870        3.12140
C         -0.49080       -2.57730        3.64210
C         -0.15370       -1.23540        3.65140
C          3.64920        1.80100        2.62450
C          4.97530        2.03180        2.94250
C          5.57950        1.37500        4.00530
C          4.82000        0.47530        4.74260
C          3.49660        0.23790        4.42660
C          1.40510        2.80970       -4.51080
C          1.85070        4.07750       -4.84030
C          1.27960        5.20720       -4.27170
C          0.24420        5.03570       -3.36110
C         -0.20760        3.77320       -3.03160
C         -2.35880        1.82310       -4.20680
C         -3.73570        1.72220       -4.25550
C         -4.43180        0.99010       -3.30240
C         -3.70860        0.35000       -2.30560
C         -2.33000        0.44310       -2.25550
C          0.91100       -5.21730       -5.16880
C          0.72510       -6.33160       -4.37080
C          1.70650       -6.74400       -3.48030
C          2.88300       -6.00890       -3.40880
C          3.07410       -4.89580       -4.20420
C          4.34560       -1.79830       -6.29220
C          5.63780       -1.64630       -6.76230
C          6.32880       -2.71590       -7.31370
C          5.69210       -3.94920       -7.37890
C          4.40300       -4.10690       -6.90950
C         -0.01490       -4.97710        3.05370
C         -0.66660       -5.28820        1.70470
C          7.03210        1.58930        4.31900
C          7.89510        0.57220        3.56940
C          1.73350        6.58220       -4.66890
C          0.91810        7.08860       -5.86040
C         -5.92460        0.84980       -3.38240
C         -6.30090       -0.34990       -4.25430
C          1.48460       -7.91990       -2.57310
C          0.93790       -7.45350       -1.22220
C          7.74620       -2.55790       -7.78310
C          8.72250       -2.85590       -6.64330
H         -2.74760        6.10210        4.12660
H         -1.93190        8.37940        3.74190
H          0.74770        7.97880        7.03420
H         -0.04880        5.69810        7.41210
H         -3.88460        5.98650        6.83650
H         -6.31230        5.77060        6.58240
H         -5.76340        2.13400        4.42470
H         -3.33920        2.33440        4.69300
H          0.29470       10.18980        6.05010
H         -0.80120       10.34930        4.67020
H          1.55950       10.68680        3.96910
H          1.98050        9.08300        4.58050
H          0.88910        9.24090        3.20510
H         -8.21880        4.27380        6.13050
H         -7.99140        2.79140        5.19140
H         -9.18880        4.51430        3.85590
H         -7.83800        5.63260        4.07150
H         -7.61580        4.15460        3.13540
H         -2.79330        4.76940        8.87860
H         -2.64660        4.11680       11.10870
H          0.84480       -0.54990       13.46960
H          0.61490       -1.00110       15.91160
H         -0.90190        0.36200       17.27530
H         -2.21180        2.17890       16.28870
H          0.71190       -4.98850      -10.49900
H         -3.90400       -1.29460      -12.64100
H         -4.98190       -1.97240      -14.78530
H         -4.21130       -3.97930      -15.96720
H         -2.38760       -5.35240      -15.08450
H          1.08750        0.90500        5.93100
H         -1.57880        4.09140        3.12320
H          2.74840       -2.27920       -3.20590
H         -0.59980        0.32100       -5.88610
H          1.86570       -4.76950       -8.49150
H          2.89070       -1.45110        2.21840
H          2.28260       -3.82460        2.19630
H         -1.44490       -2.88750        4.04420
H         -0.84790       -0.51250        4.05500
H          3.19970        2.33020        1.79650
H          5.54720        2.73680        2.35600
H          5.27020       -0.04510        5.57600
H          2.92660       -0.47450        5.00530
H          1.87100        1.94650       -4.96290
H          2.65900        4.18790       -5.54930
H         -0.21200        5.90110       -2.90180
H         -1.01620        3.65840       -2.32400
H         -1.83720        2.40770       -4.95100
H         -4.27870        2.22340       -5.04410
H         -4.22950       -0.22920       -1.55630
H         -1.79020       -0.07130       -1.47340
H          0.12970       -4.91230       -5.85030
H         -0.19870       -6.88810       -4.44210
H          3.66030       -6.31240       -2.72170
H          3.99940       -4.34150       -4.13730
H          3.82650       -0.94790       -5.87430
H          6.11340       -0.67730       -6.70380
H          6.21030       -4.79490       -7.80790
H          3.92550       -5.07440       -6.96570
H          0.87000       -5.60470        3.17760
H         -0.71620       -5.21210        3.85670
H          0.01740       -5.05580        0.89160
H         -0.93380       -6.34050        1.64340
H         -1.56690       -4.69190        1.57360
H          7.19890        1.48060        5.39260
H          7.32960        2.59850        4.02710
H          7.62290       -0.44050        3.85860
H          7.74980        0.67150        2.49600
H          8.94800        0.72670        3.79370
H          2.79090        6.55990       -4.94020
H          1.60980        7.26980       -3.82980
H         -0.13840        7.13060       -5.60470
H          1.24540        8.08420       -6.15090
H          1.03740        6.42130       -6.71100
H         -6.35930        1.75550       -3.81020
H         -6.33840        0.71170       -2.38140
H         -5.90490       -0.22580       -5.25970
H         -5.88790       -1.26520       -3.83610
H         -7.38190       -0.45210       -4.31610
H          2.42680       -8.44920       -2.41590
H          0.77540       -8.61290       -3.02960
H          1.63840       -6.77050       -0.74670
H          0.77790       -8.30250       -0.56160
H         -0.00830       -6.93360       -1.35640
H          7.94020       -3.24270       -8.61100
H          7.90770       -1.53790       -8.13790
H          8.58490       -3.87350       -6.28430
H          8.55300       -2.17450       -5.81240
H          9.74970       -2.74270       -6.98190
