158
IDTN-O.sdf
C         -0.55270       -0.68830        0.98410
C         -0.69920        0.69120        1.26380
C          0.27260        1.62700        0.92030
C          1.38480        1.16540        0.25460
C          1.51340       -0.20700       -0.05180
C          0.56000       -1.15020        0.32280
C         -1.74100       -1.47990        1.50120
C         -2.58790       -0.37060        2.06560
C         -1.97400        0.85230        1.89430
C         -3.87200       -0.28910        2.63210
C         -4.25830        1.05320        2.81430
S         -2.92740        2.16330        2.45490
C          2.60010        1.94740       -0.24370
C          3.37870        0.84850       -0.95200
C          2.72980       -0.37350       -0.77940
C          4.52810        0.70010       -1.72990
C          4.73600       -0.65410       -2.11590
S          3.46270       -1.70890       -1.54980
C          2.12960        3.05920       -1.16010
C          3.40550        2.41280        0.96770
C         -2.56500       -2.14860        0.41380
C         -1.24810       -2.46590        2.54210
C         -2.50170       -1.72440       -0.90460
C         -3.32730       -2.28940       -1.86000
C         -4.23670       -3.28040       -1.52170
C         -4.29900       -3.69520       -0.19750
C         -3.47770       -3.13630        0.76070
C         -0.76030       -3.70600        2.14950
C         -0.27770       -4.59860        3.08740
C         -0.26350       -4.27720        4.43870
C         -0.74330       -3.03320        4.82450
C         -1.22340       -2.13480        3.88920
C          1.49010        4.18030       -0.63860
C          1.02500        5.18140       -1.46910
C          1.17440        5.09500       -2.84700
C          1.79820        3.97030       -3.36700
C          2.26240        2.96390       -2.53940
C          3.89760        3.70220        1.11590
C          4.65910        4.04350        2.22020
C          4.95730        3.11260        3.20390
C          4.46250        1.82310        3.05470
C          3.70200        1.47770        1.95510
C          0.71670        6.20970       -3.74190
C          5.75250        3.49880        4.41660
C          0.21150       -5.26930        5.46090
C         -5.17740       -3.85120       -2.54450
C         -0.94900       -6.14880        5.93080
C         -6.52710       -3.13430       -2.47810
C          1.82830        7.24720       -3.91260
C          4.82560        3.99820        5.52690
C         -5.52570        1.60740        3.05120
C         -6.69780        1.07290        2.56700
C         -6.74060        0.14320        1.41660
C         -8.14080        0.17080        0.95050
C         -8.91190        1.01080        1.80370
C         -8.03350        1.53800        2.84170
C         -8.69040       -0.46860       -0.12100
C        -10.06710       -0.29650       -0.39230
C        -10.84470        0.54560        0.45310
C        -10.24460        1.19800        1.55620
O         -5.81610       -0.45340        0.90000
C         -8.41500        2.26060        3.94530
C         -7.52770        2.60940        4.98260
C         -9.73460        2.68210        4.19360
N        -10.79380        3.05440        4.43620
N         -6.85010        2.88000        5.87000
C          6.25790       -2.24690       -3.31880
C          5.39190       -3.42270       -3.43030
C          6.11280       -4.37350       -4.29580
C          7.38560       -3.82660       -4.62970
C          7.51520       -2.52950       -3.97180
C          5.70350       -5.58710       -4.76440
C          6.56220       -6.32220       -5.61360
C          7.83370       -5.78060       -5.95680
C          8.23310       -4.52160       -5.44880
O          4.28950       -3.58490       -2.93390
C          8.65540       -1.76540       -3.92020
C          8.79950       -0.58260       -3.16740
C          9.85630       -2.10190       -4.57490
N          9.00420        0.36720       -2.55290
N         10.85870       -2.31930       -5.09220
C          5.88830       -1.02720       -2.80580
C        -12.21430        0.71400        0.16670
C        -12.79010        0.08050       -0.90120
C        -12.02330       -0.74950       -1.73170
C        -10.69040       -0.93460       -1.48190
C          8.67800       -6.51960       -6.80930
C          8.28730       -7.73570       -7.30080
C          7.03490       -8.26800       -6.96240
C          6.19110       -7.57630       -6.13590
O         -4.47270       -1.39490        3.06460
C         -5.53900       -1.34680        3.98810
C         -5.51940       -2.65140        4.77050
O          5.38040        1.60060       -2.24820
C          5.71310        2.77380       -1.52430
C          6.66470        2.45440       -0.37920
H          0.12850        2.66580        1.16760
H          0.69820       -2.19270        0.08390
H         -1.80960       -0.94550       -1.19130
H         -3.26560       -1.94700       -2.88360
H         -5.00520       -4.46260        0.08740
H         -3.54790       -3.46070        1.78750
H         -0.77190       -3.97950        1.10460
H          0.09580       -5.56010        2.76480
H         -0.73710       -2.76050        5.87070
H         -1.58160       -1.16880        4.21440
H          1.36180        4.28260        0.42840
H          0.53490        6.04310       -1.03840
H          1.92040        3.87380       -4.43640
H          2.73120        2.09880       -2.98320
H          3.69810        4.45950        0.37240
H          5.03240        5.05360        2.31050
H          4.68030        1.07700        3.80530
H          3.33660        0.46510        1.86180
H          0.44370        5.81050       -4.72070
H         -0.16310        6.69240       -3.31150
H          6.31610        2.63680        4.77870
H          6.46200        4.28730        4.15820
H          0.63480       -4.74360        6.31930
H          0.99000       -5.90160        5.02940
H         -4.75520       -3.73580       -3.54470
H         -5.32740       -4.91710       -2.35750
H         -0.60620       -6.86960        6.66950
H         -1.37790       -6.68950        5.09010
H         -1.72990       -5.53780        6.37830
H         -7.21360       -3.53850       -3.21970
H         -6.39390       -2.07070       -2.66560
H         -6.96570       -3.25790       -1.49000
H          2.71120        6.78690       -4.35070
H          1.49890        8.05460       -4.56220
H          2.10490        7.66820       -2.94840
H          4.26560        4.86770        5.18980
H          5.40130        4.27540        6.40670
H          4.11650        3.22190        5.80530
H         -5.54980        2.58490        3.51900
H         -8.08360       -1.09790       -0.75490
H        -10.85460        1.83860        2.17390
H          4.73480       -5.98150       -4.49540
H          9.20000       -4.13530       -5.73050
H          6.56800       -0.19750       -2.96170
H        -12.80140        1.35340        0.80960
H        -13.84040        0.21630       -1.11150
H        -12.49330       -1.24080       -2.57060
H        -10.09270       -1.57180       -2.11770
H          9.64210       -6.10570       -7.06660
H          8.94180       -8.29380       -7.95360
H          6.74140       -9.22840       -7.35970
H          5.22480       -7.98100       -5.87190
H         -6.49540       -1.23760        3.45760
H         -5.42170       -0.48580        4.65990
H         -5.63990       -3.49060        4.09120
H         -4.57100       -2.76000        5.29060
H         -6.32830       -2.65810        5.49500
H          4.81010        3.27260       -1.16620
H          6.20570        3.41160       -2.26210
H          6.96600        3.37270        0.11550
H          6.17840        1.80970        0.35050
H          7.54680        1.94890       -0.76590
