144
IDTN.sdf
C         -0.74880        1.63040       -0.03610
C         -1.02070        0.29380        0.34370
C         -0.02960       -0.54550        0.84840
C          1.24700       -0.04040        0.92000
C          1.52460        1.28600        0.50720
C          0.52710        2.13750        0.03680
C         -2.00240        2.31390       -0.55760
C         -2.99370        1.17920       -0.48690
C         -2.39820        0.04230        0.06510
C         -4.31810        0.97740       -0.80400
C         -4.74530       -0.33000       -0.52400
S         -3.45340       -1.29630        0.17570
C          2.50660       -0.73320        1.41190
C          3.54090        0.32920        1.14550
C          2.93270        1.47790        0.64310
C          4.91970        0.41960        1.21910
C          5.38850        1.65180        0.77530
S          4.05850        2.71170        0.29060
C          2.89410       -1.97880        0.63830
C          2.31280       -1.02980        2.89030
C         -2.51440        3.42610        0.34050
C         -1.72480        2.80740       -1.96480
C         -2.05820        3.59120        1.63960
C         -2.58160        4.58960        2.44220
C         -3.57310        5.43930        1.97280
C         -4.03690        5.25890        0.67530
C         -3.51790        4.26490       -0.13030
C         -1.17090        4.06610       -2.16340
C         -0.86400        4.50460       -3.43730
C         -1.09310        3.69810       -4.54450
C         -1.63940        2.43830       -4.33980
C         -1.94630        1.99380       -3.06700
C          2.34370       -2.27980       -0.59810
C          2.75950       -3.40230       -1.29270
C          3.74170       -4.23740       -0.78030
C          4.30040       -3.92120        0.45220
C          3.88570       -2.80650        1.15250
C          2.71640       -0.12970        3.86610
C          2.49070       -0.39780        5.20370
C          1.85050       -1.56380        5.60080
C          1.43790       -2.45560        4.61920
C          1.66450       -2.19450        3.28140
C          4.16070       -5.47980       -1.51230
C          1.56630       -1.82740        7.05140
C         -0.80220        4.19410       -5.93140
C         -4.17130        6.49260        2.85980
C         -2.03690        4.87400       -6.52660
C         -5.39300        5.93840        3.59570
C          3.37080       -6.68890       -1.00700
C          0.23080       -1.19970        7.45610
C         -6.04690       -0.75730       -0.81640
C         -6.63340       -1.99230       -0.69080
C         -5.97520       -3.20690       -0.19540
C         -6.96140       -4.29090       -0.32400
C         -8.17260       -3.75820       -0.85020
C         -7.99230       -2.32550       -1.07080
C         -6.82230       -5.61360       -0.02030
C         -7.91260       -6.48670       -0.23490
C         -9.12860       -5.96380       -0.76020
C         -9.24170       -4.58670       -1.06370
O         -4.83980       -3.31260        0.23690
C         -8.95790       -1.47540       -1.54910
C        -10.26210       -1.88000       -1.90130
C         -8.81270       -0.08900       -1.75800
N         -8.78320        1.04260       -1.95700
N        -11.33810       -2.13680       -2.20990
C          7.91070        1.57490        0.68930
C          8.21860        0.12520        0.70620
C          9.63710        0.01950        0.31620
C         10.19610        1.32130        0.18840
C          9.15980        2.29510        0.50830
C         10.36900       -1.10720        0.07860
C         11.71890       -0.97950       -0.31890
C         12.28370        0.32080       -0.45880
C         11.50220        1.46970       -0.19530
O          7.48760       -0.80860        0.96750
C          9.36290        3.63950        0.68600
C          8.38550        4.56320        1.11190
C         10.61110        4.27350        0.51810
N          7.65610        5.37130        1.47880
N         11.59780        4.84770        0.39520
C          6.68400        2.18340        0.64680
C        -10.20970       -6.84300       -0.97180
C        -10.09670       -8.17520       -0.67950
C         -8.89840       -8.68900       -0.16240
C         -7.82950       -7.86230        0.05530
C         13.62820        0.43610       -0.86620
C         14.38040       -0.67770       -1.12340
C         13.82340       -1.95760       -0.98440
C         12.52140       -2.10500       -0.58970
H         -0.26420       -1.55590        1.14430
H          0.76020        3.14620       -0.26760
H         -4.97660        1.71020       -1.23520
H          5.57660       -0.35780        1.56000
H         -1.28870        2.94120        2.03040
H         -2.20980        4.70910        3.44990
H         -4.81240        5.90610        0.29140
H         -3.88470        4.14410       -1.13920
H         -0.98970        4.71210       -1.31650
H         -0.43670        5.48790       -3.57310
H         -1.82340        1.79300       -5.18710
H         -2.36320        1.00600       -2.93310
H          1.58620       -1.63890       -1.02560
H          2.31520       -3.62640       -2.25230
H          5.07410       -4.55210        0.86520
H          4.33030       -2.57710        2.10960
H          3.21620        0.78600        3.58540
H          2.82040        0.31050        5.95040
H          0.93560       -3.36870        4.90560
H          1.34780       -2.90840        2.53510
H          3.98620       -5.35690       -2.58300
H          5.22700       -5.65700       -1.35760
H          1.52780       -2.90340        7.23220
H          2.36300       -1.40530        7.66740
H          0.02320        4.90830       -5.90320
H         -0.50940        3.35800       -6.56970
H         -3.43170        6.82690        3.59010
H         -4.47340        7.35350        2.26000
H         -2.33730        5.71860       -5.91050
H         -2.86800        4.17400       -6.57550
H         -1.82600        5.23400       -7.53090
H         -5.10920        5.08950        4.21370
H         -6.14470        5.60580        2.88340
H         -5.83210        6.70190        4.23350
H          3.67320       -7.59010       -1.53540
H          2.30520       -6.53560       -1.16270
H          3.54300       -6.83530        0.05700
H          0.25480       -0.12390        7.29700
H          0.02280       -1.39120        8.50630
H         -0.57840       -1.61490        6.85960
H         -6.66340        0.03190       -1.22980
H         -5.89130       -5.99020        0.37690
H        -10.17630       -4.22520       -1.46160
H          9.92150       -2.08430        0.18560
H         11.95610        2.44050       -0.31610
H          6.68890        3.24380        0.41830
H        -11.13050       -6.44280       -1.37010
H        -10.93080       -8.84050       -0.84530
H         -8.82610       -9.74270        0.06230
H         -6.90370       -8.25210        0.45290
H         14.05310        1.42370       -0.97070
H         15.40910       -0.57850       -1.43590
H         14.43090       -2.82590       -1.19210
H         12.08650       -3.08800       -0.48130
