160
IDTOT2F.sdf
C         -1.98520       -0.53380        1.19200
C         -0.83150       -1.09110        0.59550
C          0.19190       -0.29540        0.08720
C          0.03050        1.06680        0.18190
C         -1.13730        1.62380        0.74910
C         -2.15950        0.82910        1.26060
C         -2.94010       -1.61890        1.65880
C         -2.19310       -2.86130        1.22600
C         -0.98550       -2.51180        0.64640
C         -2.39350       -4.24870        1.28860
C         -1.29750       -4.94780        0.76760
S         -0.07050       -3.86840        0.13840
C          0.98890        2.15930       -0.27580
C          0.20240        3.40640        0.08140
C         -0.99120        3.04310        0.68670
C          0.39030        4.79930        0.07670
C         -0.69020        5.46870        0.66880
S         -1.91530        4.37080        1.25470
C         -1.04890       -6.34510        0.76670
C         -0.82240        6.86830        0.77130
C          2.25570        2.17440        0.56830
C          1.20670        1.94530       -1.75920
C         -4.23740       -1.42520        0.89290
C         -3.11400       -1.66660        3.16600
C         -4.25290       -1.67970       -0.47380
C         -5.40400       -1.49200       -1.21320
C         -6.56920       -1.03370       -0.61140
C         -6.53760       -0.74220        0.74490
C         -5.38490       -0.92360        1.48880
C         -2.30850       -0.92400        4.01740
C         -2.46350       -1.01600        5.38930
C         -3.41530       -1.85710        5.94750
C         -4.20920       -2.60970        5.09120
C         -4.05980       -2.52120        3.72120
C          3.47760        2.60330        0.06880
C          4.59030        2.66410        0.88810
C          4.51710        2.30450        2.22620
C          3.29050        1.88710        2.72590
C          2.17610        1.82650        1.91230
C          2.18100        1.06510       -2.21490
C          2.34040        0.83450       -3.56840
C          1.52850        1.46420       -4.50280
C          0.53410        2.31660       -4.04210
C          0.36890        2.54900       -2.68960
C          5.71570        2.41740        3.12240
C          1.68460        1.18380       -5.96910
C         -3.61350       -1.92010        7.43440
C         -7.83960       -0.90760       -1.40070
C         -4.66260       -0.89820        7.87780
C         -8.58760       -2.24260       -1.41190
C          5.76960        3.80480        3.76570
C          0.83140       -0.01910       -6.37690
S          0.36800        7.92430        0.10100
C         -0.57180        9.32590        0.56750
C         -1.74470        8.93050        1.22830
C         -1.89090        7.56840        1.33520
S          0.07520       -7.05550       -0.34290
C         -0.18470       -8.63840        0.35350
C         -1.10610       -8.55870        1.40530
C         -1.59080       -7.29100        1.63670
C          0.40370       -9.84670       -0.03000
C          1.30080      -10.12230       -1.03630
C          1.84670       -9.14520       -1.97940
C          2.71750       -9.90950       -2.89810
C          2.71110      -11.26360       -2.52490
C          1.84270      -11.42610       -1.35630
C          3.44840       -9.44420       -3.97250
C          4.19120      -10.36710       -4.69120
C          4.19050      -11.71430       -4.33060
C          3.45630      -12.18030       -3.24950
O          1.63800       -7.94650       -2.02300
C          1.61650      -12.61200       -0.70600
C          2.19260      -13.84360       -1.08370
C          0.79350      -12.79030        0.42570
N          0.14440      -13.02770        1.34340
N          2.62420      -14.87670       -1.33650
F          4.91450      -12.58450       -5.04400
F          4.91500       -9.96190       -5.74240
C         -0.25070       10.66760        0.36010
C          0.80720       11.24090       -0.31350
C          1.83070       10.52270       -1.07190
C          2.70110       11.56170       -1.66540
C          2.23850       12.83060       -1.28100
C          1.05290       12.66100       -0.43670
C          3.80980       11.39430       -2.47000
C          4.47200       12.53450       -2.89620
C          4.02280       13.79880       -2.51850
C          2.90650       13.96580       -1.71120
O          1.95760        9.32030       -1.22370
C          0.33980       13.69050        0.12390
C          0.65010       15.05530       -0.05230
C         -0.79520       13.55960        0.95090
N          0.84070       16.18270       -0.15690
N         -1.72060       13.55250        1.63190
F          5.55430       12.41930       -3.67800
F          4.68180       14.88380       -2.94370
O         -3.50780       -4.82030        1.81960
C         -4.28240       -5.67740        0.98760
C         -5.08970       -4.90390       -0.04710
O          1.44450        5.54630       -0.30790
C          2.07100        5.30300       -1.56090
C          1.40930        6.11070       -2.67040
H          1.06880       -0.74080       -0.35550
H         -3.04260        1.26980        1.69720
H         -3.35310       -2.02630       -0.96300
H         -5.39860       -1.70350       -2.27310
H         -7.42650       -0.36360        1.22940
H         -5.38570       -0.67650        2.53980
H         -1.55130       -0.26780        3.61440
H         -1.82810       -0.42650        6.03510
H         -4.95130       -3.27880        5.50320
H         -4.67630       -3.12620        3.07570
H          3.57820        2.88530       -0.96810
H          5.53200        2.99730        0.47600
H          3.20530        1.60550        3.76580
H          1.23270        1.50320        2.32800
H          2.82670        0.56380       -1.50890
H          3.11010        0.15430       -3.90370
H         -0.11990        2.80610       -4.74940
H         -0.41830        3.20940       -2.35400
H          5.66480        1.65890        3.90620
H          6.62750        2.25270        2.54510
H          1.37630        2.05660       -6.54810
H          2.73180        0.97480       -6.19640
H         -3.94280       -2.92070        7.72150
H         -2.67050       -1.71110        7.94330
H         -8.47810       -0.14010       -0.95960
H         -7.61120       -0.61510       -2.42750
H         -4.80860       -0.94520        8.95440
H         -5.61410       -1.09640        7.38930
H         -4.34560        0.10820        7.61360
H         -9.50610       -2.16030       -1.98780
H         -8.83980       -2.54280       -0.39720
H         -7.96760       -3.01960       -1.85410
H          5.83120        4.57470        3.00000
H          6.63750        3.88950        4.41520
H          4.87390        3.98280        4.35670
H          0.94670       -0.22380       -7.43860
H          1.13080       -0.90270       -5.81780
H         -0.21910        0.17520       -6.17210
H         -2.45600        9.64660        1.60160
H         -2.72790        7.07380        1.79630
H         -1.39020       -9.42580        1.97570
H         -2.27650       -7.03580        2.42460
H          0.07680      -10.68580        0.57230
H          3.44470       -8.40130       -4.24660
H          3.49040      -13.23130       -3.01470
H         -0.96560       11.35110        0.80240
H          4.15440       10.41400       -2.75800
H          2.60160       14.96550       -1.44990
H         -4.94970       -6.19340        1.68250
H         -3.64830       -6.41760        0.48780
H         -4.42780       -4.41310       -0.75660
H         -5.73660       -5.59010       -0.58670
H         -5.70080       -4.14420        0.43420
H          3.10580        5.62550       -1.42490
H          2.04580        4.23830       -1.80350
H          1.48240        7.17140       -2.44680
H          1.90670        5.90470       -3.61410
H          0.35950        5.83920       -2.76150
