124
IDTT-OB.sdf
C          7.37900        3.92530       -4.80120
O          7.03600        2.76010       -4.81410
C          8.47030        4.50620       -5.60130
C          9.27200        3.89180       -6.54430
C         10.23230        4.65450       -7.18800
C         10.39320        6.00900       -6.90000
C          9.58410        6.61850       -5.94250
C          8.62190        5.86710       -5.28930
C          7.64920        6.21990       -4.25810
C          7.59740        7.42500       -3.60750
C          8.44830        8.51400       -3.89320
N          9.10090        9.44100       -4.07490
C          6.73590        7.76210       -2.54150
N          6.09460        8.12190       -1.65870
C          6.81690        5.05140       -4.01630
C          5.66750        5.08930       -3.27440
C          4.73410        4.08990       -2.94070
C          4.70590        2.71930       -3.14280
C          3.55160        2.14360       -2.63360
C          2.65540        3.05450       -2.03370
S          3.29140        4.65120       -2.08010
C          1.51240        2.42970       -1.53470
C          0.23580        2.81120       -0.83180
C          0.47220        3.48230        0.50760
C         -0.53660        4.18690        1.15360
C         -0.31410        4.77070        2.38680
C          0.91710        4.66460        3.01860
C          1.17490        5.34800        4.32970
C          1.72870        6.75520        4.09610
C          1.91840        3.94600        2.38080
C          1.69850        3.35890        1.14920
C         -0.67980        3.62630       -1.77460
C         -0.19850        5.04840       -2.02470
C         -0.39340        1.43960       -0.62540
C          0.40470        0.42260       -1.19560
C          1.56080        1.05980       -1.74230
S          2.97450        0.50330       -2.56780
C          0.03240       -0.91900       -1.16720
C         -1.17200       -1.23080       -0.57800
C         -1.85010       -2.58290       -0.45020
C         -1.06820       -3.59130        0.37250
C         -1.47230       -4.92040        0.42740
C         -0.80080       -5.83170        1.21980
C          0.28880       -5.44480        1.98840
C          1.04500       -6.44620        2.81210
C          2.17350       -7.07060        1.98880
C          0.68240       -4.11480        1.94240
C          0.01140       -3.19860        1.15310
C         -2.27210       -3.12550       -1.83670
C         -1.12370       -3.66330       -2.67910
C         -3.09570       -2.19970        0.30790
C         -3.12460       -0.83760        0.55080
C         -1.96050       -0.21070        0.00880
C         -1.57910        1.12840       -0.00410
S         -4.53580       -0.29350        1.39040
C         -5.12910       -1.93060        1.41190
C         -4.23520       -2.83200        0.79560
S         -4.86130       -4.43050        0.82290
C         -6.33180       -3.87650        1.64010
C         -6.29560       -2.51280        1.88470
C         -7.28580       -4.87460        1.91260
C         -8.55600       -4.80770        2.41800
C         -9.39960       -5.97660        2.61400
C         -9.01630       -7.29230        2.58570
C         -7.70710       -7.77810        2.38110
N         -6.67790       -8.26970        2.24240
C         -9.89530       -8.37530        2.80050
N        -10.55270       -9.30280        2.96130
C        -10.74840       -5.50520        2.91930
C        -11.93850       -6.18470        3.11660
C        -13.09580       -5.46520        3.41010
C        -13.04720       -4.07530        3.50310
C        -11.86460       -3.38240        3.30350
C        -10.72330       -4.10400        3.01030
C         -9.36250       -3.60710        2.74690
O         -9.01370       -2.44450        2.79340
C        -14.39220       -6.18600        3.60190
C         11.44760        6.80450       -7.60170
H          9.14010        2.84390       -6.76600
H         10.86970        4.19700       -7.93050
H          9.71640        7.66730       -5.73150
H          5.38810        6.06270       -2.88710
H          5.49340        2.18620       -3.64230
H         -1.50870        4.29520        0.69820
H         -1.11360        5.31790        2.86600
H          1.89510        4.77040        4.91280
H          0.24730        5.41590        4.90170
H          2.65740        6.70790        3.53230
H          1.92240        7.25010        5.04490
H          1.01700        7.35310        3.53110
H          2.88430        3.84100        2.85390
H          2.49660        2.79690        0.68720
H         -1.68370        3.64870       -1.34890
H         -0.74530        3.08800       -2.72390
H          0.73500        5.05370       -2.57880
H         -0.94080        5.58890       -2.60760
H         -0.04290        5.57600       -1.08710
H          0.68320       -1.67230       -1.58210
H         -2.32190       -5.25820       -0.14550
H         -1.13600       -6.85840        1.24630
H          1.46920       -5.95760        3.69160
H          0.36840       -7.23330        3.15010
H          2.72380       -7.79460        2.58500
H          2.86470       -6.30200        1.64990
H          1.76880       -7.57610        1.11480
H          1.52150       -3.78540        2.53870
H          0.33280       -2.16760        1.15260
H         -2.77460       -2.31710       -2.37420
H         -3.00630       -3.91780       -1.68100
H         -1.52210       -4.17700       -3.55110
H         -0.52470       -4.36880       -2.10810
H         -0.48310       -2.85880       -3.02810
H         -2.19970        1.87670        0.46370
H         -7.09440       -1.98770        2.37470
H         -6.94030       -5.86430        1.63590
H        -11.99090       -7.25890        3.04370
H        -13.95240       -3.53290        3.73430
H        -11.82110       -2.30630        3.37230
H        -14.22330       -7.21790        3.89840
H        -15.00350       -5.69280        4.35410
H        -14.95220       -6.19070        2.66610
H         11.54300        6.49260       -8.63950
H         11.22200        7.86710       -7.56670
H         12.41120        6.64740       -7.11580
