IDTT_TCV_2.sdf
  xtb     12202113493D
 energy: -194.065091677966 gnorm: 0.000867844519 xtb: 6.4.1 (unknown)
120130  0     0  0            999 V2000
    0.2688   -1.5480    0.1647 C   0  0  0  0  0  0  0  0  0  0  0  0
   -0.0527   -1.2046    1.4999 C   0  0  0  0  0  0  0  0  0  0  0  0
    0.1631    0.0752    2.0056 C   0  0  0  0  0  0  0  0  0  0  0  0
    0.6893    1.0104    1.1453 C   0  0  0  0  0  0  0  0  0  0  0  0
    1.0083    0.6661   -0.1898 C   0  0  0  0  0  0  0  0  0  0  0  0
    0.8096   -0.6176   -0.6907 C   0  0  0  0  0  0  0  0  0  0  0  0
   -0.0420   -3.0092   -0.1142 C   0  0  0  0  0  0  0  0  0  0  0  0
   -0.5932   -3.4434    1.2193 C   0  0  0  0  0  0  0  0  0  0  0  0
   -0.5930   -2.3780    2.1092 C   0  0  0  0  0  0  0  0  0  0  0  0
   -1.1249   -4.6082    1.7575 C   0  0  0  0  0  0  0  0  0  0  0  0
   -1.5322   -4.4335    3.0721 C   0  0  0  0  0  0  0  0  0  0  0  0
   -1.2487   -2.7972    3.6357 S   0  0  0  0  0  0  0  0  0  0  0  0
    1.0386    2.4623    1.4313 C   0  0  0  0  0  0  0  0  0  0  0  0
    1.5647    2.9013    0.0880 C   0  0  0  0  0  0  0  0  0  0  0  0
    1.5225    1.8440   -0.8107 C   0  0  0  0  0  0  0  0  0  0  0  0
    2.0440    4.0776   -0.4744 C   0  0  0  0  0  0  0  0  0  0  0  0
    2.3747    3.9152   -1.8124 C   0  0  0  0  0  0  0  0  0  0  0  0
    2.0806    2.2790   -2.3696 S   0  0  0  0  0  0  0  0  0  0  0  0
   -0.1503    3.3346    1.7891 C   0  0  0  0  0  0  0  0  0  0  0  0
    2.0914    2.4765    2.5266 C   0  0  0  0  0  0  0  0  0  0  0  0
   -1.1208   -3.2244   -1.1602 C   0  0  0  0  0  0  0  0  0  0  0  0
    1.2561   -3.7007   -0.4922 C   0  0  0  0  0  0  0  0  0  0  0  0
   -1.9641   -2.2006   -1.5656 C   0  0  0  0  0  0  0  0  0  0  0  0
   -2.9627   -2.4423   -2.4921 C   0  0  0  0  0  0  0  0  0  0  0  0
   -3.1503   -3.7085   -3.0286 C   0  0  0  0  0  0  0  0  0  0  0  0
   -2.3143   -4.7342   -2.6051 C   0  0  0  0  0  0  0  0  0  0  0  0
   -1.3141   -4.4979   -1.6824 C   0  0  0  0  0  0  0  0  0  0  0  0
    1.6901   -3.6879   -1.8119 C   0  0  0  0  0  0  0  0  0  0  0  0
    2.8899   -4.2775   -2.1613 C   0  0  0  0  0  0  0  0  0  0  0  0
    3.6881   -4.8933   -1.2056 C   0  0  0  0  0  0  0  0  0  0  0  0
    3.2553   -4.8923    0.1133 C   0  0  0  0  0  0  0  0  0  0  0  0
    2.0572   -4.3005    0.4690 C   0  0  0  0  0  0  0  0  0  0  0  0
    0.0763    4.6077    2.2997 C   0  0  0  0  0  0  0  0  0  0  0  0
   -0.9818    5.4382    2.6117 C   0  0  0  0  0  0  0  0  0  0  0  0
   -2.2941    5.0233    2.4200 C   0  0  0  0  0  0  0  0  0  0  0  0
   -2.5141    3.7590    1.8919 C   0  0  0  0  0  0  0  0  0  0  0  0
   -1.4573    2.9237    1.5750 C   0  0  0  0  0  0  0  0  0  0  0  0
    3.4447    2.4289    2.2232 C   0  0  0  0  0  0  0  0  0  0  0  0
    4.3892    2.4025    3.2328 C   0  0  0  0  0  0  0  0  0  0  0  0
    4.0087    2.4106    4.5678 C   0  0  0  0  0  0  0  0  0  0  0  0
    2.6525    2.4447    4.8659 C   0  0  0  0  0  0  0  0  0  0  0  0
    1.7046    2.4730    3.8610 C   0  0  0  0  0  0  0  0  0  0  0  0
   -3.4409    5.9408    2.7303 C   0  0  0  0  0  0  0  0  0  0  0  0
    5.0376    2.4345    5.6606 C   0  0  0  0  0  0  0  0  0  0  0  0
    5.0100   -5.4981   -1.5800 C   0  0  0  0  0  0  0  0  0  0  0  0
   -4.2626   -3.9747   -4.0008 C   0  0  0  0  0  0  0  0  0  0  0  0
    6.1235   -4.4541   -1.4715 C   0  0  0  0  0  0  0  0  0  0  0  0
   -5.5434   -4.3545   -3.2547 C   0  0  0  0  0  0  0  0  0  0  0  0
   -3.7727    6.8116    1.5167 C   0  0  0  0  0  0  0  0  0  0  0  0
    5.4121    3.8769    6.0079 C   0  0  0  0  0  0  0  0  0  0  0  0
   -2.1200   -5.3991    3.9265 C   0  0  0  0  0  0  0  0  0  0  0  0
    2.8866    4.8893   -2.7046 C   0  0  0  0  0  0  0  0  0  0  0  0
   -3.7800   -6.9600    7.0578 C   0  0  0  0  0  0  0  0  0  0  0  0
    4.1915    6.5598   -5.9598 C   0  0  0  0  0  0  0  0  0  0  0  0
   -2.6429   -4.9923    5.5258 S   0  0  0  0  0  0  0  0  0  0  0  0
   -3.1917   -6.6296    5.8080 C   0  0  0  0  0  0  0  0  0  0  0  0
   -2.9610   -7.4230    4.6936 C   0  0  0  0  0  0  0  0  0  0  0  0
   -2.3658   -6.7375    3.6469 C   0  0  0  0  0  0  0  0  0  0  0  0
    3.2049    4.4945   -4.3622 S   0  0  0  0  0  0  0  0  0  0  0  0
    3.7437    6.1209   -4.6865 C   0  0  0  0  0  0  0  0  0  0  0  0
    3.6683    6.9030   -3.5402 C   0  0  0  0  0  0  0  0  0  0  0  0
    3.1910    6.2172   -2.4357 C   0  0  0  0  0  0  0  0  0  0  0  0
   -4.2563   -8.1935    7.4535 C   0  0  0  0  0  0  0  0  0  0  0  0
   -3.8932   -5.9040    8.0013 C   0  0  0  0  0  0  0  0  0  0  0  0
   -4.2355   -9.3608    6.6710 C   0  0  0  0  0  0  0  0  0  0  0  0
   -4.8179   -8.3629    8.7373 C   0  0  0  0  0  0  0  0  0  0  0  0
    4.2830    5.8097   -7.1137 C   0  0  0  0  0  0  0  0  0  0  0  0
    4.5843    7.9224   -6.0457 C   0  0  0  0  0  0  0  0  0  0  0  0
    3.9331    4.4507   -7.2092 C   0  0  0  0  0  0  0  0  0  0  0  0
    4.7522    6.3836   -8.3141 C   0  0  0  0  0  0  0  0  0  0  0  0
   -3.9775   -5.0436    8.7522 N   0  0  0  0  0  0  0  0  0  0  0  0
   -5.2814   -8.5211    9.7741 N   0  0  0  0  0  0  0  0  0  0  0  0
   -4.2408  -10.3362    6.0649 N   0  0  0  0  0  0  0  0  0  0  0  0
    3.6640    3.3417   -7.3357 N   0  0  0  0  0  0  0  0  0  0  0  0
    5.1284    6.8327   -9.2998 N   0  0  0  0  0  0  0  0  0  0  0  0
    4.8970    9.0221   -6.1097 N   0  0  0  0  0  0  0  0  0  0  0  0
   -0.0821    0.3138    3.0289 H   0  0  0  0  0  0  0  0  0  0  0  0
    1.0664   -0.8588   -1.7104 H   0  0  0  0  0  0  0  0  0  0  0  0
   -1.2193   -5.5398    1.2317 H   0  0  0  0  0  0  0  0  0  0  0  0
    2.1518    5.0101    0.0474 H   0  0  0  0  0  0  0  0  0  0  0  0
   -1.8408   -1.2062   -1.1621 H   0  0  0  0  0  0  0  0  0  0  0  0
   -3.6044   -1.6308   -2.8044 H   0  0  0  0  0  0  0  0  0  0  0  0
   -2.4456   -5.7290   -3.0062 H   0  0  0  0  0  0  0  0  0  0  0  0
   -0.6654   -5.3051   -1.3736 H   0  0  0  0  0  0  0  0  0  0  0  0
    1.0782   -3.2274   -2.5740 H   0  0  0  0  0  0  0  0  0  0  0  0
    3.2093   -4.2626   -3.1935 H   0  0  0  0  0  0  0  0  0  0  0  0
    3.8617   -5.3628    0.8741 H   0  0  0  0  0  0  0  0  0  0  0  0
    1.7451   -4.3112    1.5032 H   0  0  0  0  0  0  0  0  0  0  0  0
    1.0901    4.9413    2.4692 H   0  0  0  0  0  0  0  0  0  0  0  0
   -0.7874    6.4213    3.0163 H   0  0  0  0  0  0  0  0  0  0  0  0
   -3.5267    3.4183    1.7292 H   0  0  0  0  0  0  0  0  0  0  0  0
   -1.6564    1.9444    1.1651 H   0  0  0  0  0  0  0  0  0  0  0  0
    3.7675    2.4146    1.1923 H   0  0  0  0  0  0  0  0  0  0  0  0
    5.4388    2.3715    2.9774 H   0  0  0  0  0  0  0  0  0  0  0  0
    2.3334    2.4470    5.8983 H   0  0  0  0  0  0  0  0  0  0  0  0
    0.6553    2.5069    4.1160 H   0  0  0  0  0  0  0  0  0  0  0  0
   -3.1820    6.5839    3.5739 H   0  0  0  0  0  0  0  0  0  0  0  0
   -4.3205    5.3552    3.0042 H   0  0  0  0  0  0  0  0  0  0  0  0
    5.9324    1.8980    5.3388 H   0  0  0  0  0  0  0  0  0  0  0  0
    4.6438    1.9408    6.5510 H   0  0  0  0  0  0  0  0  0  0  0  0
    5.2358   -6.3348   -0.9159 H   0  0  0  0  0  0  0  0  0  0  0  0
    4.9689   -5.8750   -2.6038 H   0  0  0  0  0  0  0  0  0  0  0  0
   -3.9818   -4.7893   -4.6711 H   0  0  0  0  0  0  0  0  0  0  0  0
   -4.4485   -3.0839   -4.6039 H   0  0  0  0  0  0  0  0  0  0  0  0
    7.0829   -4.8930   -1.7346 H   0  0  0  0  0  0  0  0  0  0  0  0
    5.9269   -3.6202   -2.1415 H   0  0  0  0  0  0  0  0  0  0  0  0
    6.1835   -4.0695   -0.4557 H   0  0  0  0  0  0  0  0  0  0  0  0
   -6.3499   -4.5478   -3.9577 H   0  0  0  0  0  0  0  0  0  0  0  0
   -5.8471   -3.5488   -2.5899 H   0  0  0  0  0  0  0  0  0  0  0  0
   -5.3821   -5.2485   -2.6563 H   0  0  0  0  0  0  0  0  0  0  0  0
   -2.9097    7.4096    1.2323 H   0  0  0  0  0  0  0  0  0  0  0  0
   -4.5993    7.4807    1.7435 H   0  0  0  0  0  0  0  0  0  0  0  0
   -4.0514    6.1893    0.6693 H   0  0  0  0  0  0  0  0  0  0  0  0
    6.1563    3.8963    6.8004 H   0  0  0  0  0  0  0  0  0  0  0  0
    4.5343    4.4256    6.3419 H   0  0  0  0  0  0  0  0  0  0  0  0
    5.8203    4.3824    5.1355 H   0  0  0  0  0  0  0  0  0  0  0  0
   -3.2200   -8.4648    4.6486 H   0  0  0  0  0  0  0  0  0  0  0  0
   -2.1135   -7.1934    2.7076 H   0  0  0  0  0  0  0  0  0  0  0  0
    3.9568    7.9396   -3.5291 H   0  0  0  0  0  0  0  0  0  0  0  0
    3.0665    6.6607   -1.4653 H   0  0  0  0  0  0  0  0  0  0  0  0
  1  2  1  0  0  0  0
  2  3  2  0  0  0  0
  3  4  1  0  0  0  0
  4  5  2  0  0  0  0
  5  6  1  0  0  0  0
  6  1  2  0  0  0  0
  1  7  1  0  0  0  0
  7  8  1  0  0  0  0
  8  9  2  0  0  0  0
  9  2  1  0  0  0  0
  8 10  1  0  0  0  0
 10 11  2  0  0  0  0
 11 12  1  0  0  0  0
 12  9  1  0  0  0  0
  4 13  1  0  0  0  0
 13 14  1  0  0  0  0
 14 15  2  0  0  0  0
 15  5  1  0  0  0  0
 14 16  1  0  0  0  0
 16 17  2  0  0  0  0
 17 18  1  0  0  0  0
 18 15  1  0  0  0  0
 13 19  1  0  0  0  0
 13 20  1  0  0  0  0
  7 21  1  0  0  0  0
  7 22  1  0  0  0  0
 21 23  2  0  0  0  0
 23 24  1  0  0  0  0
 24 25  2  0  0  0  0
 25 26  1  0  0  0  0
 26 27  2  0  0  0  0
 27 21  1  0  0  0  0
 22 28  2  0  0  0  0
 28 29  1  0  0  0  0
 29 30  2  0  0  0  0
 30 31  1  0  0  0  0
 31 32  2  0  0  0  0
 32 22  1  0  0  0  0
 19 33  2  0  0  0  0
 33 34  1  0  0  0  0
 34 35  2  0  0  0  0
 35 36  1  0  0  0  0
 36 37  2  0  0  0  0
 37 19  1  0  0  0  0
 20 38  2  0  0  0  0
 38 39  1  0  0  0  0
 39 40  2  0  0  0  0
 40 41  1  0  0  0  0
 41 42  2  0  0  0  0
 42 20  1  0  0  0  0
 35 43  1  0  0  0  0
 40 44  1  0  0  0  0
 30 45  1  0  0  0  0
 25 46  1  0  0  0  0
 45 47  1  0  0  0  0
 46 48  1  0  0  0  0
 43 49  1  0  0  0  0
 44 50  1  0  0  0  0
 51 11  1  0  0  0  0
 17 52  1  0  0  0  0
 51 55  1  0  0  0  0
 55 56  1  0  0  0  0
 56 57  2  0  0  0  0
 57 58  1  0  0  0  0
 58 51  2  0  0  0  0
 56 53  1  0  0  0  0
 52 59  1  0  0  0  0
 59 60  1  0  0  0  0
 60 61  2  0  0  0  0
 61 62  1  0  0  0  0
 62 52  2  0  0  0  0
 60 54  1  0  0  0  0
 53 63  2  0  0  0  0
 53 64  1  0  0  0  0
 63 65  1  0  0  0  0
 63 66  1  0  0  0  0
 54 67  2  0  0  0  0
 54 68  1  0  0  0  0
 67 69  1  0  0  0  0
 67 70  1  0  0  0  0
 64 71  3  0  0  0  0
 66 72  3  0  0  0  0
 65 73  3  0  0  0  0
 69 74  3  0  0  0  0
 70 75  3  0  0  0  0
 68 76  3  0  0  0  0
  3 77  1  0  0  0  0
  6 78  1  0  0  0  0
 10 79  1  0  0  0  0
 16 80  1  0  0  0  0
 23 81  1  0  0  0  0
 24 82  1  0  0  0  0
 26 83  1  0  0  0  0
 27 84  1  0  0  0  0
 28 85  1  0  0  0  0
 29 86  1  0  0  0  0
 31 87  1  0  0  0  0
 32 88  1  0  0  0  0
 33 89  1  0  0  0  0
 34 90  1  0  0  0  0
 36 91  1  0  0  0  0
 37 92  1  0  0  0  0
 38 93  1  0  0  0  0
 39 94  1  0  0  0  0
 41 95  1  0  0  0  0
 42 96  1  0  0  0  0
 43 97  1  0  0  0  0
 43 98  1  0  0  0  0
 44 99  1  0  0  0  0
 44100  1  0  0  0  0
 45101  1  0  0  0  0
 45102  1  0  0  0  0
 46103  1  0  0  0  0
 46104  1  0  0  0  0
 47105  1  0  0  0  0
 47106  1  0  0  0  0
 47107  1  0  0  0  0
 48108  1  0  0  0  0
 48109  1  0  0  0  0
 48110  1  0  0  0  0
 49111  1  0  0  0  0
 49112  1  0  0  0  0
 49113  1  0  0  0  0
 50114  1  0  0  0  0
 50115  1  0  0  0  0
 50116  1  0  0  0  0
 57117  1  0  0  0  0
 58118  1  0  0  0  0
 61119  1  0  0  0  0
 62120  1  0  0  0  0
M  END
