180
IDTT2OT.sdf
C          7.68160        0.40790       -3.91320
C          6.57740        0.33110       -3.03160
C          6.34120        1.05510       -1.87840
C          5.12270        0.71690       -1.29580
C          4.40750       -0.27190       -1.99370
S          5.27260       -0.79300       -3.39140
C          3.16850       -0.53940       -1.41400
C          1.99250       -1.44430       -1.66800
C          2.48360       -2.87060       -1.48310
C          2.25750       -3.58500       -0.31630
C          2.76390       -4.86470       -0.17200
C          3.51150       -5.45640       -1.18020
C          4.09900       -6.82670       -1.00100
C          5.50270       -6.73080       -0.39990
C          3.74560       -4.72990       -2.34150
C          3.23960       -3.45420       -2.49320
C          1.34030       -1.24810       -3.02130
C          0.55010       -2.25350       -3.56420
C         -0.08280       -2.06840       -4.77820
C          0.05480       -0.87820       -5.48080
C         -0.66830       -0.66670       -6.77950
C         -2.07080       -0.11070       -6.52450
C          0.83590        0.12710       -4.92780
C          1.46840       -0.05150       -3.71140
C          1.03850       -0.98250       -0.57940
C          1.64920       -0.01150        0.24870
C          2.95390        0.22920       -0.28370
S          4.26290        1.29620        0.10210
C          0.97600        0.56580        1.32220
C         -0.32830        0.18130        1.52460
C         -1.29530        0.67640        2.58580
C         -1.36580        2.18970        2.59000
C         -2.25650        2.86250        1.76430
C         -2.32980        4.24210        1.78690
C         -1.50750        4.98720        2.62160
C         -1.64270        6.48100        2.69060
C         -2.78100        6.86870        3.63690
C         -0.59590        4.31180        3.42180
C         -0.52200        2.93150        3.40600
C         -0.99580        0.12730        3.97220
C         -1.74740        0.58330        5.04900
C         -1.53710        0.07700        6.31630
C         -0.57350       -0.89810        6.54360
C         -0.37490       -1.47780        7.91430
C         -1.29470       -2.68260        8.12300
C          0.16580       -1.35740        5.46290
C         -0.04230       -0.85570        4.19020
C         -2.57070        0.02780        2.12170
C         -2.33140       -0.82070        1.05690
C         -0.95780       -0.74740        0.66120
C         -0.27270       -1.35200       -0.38880
S         -3.76030       -1.58010        0.43360
C         -4.71540       -0.70010        1.59380
C         -3.92520        0.09810        2.43680
S         -4.89180        1.03810        3.50960
C         -6.35290        0.39260        2.77660
C         -6.08550       -0.54230        1.79760
C        -11.44330        0.93820        3.74190
C        -12.33100        1.32660        4.71200
C        -13.76470        1.42090        4.56850
C        -14.47590        1.35210        3.39700
C        -13.90870        1.18100        2.11750
N        -13.52200        1.07080        1.04120
C        -15.87750        1.47160        3.31080
N        -17.01450        1.55410        3.17090
C        -14.32450        1.70650        5.88930
C        -15.62960        1.90280        6.31120
C        -15.85790        2.18110        7.65290
C        -14.81470        2.25970        8.56330
C        -13.50460        2.05550        8.15170
C        -13.27250        1.78700        6.81780
C        -11.98720        1.52400        6.13450
O        -10.90580        1.37760        6.66520
C          8.65960       -2.02430       -8.00140
O          7.71090       -2.08270       -7.23740
C          8.87190       -2.86120       -9.19700
C          8.07360       -3.86630       -9.70480
C          8.49800       -4.52260      -10.85230
C          9.69310       -4.17070      -11.46140
C         10.49760       -3.15780      -10.95340
C         10.08270       -2.49420       -9.81020
C         10.68410       -1.39850       -9.04690
C         11.83980       -0.74240       -9.38800
C         12.63470       -1.06500      -10.50760
N         13.33240       -1.27140      -11.39600
C         12.39860        0.35700       -8.70660
N         12.92020        1.26620       -8.23540
C          9.81870       -1.13190       -7.91930
C         10.05050       -0.22610       -6.91210
C        -10.04710        1.09660        3.75980
C         -9.25410        2.09890        4.33960
C         -7.88940        1.97460        3.98340
C         -7.62400        0.84920        3.20870
S         -9.07680        0.01740        2.78530
O         -9.82620        3.07220        5.04980
C         -9.03520        3.85350        5.94140
C         -9.94590        4.36360        7.04610
O         -6.90100        2.87290        4.31230
C         -6.45480        3.69690        3.23410
C         -7.41200        4.83300        2.89610
C          8.80350        1.24270       -3.79610
C          9.68150        1.07510       -4.87160
C          9.26850        0.09480       -5.79840
S          7.73710       -0.58280       -5.33200
O          8.91010        2.08920       -2.74210
O         10.85040        1.76240       -5.05360
C         10.20330        2.47310       -2.28620
C         11.04370        1.28470       -1.84020
C         10.71410        2.97290       -5.80180
C         12.09550        3.57530       -5.97610
H          7.02130        1.79470       -1.50300
H          1.68040       -3.14620        0.48450
H          2.57220       -5.41100        0.74080
H          3.46370       -7.41930       -0.33950
H          4.15560       -7.33390       -1.96610
H          5.46590       -6.23980        0.57010
H          5.93090       -7.72230       -0.27160
H          6.15370       -6.15210       -1.05120
H          4.32980       -5.16800       -3.13770
H          3.42640       -2.90610       -3.40520
H          0.44050       -3.19170       -3.03940
H         -0.68960       -2.86280       -5.18900
H         -0.74930       -1.61390       -7.31660
H         -0.11090        0.03390       -7.40420
H         -2.59640        0.04330       -7.46400
H         -2.01070        0.84000       -5.99930
H         -2.64650       -0.80210       -5.91320
H          0.95390        1.06260       -5.45610
H          2.06700        0.74790       -3.29930
H          1.45780        1.29900        1.95080
H         -2.90090        2.30710        1.09860
H         -3.03730        4.74810        1.14500
H         -1.85090        6.88060        1.69580
H         -0.71060        6.92230        3.04790
H         -3.72380        6.45490        3.28530
H         -2.58940        6.48270        4.63570
H         -2.87680        7.95050        3.69470
H          0.06300        4.87220        4.06990
H          0.18680        2.42540        4.04560
H         -2.49770        1.34510        4.89190
H         -2.12910        0.44550        7.14160
H         -0.59510       -0.72230        8.67120
H          0.66350       -1.79250        8.03660
H         -1.08140       -3.45340        7.38560
H         -1.15280       -3.10260        9.11600
H         -2.33570       -2.38650        8.01600
H          0.91790       -2.11830        5.61610
H          0.54630       -1.23230        3.36670
H         -0.76340       -2.06400       -1.03430
H         -6.85800       -1.04700        1.24670
H        -11.83110        0.42950        2.86670
H        -16.45970        1.84050        5.62660
H        -16.87160        2.33730        7.99050
H        -15.02460        2.47980        9.59930
H        -12.68050        2.10700        8.84700
H          7.14820       -4.12280       -9.21260
H          7.89520       -5.31280      -11.27390
H         10.01020       -4.69300      -12.35160
H         11.42140       -2.90850      -11.44890
H         10.98160        0.32850       -6.94550
H         -8.23090        3.24150        6.35830
H         -8.59460        4.69450        5.39580
H         -9.38190        5.00760        7.71490
H        -10.34500        3.52280        7.60530
H        -10.77330        4.92540        6.61980
H         -5.49210        4.08840        3.57080
H         -6.29120        3.08700        2.33770
H         -8.40640        4.44550        2.68160
H         -7.04740        5.35440        2.01500
H         -7.47710        5.54440        3.71550
H         10.73580        3.04520       -3.05050
H          9.98720        3.13120       -1.44010
H         10.48560        0.67380       -1.13390
H         11.32090        0.67420       -2.69600
H         11.95020        1.64300       -1.36110
H         10.26420        2.75270       -6.77930
H         10.04490        3.66290       -5.26580
H         12.55870        3.74000       -5.00660
H         12.71950        2.90010       -6.55440
H         12.01470        4.52320       -6.50020
