135
IDTT-M-2F.sdf
C          3.61620       -8.27840        4.18010
O          2.95540       -8.27810        3.16240
C          4.61870       -9.30630        4.54120
C          5.15190       -9.02550        5.80810
C          4.51130       -7.81660        6.32640
C          4.71210       -7.30790        7.58320
C          5.59800       -7.86870        8.52870
N          6.30170       -8.26760        9.34290
C          4.06740       -6.18560        8.14710
N          3.59010       -5.29830        8.69870
C          3.62080       -7.31110        5.29530
C          3.00480       -6.08540        5.36690
C          2.16590       -5.40520        4.47170
C          1.57680       -5.76700        3.26620
C          0.87660       -4.71820        2.69660
C          0.90190       -3.52160        3.44990
S          1.78980       -3.72530        4.90270
C          0.24920       -2.47770        2.80420
C          0.02650       -1.00610        3.02320
C         -1.01150       -0.71130        4.09490
C         -1.10930        0.56930        4.62490
C         -2.07110        0.86500        5.57100
C         -2.96390       -0.10490        6.01160
C         -3.98640        0.21370        7.05820
C         -2.86650       -1.37990        5.47190
C         -1.90690       -1.68060        4.52230
C          1.36190       -0.36380        3.34390
C          2.15200        0.21370        2.36120
C          3.38580        0.75000        2.68400
C          3.86400        0.71250        3.98640
C          5.22040        1.25850        4.32650
C          6.27810        0.15720        4.22940
C          3.07820        0.11050        4.96130
C          1.84380       -0.42250        4.64640
C         -0.57520       -0.60970        1.68580
C         -0.79130       -1.74770        0.87190
C         -0.25710       -2.87150        1.57440
S          0.01550       -4.53570        1.19220
C         -1.35590       -1.65010       -0.39790
C         -1.64330       -0.38820       -0.86030
C         -2.17470        0.01270       -2.22510
C         -3.66900       -0.22800       -2.38500
C         -4.48070       -0.57760       -1.31660
C         -5.84300       -0.73740       -1.49990
C         -6.42580       -0.54580       -2.74470
C         -7.91050       -0.67240       -2.92850
C         -8.59150        0.68100       -2.71460
C         -5.60760       -0.18390       -3.80820
C         -4.24730       -0.02560       -3.63280
C         -1.38170       -0.68050       -3.31280
C         -1.76500       -1.94210       -3.75090
C         -1.02960       -2.60150       -4.71640
C          0.10640       -2.02250       -5.26790
C          0.86690       -2.71960       -6.35820
C          0.25520       -2.39690       -7.72320
C          0.49000       -0.76640       -4.81930
C         -0.23860       -0.10470       -3.84780
C         -1.99130        1.50540       -2.16730
C         -1.59460        1.89800       -0.89930
C         -1.36440        0.75490       -0.07220
C         -0.86720        0.65250        1.22420
S         -1.35630        3.60310       -0.72510
C         -1.76270        3.81040       -2.40550
C         -2.10080        2.59210       -3.03080
S         -2.44640        2.82900       -4.69570
C         -2.08340        4.55710       -4.55520
C         -1.75600        4.90730       -3.25620
C         -2.14340        5.28810       -5.75940
C         -1.76260        6.56200       -6.07170
C         -1.83810        7.10180       -7.42560
C         -2.44210        6.56510       -8.53250
C         -3.16200        5.35560       -8.59900
N         -3.77200        4.39230       -8.73980
C         -2.41370        7.22640       -9.77890
N         -2.40070        7.74180      -10.80420
C         -1.15630        8.37920       -7.41250
C         -0.74410        8.65080       -6.11640
C         -1.11390        7.58340       -5.19800
O         -0.92810        7.55240       -3.99880
S          0.07570       10.14630       -5.99370
C         -0.12830       10.41320       -7.70500
C         -0.80180        9.39490       -8.32020
C          0.41320       11.64590       -8.32900
C          5.02530      -10.39380        3.79400
C          6.00000      -11.21590        4.33500
C          6.54100      -10.94260        5.59160
C          6.12740       -9.85290        6.34330
F          6.42980      -12.27980        3.64520
F          7.48670      -11.74890        6.08760
H          3.23220       -5.49910        6.24960
H          1.68160       -6.74560        2.83600
H         -0.41880        1.33600        4.30540
H         -2.12970        1.86540        5.97520
H         -3.54940        0.09910        8.05070
H         -4.83930       -0.45690        6.98610
H         -4.33310        1.24010        6.96170
H         -3.55020       -2.15110        5.79690
H         -1.85880       -2.68080        4.11670
H          1.80480        0.24940        1.33870
H          3.98500        1.20570        1.90850
H          5.47790        2.06720        3.63990
H          5.21300        1.66020        5.34170
H          6.04460       -0.65290        4.91680
H          7.26100        0.55080        4.47710
H          6.31000       -0.24870        3.22070
H          3.43490        0.06020        5.97980
H          1.24340       -0.88040        5.41920
H         -1.52400       -2.53020       -0.99910
H         -4.05280       -0.72950       -0.33630
H         -6.46120       -1.01620       -0.65840
H         -8.12930       -1.02900       -3.93690
H         -8.31240       -1.39450       -2.21490
H         -8.39540        1.04870       -1.70970
H         -9.66700        0.59100       -2.84820
H         -8.21280        1.41150       -3.42580
H         -6.04000       -0.02470       -4.78530
H         -3.62490        0.25100       -4.47170
H         -2.65170       -2.40460       -3.34160
H         -1.34250       -3.58150       -5.04730
H          1.91070       -2.40010       -6.34600
H          0.83760       -3.79930       -6.19750
H          0.28480       -1.32530       -7.90710
H          0.80410       -2.90110       -8.51490
H         -0.78260       -2.72040       -7.75880
H          1.37280       -0.29910       -5.23200
H          0.08760        0.86730       -3.50670
H         -0.68010        1.53560        1.81490
H         -1.50830        5.91100       -2.96540
H         -2.51760        4.69520       -6.58650
H         -1.02080        9.38610       -9.37180
H          1.49410       11.69680       -8.19970
H         -0.01720       12.53250       -7.86470
H          0.18490       11.65770       -9.39160
H          4.60410      -10.59780        2.82250
H          6.58000       -9.68700        7.30670
