132
IDTT-Cl-2F.sdf
C          3.01350        3.58980        7.99530
O          2.35380        4.17960        7.16510
C          3.58660        4.20040        9.21630
C          4.26890        3.22560        9.95990
C          4.15140        1.94260        9.26690
C          4.60730        0.74810        9.76110
C          5.29780        0.61220       10.98510
N          5.86590        0.42810       11.96510
C          4.44550       -0.52380        9.16980
N          4.35080       -1.60210        8.78510
C          3.42860        2.17350        8.02750
C          3.25970        1.20980        7.06360
C          2.58360        1.21640        5.83430
C          1.79420        2.16270        5.19150
C          1.30150        1.69340        3.98610
C          1.69780        0.37390        3.66810
S          2.70020       -0.28320        4.89370
C          1.17450       -0.05750        2.45450
C          1.18010       -1.31650        1.63110
C          0.62820       -2.43030        2.50300
C          1.46890       -3.05480        3.41760
C          0.97960       -4.02380        4.27030
C         -0.36090       -4.39330        4.23820
C         -0.87590       -5.45550        5.15950
C         -1.19610       -3.75900        3.33000
C         -0.71210       -2.78370        2.47530
C          2.54220       -1.66030        1.05630
C          2.79950       -2.94760        0.60210
C          4.02220       -3.26070        0.04010
C          5.01800       -2.30030       -0.08560
C          6.33090       -2.63480       -0.73230
C          6.24540       -2.43990       -2.24760
C          4.75060       -1.01290        0.35860
C          3.52770       -0.69340        0.91940
C          0.26750       -0.91060        0.48720
C         -0.17940        0.42400        0.64170
C          0.38040        0.91310        1.86260
S          0.26820        2.38510        2.76430
C         -1.02360        1.02990       -0.28590
C         -1.42860        0.27000       -1.35820
C         -2.33890        0.67160       -2.50580
C         -1.69170        1.83470       -3.23680
C         -1.92280        3.13570       -2.80910
C         -1.30440        4.19970       -3.43690
C         -0.43560        3.99410       -4.50090
C          0.19840        5.15440       -5.21190
C         -0.68360        5.61520       -6.37410
C         -0.20410        2.69120       -4.91990
C         -0.81850        1.62250       -4.29360
C         -3.76640        0.99080       -2.09940
C         -4.27140        0.65140       -0.85330
C         -5.59290        0.91710       -0.54030
C         -6.44180        1.51020       -1.46430
C         -7.86180        1.83990       -1.10490
C         -7.94800        3.24620       -0.50800
C         -5.93280        1.83380       -2.71600
C         -4.61370        1.57680       -3.03260
C         -2.36520       -0.60240       -3.30630
C         -1.58260       -1.57290       -2.70320
C         -0.97890       -1.06380       -1.51260
C         -0.11890       -1.66320       -0.59660
S         -1.58150       -3.09750       -3.52340
C         -2.67300       -2.42980       -4.70790
C         -2.99960       -1.08030       -4.45140
S         -4.08450       -0.44620       -5.62660
C         -4.10890       -1.99600       -6.46020
C         -3.29330       -2.93940       -5.83150
C         -4.85180       -2.31500       -7.60800
C         -5.71260       -1.55910       -8.35750
C         -6.43830       -2.03160       -9.52490
C         -6.42960       -3.27550      -10.09910
C         -5.68900       -4.39090       -9.66000
N         -5.11970       -5.34350       -9.36320
C         -7.20450       -3.56870      -11.24180
N         -7.82630       -3.82900      -12.17010
C         -7.22560       -0.91160      -10.00950
C         -7.00120        0.18370       -9.18800
C         -6.06040       -0.14150       -8.12170
O         -5.65260        0.58910       -7.23910
S         -7.88740        1.56550       -9.67150
C         -8.56440        0.65260      -10.99330
C         -8.12880       -0.64380      -11.05330
Cl        -9.66320        1.38910      -12.06460
C          3.50820        5.51740        9.62360
C          4.13790        5.86180       10.80830
C          4.82410        4.90140       11.55220
C          4.89870        3.57820       11.14380
F          4.09000        7.12720       11.24280
F          5.42870        5.26230       12.68990
H          3.73680        0.25830        7.26760
H          1.60280        3.13710        5.60120
H          2.51380       -2.78260        3.45660
H          1.64650       -4.49860        4.97510
H         -0.49290       -6.43060        4.85840
H         -1.96210       -5.49370        5.14330
H         -0.54450       -5.27020        6.17950
H         -2.24290       -4.02460        3.28970
H         -1.38610       -2.29870        1.78420
H          2.04390       -3.71310        0.70310
H          4.20810       -4.26870       -0.30220
H          7.11600       -1.99120       -0.33070
H          6.59570       -3.67200       -0.51760
H          5.47730       -3.08400       -2.66960
H          5.99300       -1.40830       -2.48280
H          7.19690       -2.68060       -2.71590
H          5.50910       -0.24850        0.26800
H          3.34490        0.31780        1.25340
H         -1.35000        2.04980       -0.15350
H         -2.60140        3.31810       -1.98840
H         -1.49800        5.20600       -3.09360
H          1.17740        4.86210       -5.59720
H          0.33850        5.98350       -4.51560
H         -0.82610        4.80480       -7.08530
H         -1.66040        5.92360       -6.00820
H         -0.22430        6.45480       -6.89040
H          0.46930        2.50790       -5.74510
H         -0.61470        0.61760       -4.63410
H         -3.63370        0.17950       -0.11980
H         -5.96970        0.65240        0.43760
H         -8.23890        1.11700       -0.37870
H         -8.48940        1.78900       -1.99670
H         -7.58690        3.98260       -1.22250
H         -8.97630        3.48770       -0.24950
H         -7.33870        3.31390        0.39060
H         -6.57620        2.28720       -3.45570
H         -4.23720        1.83680       -4.01090
H          0.21470       -2.68000       -0.73380
H         -3.18060       -3.94490       -6.19520
H         -4.70750       -3.33970       -7.93050
H         -8.44740       -1.34230      -11.80400
H          2.97750        6.25500        9.04300
H          5.44270        2.87790       11.75560
