142
IDTzCR.sdf
C          0.18620       -0.85030        1.83490
C          0.21900        0.52200        1.48980
C         -0.79740        1.11730        0.74660
C         -1.81210        0.30140        0.30440
C         -1.81070       -1.08370        0.59560
C         -0.82690       -1.66680        1.39030
C          1.42550       -1.24130        2.62360
C          2.23000        0.03090        2.53400
C          1.47220        1.03660        1.94560
C          3.51150        0.44320        2.87180
C          3.72900        1.77040        2.53600
S          2.31810        2.52330        1.82650
C         -2.98030        0.66410       -0.59830
C         -3.52860       -0.70470       -0.91460
C         -2.88140       -1.66770       -0.14940
C         -4.48710       -1.24000       -1.76410
C         -4.56700       -2.61850       -1.64380
S         -3.46740       -3.25260       -0.43960
C         -2.46990        1.43590       -1.79690
C         -4.08320        1.42000        0.12680
C          1.14530       -1.48140        4.09890
C          2.07230       -2.44710        1.97470
C          7.26600        3.20490        2.76000
C          8.64910        3.46220        2.80700
C          9.69000        2.59800        2.96020
C         -7.35060       -5.14350       -5.25310
C         -7.76240       -4.52740       -6.39520
C         -7.60260       -3.14030       -6.79050
N         -8.07080       -2.93890       -8.08190
C         -8.59970       -4.02360       -8.70740
S         -8.55490       -5.43470       -7.67550
C          9.65950        1.15850        3.14070
N         10.94610        0.63750        3.16870
C         11.96150        1.53130        3.03740
S         11.35280        3.16410        2.88930
C         11.11210       -0.80090        3.27420
O          8.67630        0.45450        3.26240
C         13.31280        1.29380        3.02000
C         14.20230        2.38030        2.88210
C         13.94830        0.04410        3.11510
C          2.16010       -1.98790        4.90240
C          1.95460       -2.18170        6.25410
C          0.73380       -1.87230        6.84120
C         -0.27180       -1.35640        6.03610
C         -0.07120       -1.15920        4.68130
C          3.01410       -2.30010        0.96660
C          3.56330       -3.41120        0.35310
C          3.18190       -4.69350        0.72340
C          2.22740       -4.83480        1.72260
C          1.67760       -3.72820        2.34060
C         -2.06380        0.78220       -2.95140
C         -1.56210        1.49850       -4.02270
C         -1.44530        2.88060       -3.96620
C         -1.83750        3.52850       -2.80190
C         -2.34250        2.81800       -1.73000
C         -5.13580        1.94710       -0.61220
C         -6.17500        2.60410        0.01650
C         -6.19490        2.74900        1.39840
C         -5.14720        2.21050        2.13180
C         -4.10350        1.55090        1.50720
O         -7.12250       -2.23990       -6.13040
C         -8.01160       -1.60240       -8.64600
C         -9.10880       -4.11410       -9.97840
C         -9.20350       -3.07790      -10.92280
C         -9.59490       -5.35580      -10.43950
N         14.93300        3.25700        2.76820
N         14.53230       -0.94270        3.18270
N         -9.99150       -6.36120      -10.82340
N         -9.31300       -2.27910      -11.74090
C         -0.85940        3.65280       -5.11280
C         -7.34760        3.42490        2.08300
C          3.74400       -5.89830        0.02590
C          0.52590       -2.04260        8.31840
C          0.92130       -0.76620        9.06400
C          2.85130       -6.29730       -1.15090
C         -8.44940        2.41150        2.39990
C          0.65410        3.79630       -4.94060
C         11.27820       -1.44590        1.90340
C         -9.34120       -0.87260       -8.50020
C          6.31160        4.17840        2.46400
N          5.05560        3.77390        2.38180
C          4.94160        2.48900        2.62470
S          6.45560        1.67760        2.97480
C         -5.33770       -3.50750       -2.42510
S         -6.14860       -2.97300       -3.88450
C         -6.64120       -4.62230       -4.15470
C         -6.16070       -5.40870       -3.10750
N         -5.44420       -4.79320       -2.18270
H         -0.75900        2.16670        0.49900
H         -0.84600       -2.72340        1.60760
H          4.27380       -0.17070        3.31660
H         -5.09220       -0.68630       -2.45920
H          8.90900        4.50510        2.66320
H         -7.55980       -6.20500       -5.17910
H         10.19900       -1.17180        3.74810
H         11.96740       -1.01860        3.91520
H          3.11250       -2.24270        4.46090
H          2.75290       -2.58150        6.86300
H         -1.22850       -1.10670        6.47260
H         -0.87070       -0.75640        4.07710
H          3.32400       -1.31180        0.65900
H          4.30170       -3.27830       -0.42480
H          1.91290       -5.82400        2.02330
H          0.94400       -3.86030        3.12300
H         -2.14230       -0.29330       -3.01750
H         -1.25890        0.97400       -4.91760
H         -1.75050        4.60370       -2.73490
H         -2.65290        3.34240       -0.83760
H         -5.13230        1.85110       -1.68810
H         -6.98240        3.01300       -0.57400
H         -5.14390        2.30940        3.20810
H         -3.29990        1.14140        2.10150
H         -7.71420       -1.66740       -9.69380
H         -7.23730       -1.07600       -8.08090
H         -1.31140        4.64560       -5.16000
H         -1.06780        3.13710       -6.05230
H         -7.75370        4.20740        1.43880
H         -7.00750        3.88830        3.01120
H          4.74850       -5.67950       -0.34160
H          3.81040       -6.73380        0.72580
H          1.13100       -2.87460        8.68410
H         -0.52310       -2.26720        8.52150
H          0.77180       -0.88870       10.13410
H          1.96800       -0.53170        8.88360
H          0.31970        0.07310        8.72240
H          1.84780       -6.53110       -0.80240
H          2.78220       -5.48110       -1.86660
H          3.25620       -7.17060       -1.65690
H         -8.81050        1.94680        1.48510
H         -8.06750        1.62930        3.05220
H         -9.28520        2.90010        2.89510
H          1.12490        2.81640       -4.90370
H          1.08020        4.35610       -5.76990
H          0.88170        4.31910       -4.01440
H         10.41010       -1.23570        1.28250
H         12.17180       -1.07970        1.40330
H         11.37100       -2.52110        2.02220
H        -10.13240       -1.38660       -9.04080
H         -9.24590        0.12920       -8.90790
H         -9.61580       -0.79910       -7.45020
H          6.54370        5.21420        2.28810
H         -6.32650       -6.46870       -3.02630
