158
IE-4Cl.sdf
C         -0.11180        1.97010        0.65870
C          1.25070        1.60490        0.54140
C          1.67280        0.61460       -0.34250
C          0.70740       -0.00640       -1.10010
C         -0.65650        0.34580       -0.96610
C         -1.07760        1.34740       -0.09580
C         -0.29300        3.08140        1.67930
C          1.13190        3.29840        2.11810
C          1.98010        2.41900        1.46310
C          1.77850        4.10060        3.05100
C          3.13690        3.83580        3.11740
S          3.60370        2.56500        1.99450
C          0.88220       -1.12230       -2.11880
C         -0.55360       -1.40050       -2.48720
C         -1.39600       -0.51610       -1.83210
C         -1.22390       -2.28020       -3.33070
C         -2.59510       -2.07720       -3.31610
S         -3.04170       -0.76180       -2.23620
C          4.13490        4.39400        3.96080
C         -3.63390       -2.77050       -3.99500
C          1.58660       -0.67900       -3.39010
C          1.59620       -2.28530       -1.45980
C         -0.91860        4.27510        0.98430
C         -1.07870        2.66670        2.91030
C         -2.30030        4.36530        0.86760
C         -2.88020        5.42850        0.20260
C         -2.09930        6.42750       -0.36460
C         -0.71910        6.32610       -0.25610
C         -0.13360        5.26260        0.40640
C         -1.30390        1.33430        3.22240
C         -1.97070        0.99160        4.38510
C         -2.41530        1.96470        5.26910
C         -2.17680        3.29740        4.95700
C         -1.51420        3.64530        3.79630
C          1.99720       -1.64160       -4.30520
C          2.59600       -1.27140       -5.49310
C          2.79750        0.06820       -5.80260
C          2.37320        1.02500       -4.89160
C          1.77120        0.66000       -3.70040
C          0.88980       -3.30400       -0.83650
C          1.55860       -4.34040       -0.21060
C          2.94570       -4.38270       -0.18420
C          3.64820       -3.35160       -0.79510
C          2.98510       -2.31590       -1.42430
C          3.41030        0.46920       -7.11320
C          3.67110       -5.48630        0.52990
C         -3.17830        1.59020        6.50650
C         -2.73200        7.56010       -1.12030
C         -4.67830        1.53220        6.21010
C         -2.91070        7.18550       -2.59290
C          2.33070        0.60360       -8.18920
C          3.94320       -5.09350        1.98340
S         -5.26520       -2.56230       -3.44460
C         -5.88310       -3.65370       -4.66890
C         -4.83600       -4.11500       -5.45330
C         -3.58220       -3.63140       -5.09490
S          5.59460        3.49130        4.21980
C          6.22420        4.73240        5.27070
C          5.30560        5.78010        5.37310
C          4.13390        5.60910        4.65600
C          3.04010        6.63120        4.65700
C          2.07660        6.40350        5.82500
C          7.44780        4.74290        5.94790
C          8.44270        3.79500        6.00070
C          8.41170        2.49260        5.33100
C          9.64690        1.79510        5.74440
C         10.39270        2.63320        6.59090
C          9.67320        3.89690        6.75690
C         10.07460        0.52770        5.40890
C         11.28150        0.08100        5.93330
C         11.59570        2.18520        7.11010
O          7.55420        2.05460        4.58570
C         10.11930        4.96540        7.49240
C          9.44770        6.19500        7.65410
C         11.34090        4.98510        8.19790
N         12.31890        5.07100        8.79280
N          8.97410        7.22590        7.83680
C         -2.34860       -4.03180       -5.84150
C         -1.74880       -5.31180       -5.25380
C         -7.27080       -3.86180       -4.68620
C         -8.05710       -4.71580       -5.42070
C         -7.63420       -5.78660       -6.34580
C         -8.87130       -6.51890       -6.69660
C         -9.97460       -5.91430       -6.07420
C         -9.50480       -4.76110       -5.30890
C         -9.00430       -7.63370       -7.49800
C        -10.27500       -8.16420       -7.68110
C        -11.38040       -7.57220       -7.06170
C        -11.24050       -6.44620       -6.25750
O         -6.52270       -6.05890       -6.75080
C        -10.32190       -3.87020       -4.66130
C         -9.91690       -2.70050       -3.98320
C        -11.72770       -3.98330       -4.60860
N         -9.69390       -1.72230       -3.42320
N        -12.87180       -4.01230       -4.51860
C         12.03170        0.90690        6.77590
Cl        13.52150        0.34270        7.41890
Cl        11.84870       -1.49280        5.54460
Cl       -12.94610       -8.24110       -7.29020
Cl       -10.48540       -9.55280       -8.67000
H          2.71640        0.35140       -0.41860
H         -2.12190        1.60670       -0.01610
H          1.27550        4.81130        3.67630
H         -0.73860       -3.05320       -3.89300
H         -2.92670        3.60640        1.31360
H         -3.95660        5.48570        0.12650
H         -0.09230        7.09050       -0.69330
H          0.94320        5.20430        0.47630
H         -0.95860        0.55700        2.55650
H         -2.14220       -0.05140        4.61030
H         -2.51060        4.07150        5.63340
H         -1.34140        4.68740        3.56780
H          1.85840       -2.68870       -4.07670
H          2.91530       -2.03330       -6.19000
H          2.51620        2.07300       -5.11370
H          1.44800        1.42520       -3.00990
H         -0.19070       -3.29210       -0.84180
H          0.99190       -5.13010        0.26220
H          4.72870       -3.36220       -0.78220
H          3.55100       -1.53130       -1.90580
H          4.13870       -0.28140       -7.42670
H          3.92870        1.42370       -7.00290
H          4.61990       -5.68960        0.02930
H          3.07130       -6.39840        0.50960
H         -2.84460        0.61500        6.86660
H         -2.99490        2.32610        7.29200
H         -2.10380        8.45040       -1.04900
H         -3.70710        7.79410       -0.68850
H         -5.03280        2.49990        5.86210
H         -5.23300        1.26010        7.10490
H         -4.88260        0.79510        5.43670
H         -3.54420        6.30620       -2.68540
H         -1.94740        6.96150       -3.04590
H         -3.37070        8.00460       -3.14080
H          1.81120       -0.34250       -8.32470
H          2.77360        0.89570       -9.13840
H          1.60020        1.35590       -7.89990
H          4.54850       -4.19080        2.02470
H          4.47200       -5.89090        2.50020
H          3.00800       -4.90120        2.50470
H         -4.99370       -4.78970       -6.27450
H          5.51210        6.65350        5.96810
H          3.48860        7.62130        4.76020
H          2.50090        6.60370        3.70940
H          2.60010        6.52250        6.77050
H          1.26230        7.12320        5.78760
H          1.65800        5.39970        5.79710
H          7.60270        5.64420        6.52860
H          9.48480       -0.09820        4.75820
H         12.20180        2.79050        7.76360
H         -2.62180       -4.21910       -6.88150
H         -1.61720       -3.22260       -5.82600
H         -1.51300       -5.18510       -4.19930
H         -0.83950       -5.58160       -5.78540
H         -2.45950       -6.12950       -5.34530
H         -7.79650       -3.24280       -3.96860
H         -8.14200       -8.07960       -7.96780
H        -12.11630       -6.02090       -5.79610
