158
IE-4F.sdf
C         -0.18750        0.30630       -1.55120
C         -1.47380        0.33850       -0.96130
C         -1.71300       -0.17740        0.30980
C         -0.63690       -0.69600        0.99100
C          0.65500       -0.70020        0.41270
C          0.89050       -0.20270       -0.86650
C         -0.21150        0.91770       -2.94280
C         -1.65140        1.35300       -3.03720
C         -2.34480        0.97840       -1.89600
C         -2.44640        1.98730       -3.98410
C         -3.76080        2.11840       -3.56230
S         -3.99740        1.42640       -1.96200
C         -0.61730       -1.33680        2.36970
C          0.84750       -1.66190        2.51200
C          1.54080       -1.27580        1.37450
C          1.66170       -2.20030        3.50030
C          2.99590       -2.23440        3.12150
S          3.22200       -1.57850        1.50330
C         -4.87180        2.73230       -4.19860
C          4.14610       -2.67060        3.82920
C         -1.50920       -2.56440        2.31690
C         -1.00090       -0.40700        3.50450
C          0.01920       -0.09090       -4.05480
C          0.78880        2.05520       -2.99440
C          0.24080        0.36770       -5.34820
C          0.39560       -0.52270       -6.39250
C          0.32440       -1.89340       -6.17670
C          0.09440       -2.34530       -4.88480
C         -0.06310       -1.45790       -3.83510
C          0.41760        3.35300       -2.67300
C          1.35170        4.37280       -2.68440
C          2.67810        4.12290       -3.00870
C          3.04730        2.81940       -3.31580
C          2.11760        1.79760       -3.30850
C         -2.87310       -2.44210        2.55180
C         -3.70290       -3.54260        2.45580
C         -3.19730       -4.79120        2.11690
C         -1.83480       -4.90670        1.87760
C         -1.00030       -3.80790        1.96980
C         -1.25600       -0.94340        4.76140
C         -1.55480       -0.12020        5.82920
C         -1.60000        1.25980        5.67370
C         -1.33450        1.79030        4.41910
C         -1.03100        0.97050        3.34670
C         -4.09360       -5.99410        2.05960
C         -1.97640        2.14950        6.82290
C          3.70030        5.22190       -2.97690
C          0.54010       -2.86120       -7.30400
C          4.35060        5.30490       -1.59440
C          2.02380       -3.21390       -7.42780
C         -4.17240       -6.66790        3.43110
C         -3.49360        2.34200        6.87290
S          5.70440       -2.25790        3.18300
C          6.51420       -3.06950        4.49660
C          5.56930       -3.62410        5.36480
C          4.24790       -3.41610        5.01230
S         -6.24420        3.15820       -3.22460
C         -7.08730        3.79170       -4.61380
C         -6.29590        3.64520       -5.75670
C         -5.06040        3.05820       -5.54810
C         -4.09120        2.82430       -6.66460
C         -3.18740        4.04270       -6.87030
C         -8.35620        4.37520       -4.65410
C         -9.26260        4.60470       -3.64420
C         -9.06990        4.25690       -2.23590
C        -10.29560        4.69940       -1.53670
C        -11.17730        5.27620       -2.46580
C        -10.55870        5.23070       -3.79310
C        -10.60100        4.59960       -0.19440
C        -11.82660        5.09310        0.22340
C        -12.40110        5.76720       -2.03970
O         -8.10900        3.71420       -1.72150
C        -11.13410        5.70670       -4.94370
C        -10.55580        5.67840       -6.22980
C        -12.41090        6.30440       -5.00080
N        -13.44030        6.79880       -5.11790
N        -10.16170        5.69840       -7.30890
C          3.11600       -3.93700        5.84200
C          2.66150       -2.89430        6.86680
C          7.88910       -3.18280        4.71690
C          8.95000       -2.70750        3.97980
C          8.84460       -1.94910        2.73290
C         10.23330       -1.66380        2.31200
C         11.12420       -2.21460        3.24800
C         10.35040       -2.87310        4.30360
C         10.66740       -0.97560        1.19720
C         12.03500       -0.83840        1.02020
C         12.92820       -1.38120        1.94300
C         12.49030       -2.07280        3.06340
O          7.83470       -1.61040        2.14300
C         10.89140       -3.51600        5.38800
C         10.16710       -4.15260        6.41730
C         12.27670       -3.62950        5.63010
N          9.65880       -4.69350        7.29410
N         13.38800       -3.75730        5.88750
C        -12.70960        5.66710       -0.69060
F        -13.88690        6.13570       -0.26000
F        -12.16580        5.01800        1.51700
F         14.24400       -1.23370        1.74740
F         12.50260       -0.17800       -0.04730
H         -2.70400       -0.15610        0.73600
H          1.88190       -0.22030       -1.29170
H         -2.07450        2.36970       -4.91400
H          1.29910       -2.52260        4.45590
H          0.30350        1.43040       -5.53420
H          0.57060       -0.14870       -7.39130
H          0.03170       -3.40740       -4.69500
H         -0.25030       -1.83580       -2.84060
H         -0.60840        3.57160       -2.41440
H          1.04340        5.37910       -2.43860
H          4.07560        2.60210       -3.56730
H          2.42320        0.79280       -3.56270
H         -3.28640       -1.48140        2.82300
H         -4.76120       -3.42940        2.64340
H         -1.41990       -5.86830        1.61020
H          0.05530       -3.92250        1.77020
H         -1.23160       -2.01510        4.89910
H         -1.75330       -0.55430        6.79880
H         -1.36010        2.86140        4.27730
H         -0.81830        1.40860        2.38250
H         -5.09620       -5.69400        1.74840
H         -3.70830       -6.70870        1.32950
H         -1.63920        1.70510        7.76160
H         -1.49360        3.12240        6.71200
H          3.22570        6.17720       -3.20960
H          4.47170        5.03170       -3.72590
H          0.19580       -2.42040       -8.24180
H         -0.03270       -3.77310       -7.12400
H          4.83880        4.36450       -1.34870
H          3.59910        5.50780       -0.83460
H          5.09310        6.09900       -1.57030
H          2.18170       -3.91380       -8.24490
H          2.61080       -2.31830       -7.61880
H          2.38250       -3.66790       -6.50680
H         -3.18340       -6.98590        3.75380
H         -4.56720       -5.97490        4.17080
H         -4.82140       -7.53940        3.39030
H         -3.99280        1.38350        6.99660
H         -3.76820        2.98670        7.70440
H         -3.84770        2.79530        5.94980
H          5.86680       -4.17750        6.23940
H         -6.64210        3.96460       -6.72500
H         -3.49260        1.93520       -6.46220
H         -4.65500        2.64680       -7.58260
H         -2.46500        3.84780       -7.65920
H         -3.78370        4.90680       -7.15330
H         -2.65030        4.28960       -5.95720
H         -8.64520        4.69300       -5.64850
H         -9.91410        4.15490        0.50780
H        -13.11930        6.22000       -2.70300
H          3.45740       -4.82710        6.37410
H          2.28360       -4.23070        5.20140
H          3.47580       -2.66380        7.54950
H          1.82290       -3.27460        7.44510
H          2.35940       -1.97040        6.37840
H          8.13050       -3.73300        5.61820
H          9.97180       -0.55800        0.48710
H         13.22300       -2.47210        3.74490
