IEICO.sdf
  xtb     12202114053D
 energy: -256.589820111786 gnorm: 0.000445872488 xtb: 6.4.1 (unknown)
160174  0     0  0            999 V2000
   -1.0650    0.4180   -0.7432 C   0  0  0  0  0  0  0  0  0  0  0  0
   -0.2087    1.0161    0.2124 C   0  0  0  0  0  0  0  0  0  0  0  0
    0.4544    0.2635    1.1790 C   0  0  0  0  0  0  0  0  0  0  0  0
    0.2802   -1.0997    1.1438 C   0  0  0  0  0  0  0  0  0  0  0  0
   -0.5497   -1.7014    0.1674 C   0  0  0  0  0  0  0  0  0  0  0  0
   -1.2382   -0.9449   -0.7788 C   0  0  0  0  0  0  0  0  0  0  0  0
   -1.6588    1.4663   -1.6718 C   0  0  0  0  0  0  0  0  0  0  0  0
   -0.9692    2.7122   -1.1755 C   0  0  0  0  0  0  0  0  0  0  0  0
   -0.1763    2.4134   -0.0757 C   0  0  0  0  0  0  0  0  0  0  0  0
   -0.9391    4.0543   -1.5298 C   0  0  0  0  0  0  0  0  0  0  0  0
   -0.0995    4.7893   -0.7044 C   0  0  0  0  0  0  0  0  0  0  0  0
    0.6333    3.7932    0.5426 S   0  0  0  0  0  0  0  0  0  0  0  0
    0.8839   -2.1495    2.0634 C   0  0  0  0  0  0  0  0  0  0  0  0
    0.3507   -3.4154    1.4421 C   0  0  0  0  0  0  0  0  0  0  0  0
   -0.4749   -3.1128    0.3650 C   0  0  0  0  0  0  0  0  0  0  0  0
    0.5118   -4.7782    1.6394 C   0  0  0  0  0  0  0  0  0  0  0  0
   -0.2023   -5.5245    0.7103 C   0  0  0  0  0  0  0  0  0  0  0  0
   -1.0891   -4.5124   -0.4141 S   0  0  0  0  0  0  0  0  0  0  0  0
    0.2281    6.1613   -0.7985 C   0  0  0  0  0  0  0  0  0  0  0  0
   -0.2364   -6.9273    0.5914 C   0  0  0  0  0  0  0  0  0  0  0  0
    0.3479   -1.8896    3.4609 C   0  0  0  0  0  0  0  0  0  0  0  0
    2.3985   -2.2065    2.0455 C   0  0  0  0  0  0  0  0  0  0  0  0
   -1.3216    1.0980   -3.1028 C   0  0  0  0  0  0  0  0  0  0  0  0
   -3.1526    1.6669   -1.4852 C   0  0  0  0  0  0  0  0  0  0  0  0
   -0.1659    1.5634   -3.7137 C   0  0  0  0  0  0  0  0  0  0  0  0
    0.1473    1.1818   -5.0056 C   0  0  0  0  0  0  0  0  0  0  0  0
   -0.6751    0.3172   -5.7146 C   0  0  0  0  0  0  0  0  0  0  0  0
   -1.8250   -0.1549   -5.0948 C   0  0  0  0  0  0  0  0  0  0  0  0
   -2.1450    0.2272   -3.8063 C   0  0  0  0  0  0  0  0  0  0  0  0
   -3.8467    2.4504   -2.3999 C   0  0  0  0  0  0  0  0  0  0  0  0
   -5.1985    2.6842   -2.2410 C   0  0  0  0  0  0  0  0  0  0  0  0
   -5.8932    2.1461   -1.1648 C   0  0  0  0  0  0  0  0  0  0  0  0
   -5.1918    1.3775   -0.2466 C   0  0  0  0  0  0  0  0  0  0  0  0
   -3.8370    1.1415   -0.3995 C   0  0  0  0  0  0  0  0  0  0  0  0
   -0.8146   -2.4982    3.9119 C   0  0  0  0  0  0  0  0  0  0  0  0
   -1.3145   -2.2116    5.1692 C   0  0  0  0  0  0  0  0  0  0  0  0
   -0.6760   -1.3036    6.0023 C   0  0  0  0  0  0  0  0  0  0  0  0
    0.4830   -0.6909    5.5431 C   0  0  0  0  0  0  0  0  0  0  0  0
    0.9880   -0.9757    4.2891 C   0  0  0  0  0  0  0  0  0  0  0  0
    3.0593   -2.9330    3.0293 C   0  0  0  0  0  0  0  0  0  0  0  0
    4.4362   -3.0374    3.0193 C   0  0  0  0  0  0  0  0  0  0  0  0
    5.1899   -2.4273    2.0243 C   0  0  0  0  0  0  0  0  0  0  0  0
    4.5239   -1.7159    1.0363 C   0  0  0  0  0  0  0  0  0  0  0  0
    3.1444   -1.6106    1.0395 C   0  0  0  0  0  0  0  0  0  0  0  0
   -1.1960   -1.0264    7.3834 C   0  0  0  0  0  0  0  0  0  0  0  0
    6.6896   -2.4951    2.0471 C   0  0  0  0  0  0  0  0  0  0  0  0
   -7.3547    2.4318   -0.9720 C   0  0  0  0  0  0  0  0  0  0  0  0
   -0.3597   -0.0576   -7.1340 C   0  0  0  0  0  0  0  0  0  0  0  0
   -7.5467    3.6985   -0.1357 C   0  0  0  0  0  0  0  0  0  0  0  0
   -1.0265    0.9201   -8.1038 C   0  0  0  0  0  0  0  0  0  0  0  0
   -0.5563   -1.9773    8.3971 C   0  0  0  0  0  0  0  0  0  0  0  0
    7.2634   -1.3344    2.8625 C   0  0  0  0  0  0  0  0  0  0  0  0
    0.6883   -7.9755    1.6121 S   0  0  0  0  0  0  0  0  0  0  0  0
    0.1019   -9.3827    0.7583 C   0  0  0  0  0  0  0  0  0  0  0  0
   -0.7826   -9.0113   -0.2619 C   0  0  0  0  0  0  0  0  0  0  0  0
   -0.9754   -7.6457   -0.3654 C   0  0  0  0  0  0  0  0  0  0  0  0
    1.3442    6.9056    0.2892 S   0  0  0  0  0  0  0  0  0  0  0  0
    1.2212    8.4470   -0.5365 C   0  0  0  0  0  0  0  0  0  0  0  0
    0.3245    8.3559   -1.5926 C   0  0  0  0  0  0  0  0  0  0  0  0
   -0.2325    7.0913   -1.7496 C   0  0  0  0  0  0  0  0  0  0  0  0
   -1.1211    6.7082   -2.6901 O   0  0  0  0  0  0  0  0  0  0  0  0
   -1.5486    7.6865   -3.6279 C   0  0  0  0  0  0  0  0  0  0  0  0
   -2.5247    7.0117   -4.5773 C   0  0  0  0  0  0  0  0  0  0  0  0
    2.0071    9.4963   -0.0390 C   0  0  0  0  0  0  0  0  0  0  0  0
    2.2291   10.7709   -0.5035 C   0  0  0  0  0  0  0  0  0  0  0  0
    1.7545   11.3985   -1.7547 C   0  0  0  0  0  0  0  0  0  0  0  0
    2.4717   12.6851   -1.8549 C   0  0  0  0  0  0  0  0  0  0  0  0
    3.2838   12.8655   -0.7240 C   0  0  0  0  0  0  0  0  0  0  0  0
    3.1084   11.7156    0.1624 C   0  0  0  0  0  0  0  0  0  0  0  0
    2.4185   13.6197   -2.8700 C   0  0  0  0  0  0  0  0  0  0  0  0
    3.2026   14.7587   -2.7538 C   0  0  0  0  0  0  0  0  0  0  0  0
    4.0146   14.9411   -1.6440 C   0  0  0  0  0  0  0  0  0  0  0  0
    4.0657   14.0050   -0.6190 C   0  0  0  0  0  0  0  0  0  0  0  0
    0.9494   10.9829   -2.5668 O   0  0  0  0  0  0  0  0  0  0  0  0
    3.6494   11.6106    1.4185 C   0  0  0  0  0  0  0  0  0  0  0  0
    3.4344   10.5640    2.3401 C   0  0  0  0  0  0  0  0  0  0  0  0
    4.4926   12.5811    1.9996 C   0  0  0  0  0  0  0  0  0  0  0  0
    5.1868   13.3203    2.5386 N   0  0  0  0  0  0  0  0  0  0  0  0
    3.3093    9.7765    3.1676 N   0  0  0  0  0  0  0  0  0  0  0  0
   -1.7469   -6.9618   -1.2347 O   0  0  0  0  0  0  0  0  0  0  0  0
   -2.4631   -7.6976   -2.2122 C   0  0  0  0  0  0  0  0  0  0  0  0
   -3.2232   -6.7012   -3.0706 C   0  0  0  0  0  0  0  0  0  0  0  0
    0.4390  -10.7188    0.9896 C   0  0  0  0  0  0  0  0  0  0  0  0
    1.2973  -11.2729    1.9111 C   0  0  0  0  0  0  0  0  0  0  0  0
    2.0634  -10.5277    2.9119 C   0  0  0  0  0  0  0  0  0  0  0  0
    2.8445  -11.5309    3.6594 C   0  0  0  0  0  0  0  0  0  0  0  0
    2.5679  -12.8100    3.1454 C   0  0  0  0  0  0  0  0  0  0  0  0
    1.6021  -12.6794    2.0519 C   0  0  0  0  0  0  0  0  0  0  0  0
    3.7274  -11.3410    4.7031 C   0  0  0  0  0  0  0  0  0  0  0  0
    4.3498  -12.4571    5.2460 C   0  0  0  0  0  0  0  0  0  0  0  0
    4.0837  -13.7223    4.7453 C   0  0  0  0  0  0  0  0  0  0  0  0
    3.1947  -13.9165    3.6947 C   0  0  0  0  0  0  0  0  0  0  0  0
    2.0638   -9.3225    3.1019 O   0  0  0  0  0  0  0  0  0  0  0  0
    1.1023  -13.7226    1.3127 C   0  0  0  0  0  0  0  0  0  0  0  0
    1.4506  -15.0744    1.5118 C   0  0  0  0  0  0  0  0  0  0  0  0
    0.1785  -13.6156    0.2535 C   0  0  0  0  0  0  0  0  0  0  0  0
    1.6863  -16.1935    1.6169 N   0  0  0  0  0  0  0  0  0  0  0  0
   -0.5690  -13.6202   -0.6198 N   0  0  0  0  0  0  0  0  0  0  0  0
    1.0922    0.7410    1.9066 H   0  0  0  0  0  0  0  0  0  0  0  0
   -1.8699   -1.4228   -1.5115 H   0  0  0  0  0  0  0  0  0  0  0  0
   -1.4734    4.4990   -2.3466 H   0  0  0  0  0  0  0  0  0  0  0  0
    1.1133   -5.2398    2.4012 H   0  0  0  0  0  0  0  0  0  0  0  0
    0.4939    2.2317   -3.1800 H   0  0  0  0  0  0  0  0  0  0  0  0
    1.0486    1.5591   -5.4678 H   0  0  0  0  0  0  0  0  0  0  0  0
   -2.4777   -0.8321   -5.6275 H   0  0  0  0  0  0  0  0  0  0  0  0
   -3.0494   -0.1441   -3.3461 H   0  0  0  0  0  0  0  0  0  0  0  0
   -3.3241    2.8686   -3.2480 H   0  0  0  0  0  0  0  0  0  0  0  0
   -5.7244    3.2904   -2.9652 H   0  0  0  0  0  0  0  0  0  0  0  0
   -5.7113    0.9535    0.6010 H   0  0  0  0  0  0  0  0  0  0  0  0
   -3.3146    0.5412    0.3308 H   0  0  0  0  0  0  0  0  0  0  0  0
   -1.3342   -3.2042    3.2807 H   0  0  0  0  0  0  0  0  0  0  0  0
   -2.2183   -2.6998    5.5055 H   0  0  0  0  0  0  0  0  0  0  0  0
    0.9953    0.0213    6.1743 H   0  0  0  0  0  0  0  0  0  0  0  0
    1.8949   -0.4930    3.9551 H   0  0  0  0  0  0  0  0  0  0  0  0
    2.4893   -3.4111    3.8127 H   0  0  0  0  0  0  0  0  0  0  0  0
    4.9337   -3.6034    3.7939 H   0  0  0  0  0  0  0  0  0  0  0  0
    5.0905   -1.2392    0.2489 H   0  0  0  0  0  0  0  0  0  0  0  0
    2.6494   -1.0588    0.2537 H   0  0  0  0  0  0  0  0  0  0  0  0
   -2.2800   -1.1553    7.4039 H   0  0  0  0  0  0  0  0  0  0  0  0
   -0.9687    0.0040    7.6642 H   0  0  0  0  0  0  0  0  0  0  0  0
    7.0787   -2.4459    1.0280 H   0  0  0  0  0  0  0  0  0  0  0  0
    7.0107   -3.4397    2.4906 H   0  0  0  0  0  0  0  0  0  0  0  0
   -7.8322    1.5910   -0.4648 H   0  0  0  0  0  0  0  0  0  0  0  0
   -7.8376    2.5647   -1.9423 H   0  0  0  0  0  0  0  0  0  0  0  0
   -0.7189   -1.0682   -7.3388 H   0  0  0  0  0  0  0  0  0  0  0  0
    0.7205   -0.0402   -7.2912 H   0  0  0  0  0  0  0  0  0  0  0  0
   -8.6050    3.9061    0.0040 H   0  0  0  0  0  0  0  0  0  0  0  0
   -7.0834    3.5801    0.8413 H   0  0  0  0  0  0  0  0  0  0  0  0
   -7.0871    4.5516   -0.6300 H   0  0  0  0  0  0  0  0  0  0  0  0
   -2.1059    0.9080   -7.9701 H   0  0  0  0  0  0  0  0  0  0  0  0
   -0.8006    0.6503   -9.1328 H   0  0  0  0  0  0  0  0  0  0  0  0
   -0.6711    1.9323   -7.9238 H   0  0  0  0  0  0  0  0  0  0  0  0
    0.5244   -1.8540    8.4015 H   0  0  0  0  0  0  0  0  0  0  0  0
   -0.7813   -3.0103    8.1410 H   0  0  0  0  0  0  0  0  0  0  0  0
   -0.9331   -1.7771    9.3974 H   0  0  0  0  0  0  0  0  0  0  0  0
    8.3499   -1.3805    2.8794 H   0  0  0  0  0  0  0  0  0  0  0  0
    6.9625   -0.3830    2.4294 H   0  0  0  0  0  0  0  0  0  0  0  0
    6.8978   -1.3745    3.8862 H   0  0  0  0  0  0  0  0  0  0  0  0
   -1.2463   -9.7481   -0.8932 H   0  0  0  0  0  0  0  0  0  0  0  0
    0.1124    9.2030   -2.2173 H   0  0  0  0  0  0  0  0  0  0  0  0
   -0.6837    8.0788   -4.1775 H   0  0  0  0  0  0  0  0  0  0  0  0
   -2.0351    8.5174   -3.1015 H   0  0  0  0  0  0  0  0  0  0  0  0
   -2.8819    7.7308   -5.3084 H   0  0  0  0  0  0  0  0  0  0  0  0
   -3.3719    6.6172   -4.0220 H   0  0  0  0  0  0  0  0  0  0  0  0
   -2.0353    6.1909   -5.0953 H   0  0  0  0  0  0  0  0  0  0  0  0
    2.5537    9.2211    0.8553 H   0  0  0  0  0  0  0  0  0  0  0  0
    1.7812   13.4539   -3.7252 H   0  0  0  0  0  0  0  0  0  0  0  0
    3.1838   15.5070   -3.5319 H   0  0  0  0  0  0  0  0  0  0  0  0
    4.6231   15.8301   -1.5711 H   0  0  0  0  0  0  0  0  0  0  0  0
    4.7090   14.1741    0.2286 H   0  0  0  0  0  0  0  0  0  0  0  0
   -1.7618   -8.2793   -2.8252 H   0  0  0  0  0  0  0  0  0  0  0  0
   -3.1573   -8.3909   -1.7187 H   0  0  0  0  0  0  0  0  0  0  0  0
   -2.5272   -6.0141   -3.5438 H   0  0  0  0  0  0  0  0  0  0  0  0
   -3.9081   -6.1269   -2.4530 H   0  0  0  0  0  0  0  0  0  0  0  0
   -3.7853   -7.2275   -3.8362 H   0  0  0  0  0  0  0  0  0  0  0  0
   -0.0596  -11.4048    0.3160 H   0  0  0  0  0  0  0  0  0  0  0  0
    3.9195  -10.3463    5.0753 H   0  0  0  0  0  0  0  0  0  0  0  0
    5.0461  -12.3405    6.0630 H   0  0  0  0  0  0  0  0  0  0  0  0
    4.5761  -14.5801    5.1784 H   0  0  0  0  0  0  0  0  0  0  0  0
    3.0091  -14.9125    3.3280 H   0  0  0  0  0  0  0  0  0  0  0  0
  1  2  1  0  0  0  0
  2  3  2  0  0  0  0
  3  4  1  0  0  0  0
  4  5  2  0  0  0  0
  5  6  1  0  0  0  0
  6  1  2  0  0  0  0
  1  7  1  0  0  0  0
  7  8  1  0  0  0  0
  8  9  2  0  0  0  0
  9  2  1  0  0  0  0
  8 10  1  0  0  0  0
 10 11  2  0  0  0  0
 11 12  1  0  0  0  0
 12  9  1  0  0  0  0
  4 13  1  0  0  0  0
 13 14  1  0  0  0  0
 14 15  2  0  0  0  0
 15  5  1  0  0  0  0
 14 16  1  0  0  0  0
 16 17  2  0  0  0  0
 17 18  1  0  0  0  0
 18 15  1  0  0  0  0
 11 19  1  0  0  0  0
 17 20  1  0  0  0  0
 13 21  1  0  0  0  0
 13 22  1  0  0  0  0
  7 23  1  0  0  0  0
  7 24  1  0  0  0  0
 23 25  2  0  0  0  0
 25 26  1  0  0  0  0
 26 27  2  0  0  0  0
 27 28  1  0  0  0  0
 28 29  2  0  0  0  0
 29 23  1  0  0  0  0
 24 30  2  0  0  0  0
 30 31  1  0  0  0  0
 31 32  2  0  0  0  0
 32 33  1  0  0  0  0
 33 34  2  0  0  0  0
 34 24  1  0  0  0  0
 21 35  2  0  0  0  0
 35 36  1  0  0  0  0
 36 37  2  0  0  0  0
 37 38  1  0  0  0  0
 38 39  2  0  0  0  0
 39 21  1  0  0  0  0
 22 40  2  0  0  0  0
 40 41  1  0  0  0  0
 41 42  2  0  0  0  0
 42 43  1  0  0  0  0
 43 44  2  0  0  0  0
 44 22  1  0  0  0  0
 37 45  1  0  0  0  0
 42 46  1  0  0  0  0
 32 47  1  0  0  0  0
 27 48  1  0  0  0  0
 47 49  1  0  0  0  0
 48 50  1  0  0  0  0
 45 51  1  0  0  0  0
 46 52  1  0  0  0  0
 20 53  1  0  0  0  0
 53 54  1  0  0  0  0
 54 55  2  0  0  0  0
 55 56  1  0  0  0  0
 56 20  2  0  0  0  0
 19 57  1  0  0  0  0
 57 58  1  0  0  0  0
 58 59  2  0  0  0  0
 59 60  1  0  0  0  0
 60 19  2  0  0  0  0
 60 61  1  0  0  0  0
 61 62  1  0  0  0  0
 62 63  1  0  0  0  0
 58 64  1  0  0  0  0
 64 65  2  0  0  0  0
 65 66  1  0  0  0  0
 66 67  1  0  0  0  0
 67 68  2  0  0  0  0
 68 69  1  0  0  0  0
 69 65  1  0  0  0  0
 67 70  1  0  0  0  0
 70 71  2  0  0  0  0
 71 72  1  0  0  0  0
 72 73  2  0  0  0  0
 73 68  1  0  0  0  0
 66 74  2  0  0  0  0
 69 75  2  0  0  0  0
 75 76  1  0  0  0  0
 75 77  1  0  0  0  0
 77 78  3  0  0  0  0
 76 79  3  0  0  0  0
 56 80  1  0  0  0  0
 80 81  1  0  0  0  0
 81 82  1  0  0  0  0
 54 83  1  0  0  0  0
 83 84  2  0  0  0  0
 84 85  1  0  0  0  0
 85 86  1  0  0  0  0
 86 87  2  0  0  0  0
 87 88  1  0  0  0  0
 88 84  1  0  0  0  0
 86 89  1  0  0  0  0
 89 90  2  0  0  0  0
 90 91  1  0  0  0  0
 91 92  2  0  0  0  0
 92 87  1  0  0  0  0
 85 93  2  0  0  0  0
 88 94  2  0  0  0  0
 94 95  1  0  0  0  0
 94 96  1  0  0  0  0
 95 97  3  0  0  0  0
 96 98  3  0  0  0  0
  3 99  1  0  0  0  0
  6100  1  0  0  0  0
 10101  1  0  0  0  0
 16102  1  0  0  0  0
 25103  1  0  0  0  0
 26104  1  0  0  0  0
 28105  1  0  0  0  0
 29106  1  0  0  0  0
 30107  1  0  0  0  0
 31108  1  0  0  0  0
 33109  1  0  0  0  0
 34110  1  0  0  0  0
 35111  1  0  0  0  0
 36112  1  0  0  0  0
 38113  1  0  0  0  0
 39114  1  0  0  0  0
 40115  1  0  0  0  0
 41116  1  0  0  0  0
 43117  1  0  0  0  0
 44118  1  0  0  0  0
 45119  1  0  0  0  0
 45120  1  0  0  0  0
 46121  1  0  0  0  0
 46122  1  0  0  0  0
 47123  1  0  0  0  0
 47124  1  0  0  0  0
 48125  1  0  0  0  0
 48126  1  0  0  0  0
 49127  1  0  0  0  0
 49128  1  0  0  0  0
 49129  1  0  0  0  0
 50130  1  0  0  0  0
 50131  1  0  0  0  0
 50132  1  0  0  0  0
 51133  1  0  0  0  0
 51134  1  0  0  0  0
 51135  1  0  0  0  0
 52136  1  0  0  0  0
 52137  1  0  0  0  0
 52138  1  0  0  0  0
 55139  1  0  0  0  0
 59140  1  0  0  0  0
 62141  1  0  0  0  0
 62142  1  0  0  0  0
 63143  1  0  0  0  0
 63144  1  0  0  0  0
 63145  1  0  0  0  0
 64146  1  0  0  0  0
 70147  1  0  0  0  0
 71148  1  0  0  0  0
 72149  1  0  0  0  0
 73150  1  0  0  0  0
 81151  1  0  0  0  0
 81152  1  0  0  0  0
 82153  1  0  0  0  0
 82154  1  0  0  0  0
 82155  1  0  0  0  0
 83156  1  0  0  0  0
 89157  1  0  0  0  0
 90158  1  0  0  0  0
 91159  1  0  0  0  0
 92160  1  0  0  0  0
M  END
