160
IEICS-4F.sdf
C         -0.01960        0.77450        0.56890
C          1.38010        0.63750        0.73240
C          2.16580       -0.05510       -0.18550
C          1.52140       -0.63690       -1.25120
C          0.11810       -0.52210       -1.40170
C         -0.66460        0.18970       -0.49520
C         -0.62320        1.57800        1.70960
C          0.59230        1.80960        2.57120
C          1.72340        1.28660        1.95550
C          0.86990        2.42200        3.78290
C          2.22000        2.35430        4.10820
S          3.15160        1.53130        2.86820
C          2.12880       -1.44230       -2.38770
C          0.89680       -1.78840       -3.18120
C         -0.23290       -1.25050       -2.57920
C          0.61760       -2.52470       -4.32360
C         -0.74070       -2.55110       -4.60560
S         -1.67320       -1.64750       -3.41830
C          2.80740        2.83120        5.29890
C         -1.40720       -3.22220       -5.66000
C          2.78630       -2.73940       -1.95330
C          3.09640       -0.54310       -3.13610
C         -1.70700        0.75050        2.37220
C         -1.13510        2.94430        1.28500
C         -1.41430       -0.10100        3.42800
C         -2.40570       -0.87960        3.99620
C         -3.70950       -0.83480        3.52140
C         -3.99370        0.00740        2.45410
C         -3.00740        0.79000        1.88480
C         -0.81500        3.50050        0.05550
C         -1.25620        4.77000       -0.27340
C         -2.01390        5.51780        0.61680
C         -2.32320        4.95870        1.85080
C         -1.88700        3.69160        2.18410
C          3.57100       -3.43600       -2.86480
C          4.14570       -4.64280       -2.51760
C          3.95100       -5.18770       -1.25450
C          3.15510       -4.49420       -0.35340
C          2.57370       -3.28670       -0.69680
C          2.67830        0.22390       -4.21440
C          3.56130        1.07030       -4.85900
C          4.87860        1.18390       -4.43640
C          5.29000        0.42160       -3.35050
C          4.41250       -0.42910       -2.70600
C          4.54040       -6.52020       -0.89310
C          5.84620        2.07040       -5.16560
C         -2.52700        6.87710        0.23870
C         -4.77360       -1.71360        4.11210
C         -3.89250        6.76220       -0.44190
C         -4.80760       -3.06470        3.39470
C          3.55800       -7.64480       -1.22720
C          6.52720        1.29990       -6.29850
S         -3.12050       -3.45700       -5.60080
C         -3.11630       -4.36830       -7.10460
C         -1.82740       -4.43670       -7.61020
C         -0.88000       -3.79620       -6.82140
S          1.82240        3.56520        6.52520
C          3.20340        3.76030        7.58350
C          4.35760        3.27870        6.96280
C          4.14760        2.77260        5.69450
S          5.44420        2.09420        4.69820
C          5.74090        3.54400        3.60240
C          6.55850        3.11290        2.40270
C          3.21960        4.30140        8.87320
C          2.19680        4.81860        9.63320
C          0.79790        4.92560        9.21520
C          0.07930        5.53900       10.35150
C          0.98550        5.78410       11.39650
C          2.31890        5.34680       10.97650
C         -1.26170        5.85190       10.44920
C         -1.70210        6.42590       11.63090
C         -0.81150        6.67100       12.67600
C          0.53620        6.35650       12.57600
O          0.30350        4.58590        8.15530
C          3.45230        5.43820       11.74220
C          4.74690        5.03240       11.35500
C          3.48160        5.96620       13.05080
N          3.57590        6.38240       14.11620
N          5.83100        4.73160       11.12330
F         -1.26400        7.22450       13.80660
F         -2.99400        6.74790       11.77070
S          0.81810       -3.71440       -7.31380
C          0.92730       -1.92380       -7.69680
C          0.07820       -1.55620       -8.89630
C         -4.36090       -4.85140       -7.54030
C         -4.71340       -5.64280       -8.60470
C         -3.83620       -6.26320       -9.61900
C         -4.71560       -7.14630      -10.41790
C         -6.03900       -7.03460       -9.96540
C         -6.07790       -6.06970       -8.86640
C         -4.35950       -7.98040      -11.45910
C         -5.36260       -8.72630      -12.05570
C         -6.68110       -8.62680      -11.61000
C         -7.03780       -7.78490      -10.56740
O         -2.64810       -6.10800       -9.80530
C         -7.22400       -5.64100       -8.24880
C         -8.51660       -6.10870       -8.57140
C         -7.31730       -4.66530       -7.23270
N         -9.59460       -6.44320       -8.77890
N         -7.50130       -3.87710       -6.41760
F         -5.06550       -9.55130      -13.06700
F         -7.62980       -9.36230      -12.20080
H          3.23260       -0.13920       -0.04700
H         -1.73250        0.26810       -0.62870
H          0.15070        2.89140        4.42960
H          1.34740       -3.04700       -4.91380
H         -0.40690       -0.15500        3.81480
H         -2.16170       -1.53010        4.82400
H         -5.00120        0.05490        2.06620
H         -3.25300        1.44860        1.06400
H         -0.21880        2.94370       -0.65300
H         -1.00110        5.18660       -1.23760
H         -2.90850        5.52490        2.56110
H         -2.13860        3.27230        3.14730
H          3.74070       -3.02380       -3.84900
H          4.75580       -5.16910       -3.23760
H          2.98650       -4.90220        0.63300
H          1.95380       -2.77030        0.02160
H          1.65510        0.16250       -4.55630
H          3.21880        1.65560       -5.70070
H          6.31060        0.49620       -3.00330
H          4.75590       -1.02020       -1.86940
H          4.76900       -6.54750        0.17420
H          5.46850       -6.67690       -1.44620
H          5.31870        2.93090       -5.58210
H          6.60620        2.43750       -4.47300
H         -1.82500        7.36190       -0.44270
H         -2.62150        7.49830        1.13150
H         -5.74810       -1.23100        4.01640
H         -4.57420       -1.87460        5.17350
H         -4.26750        7.74670       -0.71120
H         -4.60880        6.28800        0.22530
H         -3.81570        6.16040       -1.34480
H         -5.01270       -2.92570        2.33560
H         -3.84940       -3.57010        3.49360
H         -5.58150       -3.70070        3.81790
H          3.98690       -8.61190       -0.97590
H          2.63340       -7.51840       -0.66840
H          3.31940       -7.63520       -2.28850
H          5.78680        0.93640       -7.00770
H          7.06930        0.44440       -5.90170
H          7.22860        1.94120       -6.82690
H         -1.58420       -4.93380       -8.53150
H          5.32320        3.29890        7.43640
H          6.26520        4.29280        4.19620
H          4.76780        3.93100        3.30110
H          6.75050        3.96930        1.75980
H          7.50970        2.69460        2.72280
H          6.02220        2.35790        1.83250
H          4.20570        4.29430        9.32140
H         -1.94540        5.65890        9.63810
H          1.18030        6.56740       13.41360
H          0.63270       -1.37170       -6.80460
H          1.98530       -1.75360       -7.89130
H          0.37600       -2.13940       -9.76450
H          0.19980       -0.49950       -9.12620
H         -0.97480       -1.74790       -8.69730
H         -5.17320       -4.55460       -6.88740
H         -3.33810       -8.05290      -11.79710
H         -8.07050       -7.74780      -10.26250
