160
IEICO-4Cl.mol
O         -5.52300        9.10150        0.31680
C         -5.19990        9.78970       -0.63180
C         -5.08170       11.26430       -0.61210
C         -5.27810       12.12260        0.44960
C         -5.09160       13.48300        0.23860
C         -4.71430       13.95440       -1.02250
Cl        -4.47760       15.63810       -1.26840
C         -4.52170       13.08440       -2.09100
Cl        -5.32270       14.58610        1.53520
C         -4.70750       11.72800       -1.88330
C         -4.58380       10.57940       -2.77860
C         -4.35660       10.65660       -4.12920
C         -4.33750        9.56780       -5.02640
N         -4.32910        8.74720       -5.83020
C         -4.14520       11.86580       -4.82410
N         -3.95920       12.81130       -5.44830
C         -4.81100        9.38060       -1.99480
C         -4.51980        8.11310       -2.44630
C         -4.68050        6.86810       -1.82520
S         -3.81360        5.50860       -2.51200
C         -4.35320        4.45260       -1.25580
C         -3.85410        3.13620       -1.13560
C         -4.07370        2.23110       -0.10530
C         -3.28380        1.09770       -0.23490
C         -2.48720        1.10670       -1.37350
S         -2.69720        2.52790       -2.30930
C         -1.60540       -0.01420       -1.38740
C         -1.85240       -0.74560       -0.19970
C         -3.03300       -0.16010        0.55900
C         -2.64650        0.07000        2.00430
C         -2.80670       -0.94850        2.93600
C         -2.41350       -0.76750        4.24800
C         -1.84900        0.43120        4.66490
C         -1.38340        0.60650        6.08160
C          0.05460        0.10700        6.23520
C         -1.68030        1.44110        3.72770
C         -2.06960        1.26410        2.41250
C         -4.28940       -1.00970        0.44390
C         -4.37780       -2.08670       -0.42510
C         -5.55460       -2.80700       -0.52880
C         -6.66980       -2.46890        0.22450
C         -7.95830       -3.22500        0.07400
C         -8.81620       -2.60340       -1.03000
C         -6.57860       -1.38210        1.08560
C         -5.40640       -0.66040        1.19390
C         -1.02330       -1.77360        0.18010
C          0.03800       -2.08250       -0.66920
C          0.21000       -1.42890       -1.91450
C          1.41220       -1.98940       -2.65600
C          2.01350       -2.87020       -1.59040
C          1.15610       -2.95220       -0.49740
S          1.78310       -3.92840        0.76700
C          3.23530       -4.20610       -0.17410
C          4.32850       -4.88770        0.39350
S          5.84600       -5.05810       -0.41030
C          4.38620       -5.41940        1.69510
O          3.27250       -5.35040        2.45090
C          3.30270       -5.90410        3.75780
C          3.19320       -7.42370        3.74580
C          5.63910       -5.91660        2.02890
C          6.57780       -5.78650        1.01210
C          7.94260       -6.08710        0.93110
C          8.84630       -6.49700        1.88610
C         10.25650       -6.69730        1.60660
C         10.86750       -6.75860        0.37950
C         10.23270       -6.67020       -0.87750
N          9.80870       -6.62760       -1.94460
C         12.25240       -6.95860        0.19850
N         13.36810       -7.11230       -0.02480
C          8.63530       -6.68820        3.33300
C          9.98340       -6.88320        3.90960
C         10.94260       -6.87840        2.88500
C         12.28270       -7.02680        3.20120
C         10.33020       -7.04020        5.23530
C         11.67520       -7.18870        5.54980
Cl        12.15140       -7.38010        7.18920
C         12.63940       -7.17870        4.53730
Cl        14.30060       -7.35380        4.93910
O          7.59890       -6.69370        3.96900
C          3.18380       -3.59140       -1.41970
C          2.30030       -0.86000       -3.13060
C          2.05610       -0.25680       -4.35850
C          2.82960        0.80560       -4.78450
C          3.86320        1.29660       -3.99680
C          4.73470        2.41530       -4.48940
C          5.88810        1.86210       -5.32900
C          4.09720        0.69610       -2.76750
C          3.32220       -0.36420       -2.33390
C          1.01730       -2.91030       -3.80170
C          2.00720       -3.38290       -4.65520
C          1.69500       -4.26020       -5.67500
C          0.38950       -4.69660       -5.86520
C          0.04370       -5.61700       -6.99980
C         -0.32130       -4.81220       -8.24880
C         -0.59390       -4.22460       -5.00750
C         -0.28670       -3.34590       -3.98380
C         -0.59680       -0.37770       -2.27760
C         -5.22950        5.12460       -0.38020
O         -5.79220        4.45200        0.64510
C         -6.57200        5.17850        1.58580
C         -5.72860        6.03910        2.51900
C         -5.40540        6.46340       -0.71220
H         -5.56710       11.74460        1.41760
H         -4.22750       13.48530       -3.04680
H         -4.02900        8.05240       -3.41060
H         -4.75140        2.43430        0.70090
H         -3.25300       -1.88530        2.63410
H         -2.55030       -1.56850        4.96060
H         -2.03270        0.04560        6.75700
H         -1.42980        1.66120        6.36000
H          0.71990        0.66290        5.57830
H          0.11910       -0.94680        5.97320
H          0.39380        0.23200        7.26080
H         -1.23880        2.38030        4.02980
H         -1.92450        2.06320        1.70000
H         -3.52450       -2.37160       -1.02290
H         -5.60410       -3.64760       -1.20640
H         -8.51230       -3.20410        1.01470
H         -7.74940       -4.26690       -0.17690
H         -8.28600       -2.62680       -1.97940
H         -9.04530       -1.56680       -0.79270
H         -9.75010       -3.14970       -1.13960
H         -7.43610       -1.09960        1.67960
H         -5.35030        0.17670        1.87430
H         -1.15810       -2.30140        1.11160
H          2.43220       -5.46620        4.25290
H          4.20930       -5.58320        4.28280
H          3.14290       -7.79090        4.76660
H          4.05430       -7.87170        3.25620
H          2.29390       -7.72680        3.21510
H          5.90380       -6.34730        2.97610
H          8.35320       -5.90940       -0.05550
H         13.05570       -7.02230        2.45090
H          9.57520       -7.04390        6.00550
H          3.99250       -3.65850       -2.12490
H          1.26170       -0.62900       -4.98950
H          2.62670        1.26210       -5.74280
H          5.14020        2.97090       -3.64170
H          4.14450        3.10290       -5.09850
H          6.51800        2.67140       -5.69060
H          5.50310        1.31230       -6.18500
H          6.49820        1.18550       -4.73470
H          4.89420        1.06460       -2.13720
H          3.51700       -0.80930       -1.36880
H          3.02720       -3.05270       -4.52290
H          2.47710       -4.61630       -6.33000
H         -0.80150       -6.24900       -6.71960
H          0.89440       -6.26340       -7.22440
H          0.51370       -4.18430       -8.55130
H         -1.17670       -4.17060       -8.04900
H         -0.57100       -5.47830       -9.07130
H         -1.61590       -4.55160       -5.13710
H         -1.07070       -2.99850       -3.32710
H         -0.44130        0.17230       -3.19280
H         -7.32270        5.78570        1.06770
H         -7.08580        4.39850        2.15450
H         -5.26230        6.86210        1.98420
H         -4.95160        5.43350        2.97990
H         -6.36400        6.44970        3.29840
H         -6.02590        7.15170       -0.17260
