158
IEIC.sdf
C          0.81520       -1.57210        1.01430
C          0.42310       -1.47620       -0.34220
C         -0.17490       -0.32890       -0.85630
C         -0.36010        0.72490        0.00710
C          0.02020        0.62480        1.36660
C          0.60560       -0.52830        1.88440
C          1.44000       -2.92800        1.30440
C          1.34950       -3.57920       -0.05260
C          0.77760       -2.71050       -0.96840
C          1.75590       -4.78460       -0.61220
C          1.48950       -4.85100       -1.97160
S          0.71600       -3.37710       -2.54580
C         -0.97520        2.08340       -0.28890
C         -0.87480        2.74320        1.06180
C         -0.29740        1.87640        1.97720
C         -1.16770        3.98940        1.59810
C         -0.83200        4.08200        2.94150
S         -0.13060        2.58360        3.52960
C          1.75370       -5.87410       -2.92070
C         -0.99470        5.23780        3.74860
C         -2.40300        1.85860       -0.75210
C         -0.18760        2.92170       -1.27840
C          0.61920       -3.61760        2.37630
C          2.91180       -2.86800        1.66980
C         -0.44770       -4.44050        2.04430
C         -1.20900       -5.03540        3.03350
C         -0.93300       -4.81640        4.37620
C          0.12800       -3.98190        4.70340
C          0.89290       -3.38650        3.71870
C          3.52810       -4.00550        2.17900
C          4.87950       -4.00570        2.46210
C          5.65400       -2.87340        2.24140
C          5.03640       -1.74440        1.72240
C          3.68290       -1.73950        1.43510
C         -2.66400        1.60030       -2.09190
C         -3.95320        1.34660       -2.51930
C         -5.01480        1.34370       -1.62380
C         -4.74720        1.59350       -0.28480
C         -3.45830        1.84360        0.14870
C         -0.76840        4.07070       -1.80280
C         -0.06270        4.88120       -2.66990
C          1.24140        4.56970       -3.03470
C          1.82110        3.42920       -2.49710
C          1.11970        2.61510       -1.62560
C         -6.40940        1.02810       -2.08180
C          2.02020        5.47400       -3.94560
C          7.13160       -2.89270        2.50670
C         -1.72840       -5.50530        5.44730
C          7.88750       -3.39630        1.27530
C         -1.10360       -6.85970        5.78870
C         -6.68750       -0.47100       -1.95250
C          2.74760        6.54940       -3.13590
S         -1.49010        6.70920        2.96830
C         -1.45530        7.59410        4.48190
C         -1.08380        6.74390        5.51100
C         -0.82500        5.43330        5.12050
S          1.25620       -5.60100       -4.56370
C          1.88910       -7.14530       -5.06090
C          2.44550       -7.80440       -3.96330
C          2.37930       -7.11770       -2.76240
C          2.96660       -7.67630       -1.50310
C          4.33030       -7.05010       -1.20120
C          1.88350       -7.70290       -6.34530
C          1.38910       -7.20390       -7.52520
C          0.71160       -5.91260       -7.68580
C          0.35170       -5.81480       -9.11240
C          0.78530       -6.97280       -9.78120
C          1.43970       -7.85820       -8.81600
C         -0.30260       -4.79400       -9.77250
C         -0.52900       -4.93460      -11.13480
C         -0.10510       -6.07340      -11.80320
C          0.55370       -7.10230      -11.14130
O          0.48450       -5.08010       -6.82520
C          1.99480       -9.07650       -9.11480
C          2.63450       -9.93970       -8.20160
C          2.00720       -9.64850      -10.40410
N          2.05610      -10.17680      -11.42250
N          3.17150      -10.70140       -7.52910
C         -0.38100        4.39730        6.10400
C          1.14570        4.34890        6.19280
C         -1.76800        8.96230        4.41490
C         -1.83190        9.93700        5.37830
C         -1.65320        9.80570        6.84110
C         -1.89440       11.15170        7.39690
C         -2.18310       12.05090        6.35820
C         -2.13410       11.32890        5.08720
C         -1.86440       11.54910        8.71910
C         -2.13090       12.87940        9.00940
C         -2.41960       13.77520        7.99010
C         -2.44960       13.37770        6.65970
O         -1.37570        8.81880        7.49340
C         -2.31660       11.90890        3.85780
C         -2.59010       13.27960        3.66130
C         -2.25130       11.27210        2.60020
N         -2.81460       14.37870        3.41600
N         -2.21350       10.85930        1.52830
H         -0.46580       -0.27670       -1.89380
H          0.88900       -0.58510        2.92420
H          2.22340       -5.56800       -0.05040
H         -1.60810        4.80820        1.05820
H         -0.68560       -4.62110        1.00600
H         -2.03270       -5.67790        2.75640
H          0.35800       -3.79450        5.74270
H          1.71930       -2.74750        3.99520
H          2.93970       -4.89250        2.36530
H          5.34110       -4.89730        2.86240
H          5.62100       -0.85390        1.53930
H          3.22690       -0.84900        1.02780
H         -1.85500        1.61210       -2.80790
H         -4.13810        1.15150       -3.56610
H         -5.55800        1.59500        0.42990
H         -3.27720        2.03260        1.19690
H         -1.78490        4.32350       -1.53770
H         -0.53150        5.76810       -3.07140
H          2.83610        3.17050       -2.76400
H          1.59510        1.73430       -1.21920
H         -7.13150        1.58100       -1.47730
H         -6.53430        1.32880       -3.12380
H          1.34460        5.95500       -4.65570
H          2.75150        4.89150       -4.50960
H          7.47730       -1.88730        2.75510
H          7.34730       -3.54750        3.35340
H         -1.75540       -4.88520        6.34550
H         -2.75430       -5.65840        5.10630
H          8.95810       -3.41190        1.46550
H          7.56520       -4.40310        1.01860
H          7.69510       -2.74880        0.42270
H         -1.08140       -7.49860        4.90850
H         -0.08290       -6.72730        6.14090
H         -1.67730       -7.35900        6.56590
H         -5.98510       -1.03950       -2.55800
H         -7.69770       -0.70070       -2.28340
H         -6.57990       -0.78800       -0.91750
H          3.43650        6.09020       -2.43030
H          3.31080        7.20600       -3.79480
H          2.03360        7.14860       -2.57540
H         -1.00740        7.08180        6.52830
H          2.89140       -8.77970       -4.06110
H          3.09290       -8.75320       -1.62990
H          2.28310       -7.52190       -0.66680
H          4.25370       -5.96920       -1.10910
H          5.02790       -7.27410       -2.00470
H          4.73170       -7.45100       -0.27340
H          2.34960       -8.68000       -6.38400
H         -0.62320       -3.91750       -9.23070
H         -1.03820       -4.15340      -11.67890
H         -0.28890       -6.16720      -12.86310
H          0.87060       -7.97450      -11.68880
H         -0.78620        4.65670        7.08360
H         -0.76590        3.41470        5.82610
H          1.45550        3.59230        6.90880
H          1.58090        4.10780        5.22590
H          1.53220        5.31300        6.51460
H         -1.98940        9.28760        3.40530
H         -1.63840       10.83220        9.49350
H         -2.11520       13.22100       10.03350
H         -2.62670       14.80690        8.23220
H         -2.67870       14.09830        5.89230
