144
IFBR-d.sdf
C          0.38960       -1.20050       -0.85050
C          0.49500       -1.66400        0.48270
C         -0.28010       -1.13010        1.50980
C         -1.15490       -0.12140        1.18030
C         -1.26680        0.33200       -0.15560
C         -0.49030       -0.19780       -1.18250
C          1.36810       -1.92590       -1.75950
C          2.02870       -2.85910       -0.77750
C          1.49230       -2.68770        0.49220
C          2.99620       -3.85160       -0.82970
C          3.21030       -4.43790        0.41020
S          2.18720       -3.74480        1.64990
C         -2.10690        0.63670        2.09260
C         -2.79440        1.54300        1.10270
C         -2.26760        1.34980       -0.16600
C         -3.77360        2.52880        1.14510
C         -4.00820        3.08620       -0.10040
S         -2.98050        2.37530       -1.33660
C          4.12770       -5.48050        0.73510
C         -4.94230        4.10740       -0.44760
C         -3.03180       -0.35770        2.76730
C         -1.40210        1.52180        3.10600
C          0.70920       -2.77010       -2.83370
C          2.30840       -0.88870       -2.34570
C          4.93950       -6.10320       -0.20480
C          5.83590       -7.11080        0.13590
C          6.02990       -7.60100        1.42440
C          5.17710       -7.01050        2.39880
C          4.25190       -5.96350        2.06650
C         -5.09320        4.55440       -1.75340
C         -5.99200        5.55430       -2.10710
C         -6.82560        6.21510       -1.21100
C         -6.72120        5.74690        0.12890
C         -5.79140        4.71980        0.51830
N          5.13430       -7.31560        3.69320
S          4.03900       -6.38840        4.41600
N          3.56880       -5.54730        3.12800
N         -7.42840        6.19710        1.16150
S         -6.98020        5.40830        2.48660
N         -5.86300        4.46150        1.82190
C         -0.63150       -3.11990       -2.76940
C         -1.18930       -3.93330       -3.73960
C         -0.42380       -4.42710       -4.78660
C          0.92170       -4.08470       -4.83840
C          1.48320       -3.27110       -3.87390
C          1.96210       -0.21490       -3.51040
C          2.78440        0.77090       -4.02160
C          3.96850        1.11560       -3.38260
C          4.30670        0.44380       -2.21590
C          3.48590       -0.54150       -1.69860
C         -2.63700       -0.98440        3.94290
C         -3.45360       -1.92070        4.54730
C         -4.68330       -2.25730        3.99640
C         -5.06780       -1.63700        2.81560
C         -4.25270       -0.70160        2.20480
C         -2.14440        2.09500        4.13190
C         -1.54330        2.93630        5.04740
C         -0.18830        3.23150        4.96190
C          0.54390        2.66970        3.92550
C         -0.05310        1.82780        3.00410
C         -5.55150       -3.30330        4.63410
C          0.45660        4.17640        5.93440
C          4.88340        2.15270       -3.96690
C         -1.04380       -5.26830       -5.86450
C         -1.54890       -4.38320       -7.00590
C          5.86580        1.50640       -4.94580
C         -5.21390       -4.68820        4.07810
C          0.39640        5.61090        5.40560
C          6.93830       -8.62100        1.84550
C         -7.76570        7.25340       -1.49850
C          8.09490       -9.05820        1.29550
S          8.96230       -8.46930       -0.10040
C         10.28370       -9.59470        0.17540
N         10.03480      -10.37190        1.25940
C          8.85590      -10.13890        1.94310
S         11.60970       -9.68450       -0.77100
C         10.96610      -11.38620        1.71470
C         12.08800      -10.77690        2.54560
O          8.51780      -10.75680        2.92630
C         -7.79270        8.16170       -2.50090
S         -6.62560        8.46210       -3.76440
C         -7.52290        9.86090       -4.33720
N         -8.65130       10.04080       -3.60520
C         -8.88010        9.15080       -2.57240
S         -7.03690       10.80390       -5.57650
C         -9.60320       11.09520       -3.89730
C        -10.54790       10.68810       -5.02090
O         -9.84160        9.20570       -1.84070
F          6.50240       -7.66950       -0.89190
F         -6.07870        5.83010       -3.42130
H         -0.18340       -1.49670        2.51990
H         -0.58550        0.16930       -2.19260
H          3.52630       -4.13570       -1.71950
H         -4.31160        2.84410        2.01920
H          4.88680       -5.82540       -1.24480
H         -4.50390        4.11380       -2.54350
H         -1.24660       -2.75600       -1.95930
H         -2.23690       -4.19140       -3.67730
H          1.53740       -4.46300       -5.64210
H          2.53040       -3.01120       -3.93270
H          1.04870       -0.47180       -4.02720
H          2.50030        1.28350       -4.92960
H          5.22260        0.69720       -1.70100
H          3.76720       -1.04410       -0.78460
H         -1.69110       -0.72590        4.39660
H         -3.13320       -2.39370        5.46470
H         -6.01960       -1.88590        2.36810
H         -4.57480       -0.23280        1.28630
H         -3.19750        1.87000        4.21840
H         -2.13410        3.36830        5.84260
H          1.59810        2.89070        3.83640
H          0.53970        1.40660        2.20530
H         -5.39870       -3.30280        5.71520
H         -6.60260       -3.08310        4.43720
H         -0.05720        4.12570        6.89640
H          1.50000        3.89390        6.08850
H          5.44240        2.64560       -3.16890
H          4.29770        2.90970       -4.49230
H         -0.30680       -5.97290       -6.25500
H         -1.87940       -5.83930       -5.45480
H         -1.99560       -4.99020       -7.78970
H         -0.72750       -3.81260       -7.43360
H         -2.29660       -3.68350       -6.63900
H          5.32750        1.02170       -5.75730
H          6.46700        0.75550       -4.43790
H          6.53060        2.25590       -5.36870
H         -5.37190       -4.71240        3.00220
H         -5.84170       -5.44710        4.53910
H         -4.17220       -4.93130        4.27550
H          0.86020        6.29650        6.11090
H          0.91770        5.68530        4.45390
H         -0.63690        5.91460        5.25320
H          6.68180       -9.08550        2.79210
H         -8.55500        7.36330       -0.76200
H         11.37430      -11.89050        0.83550
H         10.38450      -12.08940        2.31530
H         12.75140      -11.56420        2.89100
H         11.67890      -10.25850        3.40960
H         12.66270      -10.07410        1.94720
H         -9.04230       11.99030       -4.17600
H        -10.16020       11.27190       -2.97420
H        -11.26390       11.48470       -5.19990
H         -9.99020       10.50790       -5.93690
H        -11.08910        9.78460       -4.74960
