144
IFBR-p.sdf
C          0.98310       -1.50570        1.24000
C          1.64050       -0.35400        0.74310
C          1.03340        0.90050        0.75030
C         -0.26450        0.96740        1.19600
C         -0.94860       -0.19970        1.61610
C         -0.31530       -1.43850        1.68690
C          1.88500       -2.72620        1.14520
C          3.05620       -2.15280        0.38950
C          2.89170       -0.78480        0.20740
C          4.18270       -2.65710       -0.24190
C          4.88790       -1.66880       -0.91840
S          4.15100       -0.08710       -0.72210
C         -1.18780        2.17520        1.22810
C         -2.51080        1.51060        1.51370
C         -2.31600        0.16470        1.80240
C         -3.84490        1.88570        1.53310
C         -4.68630        0.81700        1.81460
S         -3.78050       -0.65840        2.11900
C          6.00840       -1.80830       -1.78870
C         -6.11080        0.81150        1.74850
C         -0.90500        3.10590        2.39770
C         -1.11740        2.91170       -0.09240
C          1.31400       -3.88380        0.35190
C          2.22740       -3.13130        2.56990
C          6.58830       -3.01860       -2.17630
C          7.58420       -3.15110       -3.13460
C          8.12790       -2.05890       -3.80170
C          7.63540       -0.78730       -3.39540
C          6.59240       -0.67140       -2.41520
C         -6.90450       -0.29910        2.04180
C         -8.27450       -0.37190        1.84740
C         -9.01140        0.68240        1.31340
C         -8.27600        1.87190        1.06740
C         -6.85280        1.93920        1.28840
N          8.02040        0.40100       -3.85180
S          7.16490        1.54800       -3.12170
N          6.25780        0.59630       -2.19460
N         -8.76100        3.03000        0.63650
S         -7.56810        4.09900        0.50840
N         -6.37110        3.14520        0.99650
C          1.90210       -5.13840        0.46320
C          1.43160       -6.20280       -0.28030
C          0.36810       -6.04300       -1.15990
C         -0.20400       -4.78440       -1.27990
C          0.26610       -3.71350       -0.54070
C          1.35510       -3.94230        3.28540
C          1.62770       -4.28090        4.59680
C          2.77140       -3.81410        5.23190
C          3.63610       -2.99900        4.51470
C          3.36730       -2.65600        3.20220
C         -0.03740        2.76260        3.42370
C          0.15900        3.62330        4.48930
C         -0.50600        4.83920        4.56010
C         -1.38310        5.17170        3.53480
C         -1.58280        4.31730        2.46850
C         -1.97480        2.60240       -1.13830
C         -1.86810        3.26000       -2.35030
C         -0.89630        4.23000       -2.55380
C         -0.03200        4.52710       -1.50780
C         -0.13810        3.87720       -0.29340
C         -0.32340        5.74890        5.74060
C         -0.81200        4.97800       -3.85290
C          3.09030       -4.22210        6.64130
C         -0.17800       -7.21480       -1.92320
C         -1.24400       -7.93790       -1.09720
C          3.91870       -5.50840        6.65050
C         -1.34010        5.41520        6.83430
C         -1.65450        6.25360       -3.78930
C          9.08260       -2.11450       -4.85690
C        -10.39240        0.49270        1.02250
C          9.57520       -3.18570       -5.52450
S          9.22570       -4.88260       -5.29790
C         10.25280       -5.33870       -6.65610
N         10.81800       -4.23880       -7.20880
C         10.50570       -3.01130       -6.64610
S         10.47850       -6.87820       -7.14310
C         11.67840       -4.31600       -8.37380
C         10.86020       -4.38040       -9.65730
O         10.95130       -1.96120       -7.04790
C        -11.27560        1.25100        0.32760
S        -11.07880        2.78980       -0.46340
C        -12.71460        2.71430       -1.11880
N        -13.35150        1.58940       -0.70950
C        -12.63350        0.72930        0.09680
S        -13.35770        3.87150       -2.07280
C        -14.70170        1.26240       -1.12600
C        -14.70780        0.60450       -2.50010
O        -13.07740       -0.30870        0.53490
F          6.15220       -4.16990       -1.62320
F         -6.31090       -1.41120        2.52770
H          1.55750        1.76910        0.38260
H         -0.84800       -2.31040        2.03350
H          4.46800       -3.69150       -0.23130
H         -4.22440        2.86740        1.32270
H          7.92040       -4.15200       -3.35350
H         -8.76570       -1.30180        2.08970
H          2.72890       -5.28200        1.14370
H          1.89910       -7.17180       -0.17930
H         -1.02690       -4.63570       -1.96480
H         -0.18890       -2.74120       -0.66150
H          0.46330       -4.32210        2.80860
H          0.93950       -4.91550        5.13690
H          4.53170       -2.62360        4.98920
H          4.05450       -2.01620        2.66820
H          0.49260        1.82190        3.39440
H          0.84340        3.34300        5.27750
H         -1.91430        6.11210        3.57190
H         -2.26330        4.59420        1.67660
H         -2.73450        1.84570       -1.00670
H         -2.54910        3.01150       -3.15190
H          0.73480        5.27610       -1.64620
H          0.53810        4.12930        0.51100
H          0.68580        5.63710        6.14200
H         -0.45560        6.78780        5.43180
H          0.22670        5.24340       -4.06030
H         -1.17340        4.34810       -4.66820
H          2.16520       -4.38600        7.19770
H          3.65250       -3.42890        7.13830
H         -0.61960       -6.87340       -2.86150
H          0.62880       -7.91180       -2.15820
H         -0.81900       -8.29690       -0.16250
H         -2.06340       -7.26200       -0.86270
H         -1.64100       -8.78770       -1.64760
H          3.36940       -6.31530        6.17050
H          4.15110       -5.80470        7.67070
H          4.85130       -5.36140        6.11020
H         -1.21580        4.38640        7.16470
H         -2.35360        5.53240        6.45710
H         -1.20910        6.07360        7.68990
H         -2.69680        6.00900       -3.59660
H         -1.59320        6.79810       -4.72860
H         -1.30170        6.90020       -2.98890
H          9.43800       -1.15190       -5.20780
H        -10.81080       -0.44790        1.36770
H         12.29700       -3.41570       -8.35990
H         12.30500       -5.20540       -8.27480
H         11.52850       -4.42090      -10.51220
H         10.22950       -3.49890       -9.74700
H         10.23330       -5.26900       -9.66260
H        -15.10150        0.57930       -0.37320
H        -15.28360        2.18680       -1.14330
H        -14.11770       -0.30890       -2.48340
H        -14.29550        1.28160       -3.24440
H        -15.72740        0.35750       -2.78060
