144
INIC3.sdf
C          7.75800        1.70520       -6.46700
C          8.07010        1.59920       -7.79990
C          9.41700        1.34840       -8.28670
C          9.32920        1.08260       -9.72270
C          7.99460        1.23920      -10.12620
C          7.15700        1.60110       -8.96100
O          5.96780        1.83750       -9.00550
C         10.58600        1.38610       -7.57290
C         10.72430        1.71010       -6.20560
N         10.94010        1.97430       -5.10890
C         11.85790        1.12580       -8.12830
N         12.92000        0.92000       -8.51110
C         10.29280        0.72890      -10.65490
C          9.89040        0.54290      -11.96900
C          8.56110        0.70590      -12.36040
C          7.59290        1.05890      -11.43500
C         -7.17400       -3.66070        6.07480
C         -8.40040       -4.06570        5.60510
C         -9.32310       -4.94740        6.29180
C        -10.46250       -5.16780        5.39830
C        -10.26080       -4.43350        4.21770
C         -8.97530       -3.71010        4.30570
C        -11.60680       -5.93640        5.54300
C        -12.51980       -5.94930        4.49840
C        -12.30970       -5.21570        3.33060
C        -11.16910       -4.44380        3.17820
O         -8.50890       -2.97170        3.45810
C         -9.18780       -5.49360        7.54160
C         -8.10360       -5.28740        8.42080
C        -10.13450       -6.35660        8.13420
N        -10.86200       -7.06180        8.67330
N         -7.26740       -5.16850        9.19930
C          6.53520        1.89920       -5.80540
S          6.59110        1.76260       -4.03770
C          4.89660        2.00470       -3.93890
C          4.33390        2.21240       -5.21480
C          5.24650        2.15700       -6.25440
C          3.93220        1.99740       -2.93210
C          2.63410        2.19820       -3.43890
S          2.60440        2.42980       -5.16060
S          3.94620        1.70450       -1.21970
C          2.21940        1.80800       -1.21010
C          1.66220        2.07740       -2.44980
C          1.19520        1.55900       -0.24390
C         -0.04400        1.68600       -0.91680
C          0.16220        2.14760       -2.34870
C          1.27170        1.16590        1.08950
C          0.09350        0.82230        1.71070
C         -1.13640        0.87560        1.01260
C         -1.22120        1.33790       -0.29830
C         -0.10910        0.31440        3.12860
C         -1.57610       -0.02020        3.10030
C         -2.13220        0.32620        1.87870
C         -2.49700       -0.66390        3.92130
C         -3.75250       -0.80530        3.30070
S         -3.79570       -0.11220        1.70900
S         -2.44110       -1.37400        5.50730
C         -4.09570       -1.90010        5.31820
C         -4.66160       -1.51580        4.08480
C         -4.95250       -2.64700        6.09840
C         -6.18610       -2.87010        5.47630
S         -6.26900       -2.09640        3.89430
C         -0.20920        3.60850       -2.56410
C         -0.57940        1.23800       -3.30470
C          0.65510       -0.95250        3.46420
C          0.23250        1.44780        4.08150
C         -1.90470        1.50360       -3.62590
C         -2.60180        0.66450       -4.47350
C         -1.99780       -0.46100       -5.01930
C         -0.67750       -0.72860       -4.68440
C          0.02280        0.10460       -3.83150
C         -0.48860        4.46330       -1.50860
C         -0.77260        5.79630       -1.74780
C         -0.77730        6.30790       -3.03800
C         -0.48380        5.44810       -4.08950
C         -0.20230        4.11620       -3.85800
C          0.78670       -1.33170        4.79480
C          1.42910       -2.50800        5.12790
C          1.95190       -3.33810        4.14420
C          1.80550       -2.96030        2.81670
C          1.15730       -1.78650        2.47620
C          1.55380        1.66290        4.45220
C          1.88460        2.70670        5.29480
C          0.90850        3.56260        5.78880
C         -0.40840        3.35060        5.40440
C         -0.74450        2.30970        4.55850
F          8.21880        0.51670      -13.64050
F        -13.21750       -5.25910        2.34800
F         10.80430        0.19590      -12.88220
F        -13.62880       -6.68730        4.61830
C         -2.74010       -1.33490       -5.98790
C         -2.57010       -0.80960       -7.41500
C         -1.04050        7.76470       -3.28730
C          0.26630        8.55950       -3.24180
C          1.27150        4.71700        6.67730
C          1.50520        5.98010        5.84600
C          2.69910       -4.58670        4.51290
C          4.18000       -4.27340        4.73760
H          8.58670        1.57760       -5.78040
H         11.33180        0.58800      -10.40710
H          6.56340        1.18540      -11.72960
H         -6.88690       -4.02110        7.05510
H        -11.81790       -6.52220        6.42230
H        -11.00090       -3.87530        2.27750
H          5.00390        2.27850       -7.29370
H          2.22410        1.09720        1.59150
H         -2.17020        1.38710       -0.80920
H         -4.71440       -3.03970        7.07040
H         -2.38910        2.37980       -3.21940
H         -3.63110        0.88750       -4.71540
H         -0.19000       -1.60190       -5.09350
H          1.04590       -0.13190       -3.57680
H         -0.48900        4.09170       -0.49430
H         -0.99500        6.44800       -0.91490
H         -0.47700        5.82510       -5.10190
H          0.01740        3.46010       -4.68800
H          0.38860       -0.69770        5.57390
H          1.52240       -2.78690        6.16750
H          2.19820       -3.59490        2.03500
H          1.04480       -1.52110        1.43500
H          2.32630        0.99850        4.09340
H          2.91680        2.85510        5.57810
H         -1.18420        4.00530        5.77510
H         -1.77730        2.16800        4.27510
H         -3.80200       -1.35010       -5.73440
H         -2.36030       -2.35690       -5.93250
H         -2.96030        0.20260       -7.49460
H         -1.51750       -0.79230       -7.68880
H         -3.10240       -1.44390       -8.11980
H         -1.72370        8.15270       -2.52910
H         -1.50590        7.89440       -4.26620
H          0.07580        9.61470       -3.42250
H          0.95680        8.19610       -3.99960
H          0.74020        8.45340       -2.26840
H          2.17830        4.48210        7.23770
H          0.46620        4.90110        7.39140
H          0.60710        6.23890        5.28950
H          1.76770        6.81570        6.49030
H          2.31350        5.82130        5.13550
H          2.27940       -5.01280        5.42620
H          2.60430       -5.32570        3.71500
H          4.29530       -3.54530        5.53740
H          4.62080       -3.86050        3.83290
H          4.72290       -5.17580        5.00810
