144
INIC2.sdf
C         -0.72710       10.22210       -2.30420
C          0.31800       10.87950       -2.90500
C          0.22530       12.11290       -3.66200
C          1.56640       12.42300       -4.15980
C          2.45460       11.42740       -3.71660
C          1.71400       10.43400       -2.91320
O          2.18700        9.45140       -2.37180
C         -0.89540       12.86680       -3.89650
C         -2.19590       12.58420       -3.42860
N         -3.28340       12.43190       -3.09070
C         -0.90570       14.05580       -4.65650
N         -0.98810       15.02620       -5.26420
C          2.04100       13.46530       -4.94300
C          3.38870       13.49590       -5.26970
C          4.24000       12.49920       -4.81690
C          3.79760       11.44470       -4.03210
C         -0.46430       -9.67980       -0.44400
C          0.22310      -10.68560       -1.07250
C         -0.38840      -11.94500       -1.46700
C          0.52840      -12.61780       -2.38440
C          1.71170      -11.86560       -2.46400
C          1.59960      -10.66090       -1.61200
C          0.40480      -13.78580       -3.12380
C          1.46430      -14.18310       -3.92520
C          2.62380      -13.42340       -3.97720
C          2.77680      -12.25150       -3.25220
O          2.48060       -9.84680       -1.43090
C         -1.57670      -12.46240       -1.02310
C         -2.42620      -11.87740       -0.05910
C         -2.10450      -13.70130       -1.44570
N         -2.59370      -14.69340       -1.75240
N         -3.16510      -11.48740        0.72890
C         -0.75960        9.00220       -1.61630
S          0.60960        7.94250       -1.28650
C         -0.44560        6.79060       -0.56660
C         -1.78890        7.21720       -0.57270
C         -1.96090        8.45780       -1.15050
C         -0.31460        5.50830       -0.03280
C         -1.54930        4.95200        0.34960
S         -2.88670        6.03380        0.09540
S          1.01360        4.41260        0.19180
C         -0.09890        3.21500        0.75480
C         -1.41750        3.63980        0.79510
C         -0.00970        1.82510        1.07670
C         -1.33130        1.36230        1.28010
C         -2.32570        2.50910        1.19760
C          1.08720        0.96860        1.12310
C          0.82900       -0.36870        1.30710
C         -0.49900       -0.84220        1.43310
C         -1.58850        0.02390        1.46650
C          1.81710       -1.52200        1.30200
C          0.87430       -2.69350        1.23250
C         -0.43520       -2.27040        1.39110
C          0.95370       -4.06930        1.03430
C         -0.31560       -4.67690        1.03100
S         -1.60220       -3.54580        1.31970
S          2.23940       -5.17980        0.66830
C          1.07050       -6.45680        0.45800
C         -0.24930       -6.03170        0.70650
C          1.17480       -7.77620        0.04690
C         -0.06360       -8.39640       -0.03390
S         -1.37080       -7.30550        0.45980
C         -3.38530        2.35320        0.12350
C         -2.93950        2.68790        2.57590
C          2.75690       -1.39490        0.12250
C          2.57460       -1.66440        2.61460
C         -2.41530        3.59120        3.48890
C         -2.96770        3.71270        4.75090
C         -4.04700        2.93020        5.13690
C         -4.56200        2.02070        4.22170
C         -4.01560        1.89710        2.95900
C         -4.51500        3.16180        0.16190
C         -5.46890        3.08080       -0.83360
C         -5.31840        2.19740       -1.89520
C         -4.18100        1.40280       -1.93520
C         -3.21930        1.48330       -0.94420
C          2.42750       -1.92660       -1.11590
C          3.28030       -1.77360       -2.19360
C          4.47570       -1.07990       -2.06490
C          4.79090       -0.53240       -0.82770
C          3.94420       -0.68540        0.25300
C          3.59330       -2.60620        2.69990
C          4.26950       -2.80110        3.88790
C          3.94670       -2.06420        5.02110
C          2.92330       -1.13120        4.93080
C          2.23990       -0.93280        3.74400
F          5.53900       12.55970       -5.15340
F          3.63080      -13.83920       -4.76320
C         -4.67530        3.09960        6.48970
C         -5.77980        4.15710        6.43580
C         -6.38370        2.07250       -2.94540
C         -7.43620        1.04780       -2.51670
C          5.38210       -0.87650       -3.24410
C          5.05390        0.44180       -3.94810
C          4.65080       -2.31020        6.32400
C          3.92730       -3.39490        7.12480
H         -1.70320       10.68510       -2.38410
H          1.39130       14.24580       -5.30230
H          3.78850       14.29170       -5.87810
H          4.46940       10.67520       -3.68680
H         -1.51910       -9.86380       -0.27390
H         -0.49190      -14.38210       -3.09540
H          1.39940      -15.08320       -4.51600
H          3.68210      -11.66800       -3.30340
H         -2.90550        8.95920       -1.26030
H          2.08980        1.34120        0.98020
H         -2.59180       -0.35490        1.58420
H          2.09440       -8.27060       -0.20460
H         -1.57180        4.20880        3.21640
H         -2.55010        4.42630        5.44690
H         -5.40120        1.40000        4.50170
H         -4.43780        1.19090        2.25900
H         -4.64960        3.85450        0.98000
H         -6.34100        3.71670       -0.78740
H         -4.04000        0.71420       -2.75620
H         -2.33630        0.86370       -1.00490
H          1.49920       -2.46510       -1.24270
H          3.01260       -2.20250       -3.14870
H          5.71370        0.01690       -0.70740
H          4.21230       -0.26070        1.20980
H          3.86130       -3.18340        1.82650
H          5.06040       -3.53560        3.93570
H          2.65430       -0.54860        5.80030
H          1.44550       -0.20210        3.70200
H         -5.10150        2.15080        6.82170
H         -3.91830        3.40690        7.21400
H         -6.55170        3.86220        5.72850
H         -6.23510        4.28210        7.41530
H         -5.37220        5.11400        6.11720
H         -6.86580        3.03980       -3.10000
H         -5.93800        1.75690       -3.89070
H         -8.20970        0.95660       -3.27550
H         -7.90090        1.35170       -1.58140
H         -6.97700        0.07280       -2.36940
H          6.42190       -0.85680       -2.91170
H          5.26400       -1.70120       -3.94940
H          5.71120        0.59130       -4.80130
H          5.17750        1.27790       -3.26340
H          4.02420        0.43740       -4.29870
H          5.67830       -2.62750        6.13570
H          4.67870       -1.38920        6.90980
H          3.89940       -4.32530        6.56210
H          2.90390       -3.09140        7.33410
H          4.43660       -3.57460        8.06860
