INPIC-4F.mol
  xtb     01102218163D
 energy: -270.236129802664 gnorm: 0.000364867485 xtb: 6.4.1 (unknown)
158174  0     0  0            999 V2000
   -3.1436    2.8758    9.9681 O   0  0  0  0  0  0  0  0  0  0  0  0
   -3.0415    2.1992   10.9734 C   0  0  0  0  0  0  0  0  0  0  0  0
   -2.6302    0.7929   11.1225 C   0  0  0  0  0  0  0  0  0  0  0  0
   -2.7496    0.4339   12.5238 C   0  0  0  0  0  0  0  0  0  0  0  0
   -3.1367    1.6370   13.2621 C   0  0  0  0  0  0  0  0  0  0  0  0
   -3.3197    2.6823   12.3449 C   0  0  0  0  0  0  0  0  0  0  0  0
   -3.6978    3.9507   12.7376 C   0  0  0  0  0  0  0  0  0  0  0  0
   -3.3318    1.8666   14.6151 C   0  0  0  0  0  0  0  0  0  0  0  0
   -3.7077    3.1415   15.0120 C   0  0  0  0  0  0  0  0  0  0  0  0
   -3.8963    3.3844   16.3147 F   0  0  0  0  0  0  0  0  0  0  0  0
   -3.8915    4.1725   14.0911 C   0  0  0  0  0  0  0  0  0  0  0  0
   -4.2565    5.3884   14.5190 F   0  0  0  0  0  0  0  0  0  0  0  0
   -2.5927   -0.8052   13.0903 C   0  0  0  0  0  0  0  0  0  0  0  0
   -2.7392   -1.0655   14.4697 C   0  0  0  0  0  0  0  0  0  0  0  0
   -2.8380   -1.3501   15.5774 N   0  0  0  0  0  0  0  0  0  0  0  0
   -2.3006   -2.0091   12.4138 C   0  0  0  0  0  0  0  0  0  0  0  0
   -2.0840   -3.0407   11.9573 N   0  0  0  0  0  0  0  0  0  0  0  0
   -2.1330   -0.0653   10.1664 C   0  0  0  0  0  0  0  0  0  0  0  0
   -1.9544    0.0759    8.7863 C   0  0  0  0  0  0  0  0  0  0  0  0
   -2.2866    1.0938    7.8967 C   0  0  0  0  0  0  0  0  0  0  0  0
   -1.9180    0.7846    6.6000 C   0  0  0  0  0  0  0  0  0  0  0  0
   -1.2903   -0.4859    6.4623 C   0  0  0  0  0  0  0  0  0  0  0  0
   -0.9815   -0.6265    5.1157 C   0  0  0  0  0  0  0  0  0  0  0  0
   -0.2229   -1.7584    4.0428 S   0  0  0  0  0  0  0  0  0  0  0  0
   -0.4995   -0.6488    2.7426 C   0  0  0  0  0  0  0  0  0  0  0  0
   -1.1403    0.5289    3.0930 C   0  0  0  0  0  0  0  0  0  0  0  0
   -1.3300    1.4042    1.8742 C   0  0  0  0  0  0  0  0  0  0  0  0
   -2.8192    1.6077    1.6388 C   0  0  0  0  0  0  0  0  0  0  0  0
   -3.4488    2.8363    1.7790 C   0  0  0  0  0  0  0  0  0  0  0  0
   -4.8145    2.9518    1.5887 C   0  0  0  0  0  0  0  0  0  0  0  0
   -5.5901    1.8483    1.2639 C   0  0  0  0  0  0  0  0  0  0  0  0
   -7.0782    1.9740    1.1151 C   0  0  0  0  0  0  0  0  0  0  0  0
   -7.7643    1.8195    2.4742 C   0  0  0  0  0  0  0  0  0  0  0  0
   -4.9583    0.6175    1.1350 C   0  0  0  0  0  0  0  0  0  0  0  0
   -3.5946    0.4982    1.3183 C   0  0  0  0  0  0  0  0  0  0  0  0
   -0.5305    2.6929    1.9370 C   0  0  0  0  0  0  0  0  0  0  0  0
   -0.6531    3.6415    0.9265 C   0  0  0  0  0  0  0  0  0  0  0  0
    0.0906    4.8051    0.9546 C   0  0  0  0  0  0  0  0  0  0  0  0
    0.9822    5.0595    1.9890 C   0  0  0  0  0  0  0  0  0  0  0  0
    1.8219    6.3032    1.9929 C   0  0  0  0  0  0  0  0  0  0  0  0
    3.1299    6.0633    1.2360 C   0  0  0  0  0  0  0  0  0  0  0  0
    1.1114    4.1076    2.9899 C   0  0  0  0  0  0  0  0  0  0  0  0
    0.3696    2.9401    2.9648 C   0  0  0  0  0  0  0  0  0  0  0  0
   -0.7240    0.5167    0.7898 C   0  0  0  0  0  0  0  0  0  0  0  0
   -0.6457    0.7418   -0.5638 C   0  0  0  0  0  0  0  0  0  0  0  0
   -0.0213   -0.2325   -1.3378 C   0  0  0  0  0  0  0  0  0  0  0  0
    0.5190   -1.4126   -0.7795 C   0  0  0  0  0  0  0  0  0  0  0  0
    1.1599   -2.2812   -1.8594 C   0  0  0  0  0  0  0  0  0  0  0  0
    0.8601   -1.4620   -3.0950 C   0  0  0  0  0  0  0  0  0  0  0  0
    0.1888   -0.3003   -2.7485 C   0  0  0  0  0  0  0  0  0  0  0  0
   -0.2355    0.7346   -4.0702 S   0  0  0  0  0  0  0  0  0  0  0  0
    0.5043   -0.4062   -5.1465 C   0  0  0  0  0  0  0  0  0  0  0  0
    1.0473   -1.5397   -4.4787 C   0  0  0  0  0  0  0  0  0  0  0  0
    1.6373   -2.3678   -5.3912 N   0  0  0  0  0  0  0  0  0  0  0  0
    2.2220   -3.6637   -5.1575 C   0  0  0  0  0  0  0  0  0  0  0  0
    1.2358   -4.7827   -5.4818 C   0  0  0  0  0  0  0  0  0  0  0  0
    1.4637   -1.8035   -6.6293 C   0  0  0  0  0  0  0  0  0  0  0  0
    0.7633   -0.5706   -6.5008 C   0  0  0  0  0  0  0  0  0  0  0  0
    0.5342    0.1870   -8.0207 S   0  0  0  0  0  0  0  0  0  0  0  0
    1.3888   -1.1474   -8.8311 C   0  0  0  0  0  0  0  0  0  0  0  0
    1.5005   -1.0360  -10.2209 C   0  0  0  0  0  0  0  0  0  0  0  0
    2.1365   -1.8186  -11.1592 C   0  0  0  0  0  0  0  0  0  0  0  0
    2.1174   -1.5228  -12.5800 C   0  0  0  0  0  0  0  0  0  0  0  0
    3.0473   -2.4403  -13.2399 C   0  0  0  0  0  0  0  0  0  0  0  0
    3.5612   -3.3216  -12.2772 C   0  0  0  0  0  0  0  0  0  0  0  0
    4.4634   -4.3168  -12.5958 C   0  0  0  0  0  0  0  0  0  0  0  0
    4.8627   -4.4222  -13.9180 C   0  0  0  0  0  0  0  0  0  0  0  0
    5.7391   -5.3713  -14.2732 F   0  0  0  0  0  0  0  0  0  0  0  0
    4.3625   -3.5472  -14.8818 C   0  0  0  0  0  0  0  0  0  0  0  0
    4.7702   -3.6669  -16.1511 F   0  0  0  0  0  0  0  0  0  0  0  0
    3.4521   -2.5510  -14.5610 C   0  0  0  0  0  0  0  0  0  0  0  0
    1.3424   -0.6005  -13.2353 C   0  0  0  0  0  0  0  0  0  0  0  0
    0.3704    0.2439  -12.6567 C   0  0  0  0  0  0  0  0  0  0  0  0
   -0.4527    0.9562  -12.2893 N   0  0  0  0  0  0  0  0  0  0  0  0
    1.3837   -0.3842  -14.6293 C   0  0  0  0  0  0  0  0  0  0  0  0
    1.3672   -0.1526  -15.7535 N   0  0  0  0  0  0  0  0  0  0  0  0
    2.9970   -2.9950  -10.9477 C   0  0  0  0  0  0  0  0  0  0  0  0
    3.2368   -3.6069   -9.9247 O   0  0  0  0  0  0  0  0  0  0  0  0
    1.8108   -2.1212   -7.9301 C   0  0  0  0  0  0  0  0  0  0  0  0
    0.4479   -3.6209   -1.9720 C   0  0  0  0  0  0  0  0  0  0  0  0
   -0.9427   -3.6282   -2.0038 C   0  0  0  0  0  0  0  0  0  0  0  0
   -1.6405   -4.8113   -2.1490 C   0  0  0  0  0  0  0  0  0  0  0  0
   -0.9719   -6.0237   -2.2643 C   0  0  0  0  0  0  0  0  0  0  0  0
   -1.7233   -7.3059   -2.4733 C   0  0  0  0  0  0  0  0  0  0  0  0
   -1.8715   -7.5989   -3.9680 C   0  0  0  0  0  0  0  0  0  0  0  0
    0.4152   -6.0122   -2.2365 C   0  0  0  0  0  0  0  0  0  0  0  0
    1.1189   -4.8289   -2.0974 C   0  0  0  0  0  0  0  0  0  0  0  0
    2.6451   -2.3937   -1.5663 C   0  0  0  0  0  0  0  0  0  0  0  0
    3.5887   -1.7057   -2.3173 C   0  0  0  0  0  0  0  0  0  0  0  0
    4.9366   -1.8038   -2.0212 C   0  0  0  0  0  0  0  0  0  0  0  0
    5.3828   -2.5845   -0.9647 C   0  0  0  0  0  0  0  0  0  0  0  0
    6.8416   -2.6543   -0.6195 C   0  0  0  0  0  0  0  0  0  0  0  0
    7.2113   -1.5368    0.3581 C   0  0  0  0  0  0  0  0  0  0  0  0
    4.4365   -3.2605   -0.2051 C   0  0  0  0  0  0  0  0  0  0  0  0
    3.0901   -3.1674   -0.4989 C   0  0  0  0  0  0  0  0  0  0  0  0
    0.4075   -1.6545    0.5690 C   0  0  0  0  0  0  0  0  0  0  0  0
   -0.2170   -0.6802    1.3432 C   0  0  0  0  0  0  0  0  0  0  0  0
   -1.4283    0.5558    4.4611 C   0  0  0  0  0  0  0  0  0  0  0  0
   -1.9801    1.4047    5.3782 N   0  0  0  0  0  0  0  0  0  0  0  0
   -2.6318    2.6656    5.1317 C   0  0  0  0  0  0  0  0  0  0  0  0
   -4.1479    2.5017    5.0644 C   0  0  0  0  0  0  0  0  0  0  0  0
   -1.1701   -1.2963    7.9677 S   0  0  0  0  0  0  0  0  0  0  0  0
   -3.8369    4.7437   12.0203 H   0  0  0  0  0  0  0  0  0  0  0  0
   -3.2021    1.1075   15.3685 H   0  0  0  0  0  0  0  0  0  0  0  0
   -1.7967   -1.0270   10.5354 H   0  0  0  0  0  0  0  0  0  0  0  0
   -2.7655    1.9997    8.2178 H   0  0  0  0  0  0  0  0  0  0  0  0
   -2.8806    3.7185    2.0341 H   0  0  0  0  0  0  0  0  0  0  0  0
   -5.2831    3.9194    1.6971 H   0  0  0  0  0  0  0  0  0  0  0  0
   -7.3267    2.9512    0.6966 H   0  0  0  0  0  0  0  0  0  0  0  0
   -7.4496    1.2056    0.4346 H   0  0  0  0  0  0  0  0  0  0  0  0
   -8.8421    1.9143    2.3681 H   0  0  0  0  0  0  0  0  0  0  0  0
   -7.5423    0.8444    2.9023 H   0  0  0  0  0  0  0  0  0  0  0  0
   -7.4146    2.5835    3.1652 H   0  0  0  0  0  0  0  0  0  0  0  0
   -5.5408   -0.2579    0.8860 H   0  0  0  0  0  0  0  0  0  0  0  0
   -3.1234   -0.4686    1.2116 H   0  0  0  0  0  0  0  0  0  0  0  0
   -1.3472    3.4792    0.1161 H   0  0  0  0  0  0  0  0  0  0  0  0
   -0.0261    5.5291    0.1609 H   0  0  0  0  0  0  0  0  0  0  0  0
    2.0488    6.5945    3.0203 H   0  0  0  0  0  0  0  0  0  0  0  0
    1.2763    7.1207    1.5175 H   0  0  0  0  0  0  0  0  0  0  0  0
    3.6952    5.2598    1.7031 H   0  0  0  0  0  0  0  0  0  0  0  0
    2.9247    5.7818    0.2056 H   0  0  0  0  0  0  0  0  0  0  0  0
    3.7398    6.9634    1.2360 H   0  0  0  0  0  0  0  0  0  0  0  0
    1.8015    4.2787    3.8037 H   0  0  0  0  0  0  0  0  0  0  0  0
    0.5025    2.2189    3.7576 H   0  0  0  0  0  0  0  0  0  0  0  0
   -1.0525    1.6228   -1.0332 H   0  0  0  0  0  0  0  0  0  0  0  0
    3.1104   -3.7549   -5.7893 H   0  0  0  0  0  0  0  0  0  0  0  0
    2.5268   -3.7128   -4.1112 H   0  0  0  0  0  0  0  0  0  0  0  0
    1.6947   -5.7466   -5.2828 H   0  0  0  0  0  0  0  0  0  0  0  0
    0.3423   -4.6900   -4.8689 H   0  0  0  0  0  0  0  0  0  0  0  0
    0.9497   -4.7417   -6.5299 H   0  0  0  0  0  0  0  0  0  0  0  0
    1.0053   -0.1546  -10.6106 H   0  0  0  0  0  0  0  0  0  0  0  0
    4.8478   -4.9894  -11.8457 H   0  0  0  0  0  0  0  0  0  0  0  0
    3.0987   -1.9010  -15.3440 H   0  0  0  0  0  0  0  0  0  0  0  0
    2.3450   -2.9978   -8.2454 H   0  0  0  0  0  0  0  0  0  0  0  0
   -1.4828   -2.6963   -1.9142 H   0  0  0  0  0  0  0  0  0  0  0  0
   -2.7207   -4.7932   -2.1713 H   0  0  0  0  0  0  0  0  0  0  0  0
   -2.7137   -7.2340   -2.0202 H   0  0  0  0  0  0  0  0  0  0  0  0
   -1.1879   -8.1298   -1.9974 H   0  0  0  0  0  0  0  0  0  0  0  0
   -2.4199   -6.7979   -4.4589 H   0  0  0  0  0  0  0  0  0  0  0  0
   -0.8937   -7.6812   -4.4376 H   0  0  0  0  0  0  0  0  0  0  0  0
   -2.4094   -8.5314   -4.1203 H   0  0  0  0  0  0  0  0  0  0  0  0
    0.9579   -6.9422   -2.3268 H   0  0  0  0  0  0  0  0  0  0  0  0
    2.1982   -4.8615   -2.0839 H   0  0  0  0  0  0  0  0  0  0  0  0
    3.2787   -1.0829   -3.1433 H   0  0  0  0  0  0  0  0  0  0  0  0
    5.6516   -1.2637   -2.6251 H   0  0  0  0  0  0  0  0  0  0  0  0
    7.0692   -3.6202   -0.1643 H   0  0  0  0  0  0  0  0  0  0  0  0
    7.4420   -2.5526   -1.5257 H   0  0  0  0  0  0  0  0  0  0  0  0
    6.9982   -0.5645   -0.0806 H   0  0  0  0  0  0  0  0  0  0  0  0
    6.6352   -1.6309    1.2759 H   0  0  0  0  0  0  0  0  0  0  0  0
    8.2692   -1.5827    0.6051 H   0  0  0  0  0  0  0  0  0  0  0  0
    4.7575   -3.8720    0.6260 H   0  0  0  0  0  0  0  0  0  0  0  0
    2.3810   -3.7171    0.1009 H   0  0  0  0  0  0  0  0  0  0  0  0
    0.7699   -2.5581    1.0318 H   0  0  0  0  0  0  0  0  0  0  0  0
   -2.3663    3.3500    5.9428 H   0  0  0  0  0  0  0  0  0  0  0  0
   -2.2473    3.0661    4.1925 H   0  0  0  0  0  0  0  0  0  0  0  0
   -4.5288    2.1225    6.0095 H   0  0  0  0  0  0  0  0  0  0  0  0
   -4.6132    3.4613    4.8602 H   0  0  0  0  0  0  0  0  0  0  0  0
   -4.4194    1.8083    4.2718 H   0  0  0  0  0  0  0  0  0  0  0  0
  1  2  2  0  0  0  0
  2  3  1  0  0  0  0
  3  4  1  0  0  0  0
  4  5  1  0  0  0  0
  5  6  2  0  0  0  0
  2  6  1  0  0  0  0
  6  7  1  0  0  0  0
  5  8  1  0  0  0  0
  8  9  2  0  0  0  0
  9 10  1  0  0  0  0
  9 11  1  0  0  0  0
  7 11  2  0  0  0  0
 11 12  1  0  0  0  0
  4 13  2  0  0  0  0
 13 14  1  0  0  0  0
 14 15  3  0  0  0  0
 13 16  1  0  0  0  0
 16 17  3  0  0  0  0
  3 18  2  0  0  0  0
 18 19  1  0  0  0  0
 19 20  2  0  0  0  0
 20 21  1  0  0  0  0
 21 22  2  0  0  0  0
 22 23  1  0  0  0  0
 23 24  1  0  0  0  0
 24 25  1  0  0  0  0
 25 26  2  0  0  0  0
 26 27  1  0  0  0  0
 27 28  1  0  0  0  0
 28 29  2  0  0  0  0
 29 30  1  0  0  0  0
 30 31  2  0  0  0  0
 31 32  1  0  0  0  0
 32 33  1  0  0  0  0
 31 34  1  0  0  0  0
 34 35  2  0  0  0  0
 28 35  1  0  0  0  0
 27 36  1  0  0  0  0
 36 37  2  0  0  0  0
 37 38  1  0  0  0  0
 38 39  2  0  0  0  0
 39 40  1  0  0  0  0
 40 41  1  0  0  0  0
 39 42  1  0  0  0  0
 42 43  2  0  0  0  0
 36 43  1  0  0  0  0
 27 44  1  0  0  0  0
 44 45  2  0  0  0  0
 45 46  1  0  0  0  0
 46 47  2  0  0  0  0
 47 48  1  0  0  0  0
 48 49  1  0  0  0  0
 49 50  2  0  0  0  0
 46 50  1  0  0  0  0
 50 51  1  0  0  0  0
 51 52  1  0  0  0  0
 52 53  2  0  0  0  0
 49 53  1  0  0  0  0
 53 54  1  0  0  0  0
 54 55  1  0  0  0  0
 55 56  1  0  0  0  0
 54 57  1  0  0  0  0
 57 58  2  0  0  0  0
 52 58  1  0  0  0  0
 58 59  1  0  0  0  0
 59 60  1  0  0  0  0
 60 61  1  0  0  0  0
 61 62  2  0  0  0  0
 62 63  1  0  0  0  0
 63 64  1  0  0  0  0
 64 65  2  0  0  0  0
 65 66  1  0  0  0  0
 66 67  2  0  0  0  0
 67 68  1  0  0  0  0
 67 69  1  0  0  0  0
 69 70  1  0  0  0  0
 69 71  2  0  0  0  0
 64 71  1  0  0  0  0
 63 72  2  0  0  0  0
 72 73  1  0  0  0  0
 73 74  3  0  0  0  0
 72 75  1  0  0  0  0
 75 76  3  0  0  0  0
 62 77  1  0  0  0  0
 65 77  1  0  0  0  0
 77 78  2  0  0  0  0
 60 79  2  0  0  0  0
 57 79  1  0  0  0  0
 48 80  1  0  0  0  0
 80 81  2  0  0  0  0
 81 82  1  0  0  0  0
 82 83  2  0  0  0  0
 83 84  1  0  0  0  0
 84 85  1  0  0  0  0
 83 86  1  0  0  0  0
 86 87  2  0  0  0  0
 80 87  1  0  0  0  0
 48 88  1  0  0  0  0
 88 89  2  0  0  0  0
 89 90  1  0  0  0  0
 90 91  2  0  0  0  0
 91 92  1  0  0  0  0
 92 93  1  0  0  0  0
 91 94  1  0  0  0  0
 94 95  2  0  0  0  0
 88 95  1  0  0  0  0
 47 96  1  0  0  0  0
 96 97  2  0  0  0  0
 25 97  1  0  0  0  0
 44 97  1  0  0  0  0
 23 98  2  0  0  0  0
 26 98  1  0  0  0  0
 98 99  1  0  0  0  0
 21 99  1  0  0  0  0
 99100  1  0  0  0  0
100101  1  0  0  0  0
 22102  1  0  0  0  0
 19102  1  0  0  0  0
  7103  1  0  0  0  0
  8104  1  0  0  0  0
 18105  1  0  0  0  0
 20106  1  0  0  0  0
 29107  1  0  0  0  0
 30108  1  0  0  0  0
 32109  1  0  0  0  0
 32110  1  0  0  0  0
 33111  1  0  0  0  0
 33112  1  0  0  0  0
 33113  1  0  0  0  0
 34114  1  0  0  0  0
 35115  1  0  0  0  0
 37116  1  0  0  0  0
 38117  1  0  0  0  0
 40118  1  0  0  0  0
 40119  1  0  0  0  0
 41120  1  0  0  0  0
 41121  1  0  0  0  0
 41122  1  0  0  0  0
 42123  1  0  0  0  0
 43124  1  0  0  0  0
 45125  1  0  0  0  0
 55126  1  0  0  0  0
 55127  1  0  0  0  0
 56128  1  0  0  0  0
 56129  1  0  0  0  0
 56130  1  0  0  0  0
 61131  1  0  0  0  0
 66132  1  0  0  0  0
 71133  1  0  0  0  0
 79134  1  0  0  0  0
 81135  1  0  0  0  0
 82136  1  0  0  0  0
 84137  1  0  0  0  0
 84138  1  0  0  0  0
 85139  1  0  0  0  0
 85140  1  0  0  0  0
 85141  1  0  0  0  0
 86142  1  0  0  0  0
 87143  1  0  0  0  0
 89144  1  0  0  0  0
 90145  1  0  0  0  0
 92146  1  0  0  0  0
 92147  1  0  0  0  0
 93148  1  0  0  0  0
 93149  1  0  0  0  0
 93150  1  0  0  0  0
 94151  1  0  0  0  0
 95152  1  0  0  0  0
 96153  1  0  0  0  0
100154  1  0  0  0  0
100155  1  0  0  0  0
101156  1  0  0  0  0
101157  1  0  0  0  0
101158  1  0  0  0  0
M  END
