158
INPIC-4F.mol
O         -3.14360        2.87580        9.96810
C         -3.04150        2.19920       10.97340
C         -2.63020        0.79290       11.12250
C         -2.74960        0.43390       12.52380
C         -3.13670        1.63700       13.26210
C         -3.31970        2.68230       12.34490
C         -3.69780        3.95070       12.73760
C         -3.33180        1.86660       14.61510
C         -3.70770        3.14150       15.01200
F         -3.89630        3.38440       16.31470
C         -3.89150        4.17250       14.09110
F         -4.25650        5.38840       14.51900
C         -2.59270       -0.80520       13.09030
C         -2.73920       -1.06550       14.46970
N         -2.83800       -1.35010       15.57740
C         -2.30060       -2.00910       12.41380
N         -2.08400       -3.04070       11.95730
C         -2.13300       -0.06530       10.16640
C         -1.95440        0.07590        8.78630
C         -2.28660        1.09380        7.89670
C         -1.91800        0.78460        6.60000
C         -1.29030       -0.48590        6.46230
C         -0.98150       -0.62650        5.11570
S         -0.22290       -1.75840        4.04280
C         -0.49950       -0.64880        2.74260
C         -1.14030        0.52890        3.09300
C         -1.33000        1.40420        1.87420
C         -2.81920        1.60770        1.63880
C         -3.44880        2.83630        1.77900
C         -4.81450        2.95180        1.58870
C         -5.59010        1.84830        1.26390
C         -7.07820        1.97400        1.11510
C         -7.76430        1.81950        2.47420
C         -4.95830        0.61750        1.13500
C         -3.59460        0.49820        1.31830
C         -0.53050        2.69290        1.93700
C         -0.65310        3.64150        0.92650
C          0.09060        4.80510        0.95460
C          0.98220        5.05950        1.98900
C          1.82190        6.30320        1.99290
C          3.12990        6.06330        1.23600
C          1.11140        4.10760        2.98990
C          0.36960        2.94010        2.96480
C         -0.72400        0.51670        0.78980
C         -0.64570        0.74180       -0.56380
C         -0.02130       -0.23250       -1.33780
C          0.51900       -1.41260       -0.77950
C          1.15990       -2.28120       -1.85940
C          0.86010       -1.46200       -3.09500
C          0.18880       -0.30030       -2.74850
S         -0.23550        0.73460       -4.07020
C          0.50430       -0.40620       -5.14650
C          1.04730       -1.53970       -4.47870
N          1.63730       -2.36780       -5.39120
C          2.22200       -3.66370       -5.15750
C          1.23580       -4.78270       -5.48180
C          1.46370       -1.80350       -6.62930
C          0.76330       -0.57060       -6.50080
S          0.53420        0.18700       -8.02070
C          1.38880       -1.14740       -8.83110
C          1.50050       -1.03600      -10.22090
C          2.13650       -1.81860      -11.15920
C          2.11740       -1.52280      -12.58000
C          3.04730       -2.44030      -13.23990
C          3.56120       -3.32160      -12.27720
C          4.46340       -4.31680      -12.59580
C          4.86270       -4.42220      -13.91800
F          5.73910       -5.37130      -14.27320
C          4.36250       -3.54720      -14.88180
F          4.77020       -3.66690      -16.15110
C          3.45210       -2.55100      -14.56100
C          1.34240       -0.60050      -13.23530
C          0.37040        0.24390      -12.65670
N         -0.45270        0.95620      -12.28930
C          1.38370       -0.38420      -14.62930
N          1.36720       -0.15260      -15.75350
C          2.99700       -2.99500      -10.94770
O          3.23680       -3.60690       -9.92470
C          1.81080       -2.12120       -7.93010
C          0.44790       -3.62090       -1.97200
C         -0.94270       -3.62820       -2.00380
C         -1.64050       -4.81130       -2.14900
C         -0.97190       -6.02370       -2.26430
C         -1.72330       -7.30590       -2.47330
C         -1.87150       -7.59890       -3.96800
C          0.41520       -6.01220       -2.23650
C          1.11890       -4.82890       -2.09740
C          2.64510       -2.39370       -1.56630
C          3.58870       -1.70570       -2.31730
C          4.93660       -1.80380       -2.02120
C          5.38280       -2.58450       -0.96470
C          6.84160       -2.65430       -0.61950
C          7.21130       -1.53680        0.35810
C          4.43650       -3.26050       -0.20510
C          3.09010       -3.16740       -0.49890
C          0.40750       -1.65450        0.56900
C         -0.21700       -0.68020        1.34320
C         -1.42830        0.55580        4.46110
N         -1.98010        1.40470        5.37820
C         -2.63180        2.66560        5.13170
C         -4.14790        2.50170        5.06440
S         -1.17010       -1.29630        7.96770
H         -3.83690        4.74370       12.02030
H         -3.20210        1.10750       15.36850
H         -1.79670       -1.02700       10.53540
H         -2.76550        1.99970        8.21780
H         -2.88060        3.71850        2.03410
H         -5.28310        3.91940        1.69710
H         -7.32670        2.95120        0.69660
H         -7.44960        1.20560        0.43460
H         -8.84210        1.91430        2.36810
H         -7.54230        0.84440        2.90230
H         -7.41460        2.58350        3.16520
H         -5.54080       -0.25790        0.88600
H         -3.12340       -0.46860        1.21160
H         -1.34720        3.47920        0.11610
H         -0.02610        5.52910        0.16090
H          2.04880        6.59450        3.02030
H          1.27630        7.12070        1.51750
H          3.69520        5.25980        1.70310
H          2.92470        5.78180        0.20560
H          3.73980        6.96340        1.23600
H          1.80150        4.27870        3.80370
H          0.50250        2.21890        3.75760
H         -1.05250        1.62280       -1.03320
H          3.11040       -3.75490       -5.78930
H          2.52680       -3.71280       -4.11120
H          1.69470       -5.74660       -5.28280
H          0.34230       -4.69000       -4.86890
H          0.94970       -4.74170       -6.52990
H          1.00530       -0.15460      -10.61060
H          4.84780       -4.98940      -11.84570
H          3.09870       -1.90100      -15.34400
H          2.34500       -2.99780       -8.24540
H         -1.48280       -2.69630       -1.91420
H         -2.72070       -4.79320       -2.17130
H         -2.71370       -7.23400       -2.02020
H         -1.18790       -8.12980       -1.99740
H         -2.41990       -6.79790       -4.45890
H         -0.89370       -7.68120       -4.43760
H         -2.40940       -8.53140       -4.12030
H          0.95790       -6.94220       -2.32680
H          2.19820       -4.86150       -2.08390
H          3.27870       -1.08290       -3.14330
H          5.65160       -1.26370       -2.62510
H          7.06920       -3.62020       -0.16430
H          7.44200       -2.55260       -1.52570
H          6.99820       -0.56450       -0.08060
H          6.63520       -1.63090        1.27590
H          8.26920       -1.58270        0.60510
H          4.75750       -3.87200        0.62600
H          2.38100       -3.71710        0.10090
H          0.76990       -2.55810        1.03180
H         -2.36630        3.35000        5.94280
H         -2.24730        3.06610        4.19250
H         -4.52880        2.12250        6.00950
H         -4.61320        3.46130        4.86020
H         -4.41940        1.80830        4.27180
