158
IOIC3.sdf
C          4.35760       -4.12870        7.21520
C          5.53670       -4.02320        7.91700
C          6.77280       -3.31300        7.53940
C          7.62860       -3.33470        8.74790
C          6.99100       -4.05490        9.76880
C          5.70770       -4.54270        9.26190
C          8.86750       -2.75060        8.92070
C          9.47610       -2.88980       10.15720
C          8.84780       -3.59830       11.18120
C          7.60570       -4.18980       11.00400
O          7.07870       -2.79870        6.48270
C          4.86960       -5.38160        9.95020
C          3.66280       -5.93740        9.47370
C          5.12030       -5.84690       11.25900
N          5.25770       -6.26080       12.32070
N          2.68090       -6.45220        9.17250
F          9.45450       -3.71090       12.36880
C         -5.02540        4.09430       -6.79190
C         -6.29260        4.50110       -7.14200
C         -7.58050        4.13920       -6.52170
C         -8.58930        5.01660       -7.15860
C         -7.97490        5.81820       -8.13200
C         -6.55050        5.48570       -8.17730
C         -9.94010        5.09500       -6.88420
C        -10.68980        6.00920       -7.60580
C        -10.08780        6.81450       -8.57260
C         -8.73150        6.73120       -8.85030
O         -7.82240        3.31230       -5.66580
C         -5.66160        6.00310       -9.08420
C         -4.29920        5.65830       -9.21620
C         -6.00110        6.96160      -10.06320
N         -6.20130        7.74320      -10.87960
N         -3.18990        5.43470       -9.41440
F        -10.83450        7.69370       -9.25120
F         10.67650       -2.33600       10.37250
F        -12.00360        6.12300       -7.37140
C          3.98610       -3.68120        5.94230
C          4.69370       -3.07090        4.90490
C          3.89020       -2.76730        3.82800
C          2.55000       -3.14230        4.01320
S          2.27750       -3.89260        5.51800
C          4.06990       -2.10760        2.47630
C          2.63810       -2.07170        1.99080
C          1.80680       -2.73320        2.88480
C          4.83230       -3.03890        1.53610
C          4.71810       -0.75520        2.67140
C          5.77490       -2.56430        0.63840
C          6.42840       -3.43270       -0.21690
C          6.15570       -4.79330       -0.20490
C          5.19960       -5.26200        0.68670
C          4.54220       -4.39830        1.54120
C          6.91120       -5.73950       -1.09210
C          8.17390       -6.23570       -0.38440
C          6.06930       -0.68310        2.99180
C          6.67990        0.54010        3.18770
C          5.95980        1.72360        3.07790
C          4.60360        1.64380        2.79480
C          3.98630        0.42070        2.60150
C          6.62250        3.04940        3.31700
C          6.60650        3.39200        4.80800
C          1.93590       -1.56430        0.87720
C          0.56590       -1.87590        0.96070
S          0.15910       -2.79890        2.38630
C          2.39660       -0.75320       -0.20640
C          1.47640       -0.27960       -1.10580
C          0.10030       -0.57700       -0.99620
C         -0.38600       -1.41520        0.03650
C         -0.86300       -0.02770       -1.85780
C         -2.23790       -0.28800       -1.72610
C         -2.68760       -1.18640       -0.71070
C         -1.76040       -1.72430        0.14260
O          3.71790       -0.47670       -0.23260
C          4.17560        0.48830       -1.16440
O         -4.02160       -1.38480       -0.67540
C         -4.56150       -2.38820        0.16280
S         -0.50410        1.09350       -3.14790
C         -2.19020        1.23300       -3.48110
C         -2.99090        0.45350       -2.65890
C         -3.00140        1.96000       -4.37840
C         -4.34590        1.63120       -4.14060
C         -4.45200        0.62530       -3.00970
C         -5.28630        1.24110       -1.90320
C         -4.98350       -0.71190       -3.51030
C         -4.42340       -1.26340       -4.65680
C         -4.84860       -2.48940       -5.13050
C         -5.84390       -3.20060       -4.47260
C         -6.39380       -2.64870       -3.32390
C         -5.97070       -1.42180       -2.84490
C         -6.64380        1.45760       -2.11720
C         -7.42700        2.03480       -1.13740
C         -6.88020        2.41670        0.08160
C         -5.52210        2.21820        0.28180
C         -4.73160        1.64340       -0.69790
C         -7.72860        3.07710        1.12960
C         -7.79770        4.58610        0.88690
C         -6.27620       -4.55320       -4.96070
C         -5.44800       -5.65470       -4.29570
S         -2.80910        3.11020       -5.61920
C         -4.56710        3.19020       -5.82690
C         -5.22060        2.31830       -4.95430
C         -4.31750       -3.78840       -0.38910
C          5.64420        0.77570       -0.89890
H          3.54490       -4.61300        7.74390
H          9.34680       -2.20260        8.12520
H          7.16450       -4.72400       11.82900
H         -4.21840        4.57820       -7.32950
H        -10.39890        4.47020       -6.13460
H         -8.31720        7.37790       -9.60580
H          5.74440       -2.86380        4.98070
H          6.00030       -1.51240        0.60940
H          7.16460       -3.04420       -0.90680
H          4.96400       -6.31640        0.71160
H          3.79830       -4.79270        2.21870
H          7.19270       -5.23520       -2.01870
H          6.28110       -6.59450       -1.34530
H          7.91290       -6.75120        0.53710
H          8.82150       -5.39810       -0.13500
H          8.72390       -6.92240       -1.02340
H          6.64960       -1.58930        3.07890
H          7.73280        0.57700        3.42670
H          4.01980        2.55080        2.72180
H          2.92760        0.39120        2.39160
H          7.65660        3.01430        2.96780
H          6.10030        3.83150        2.76190
H          7.09250        4.34870        4.98420
H          7.12820        2.62610        5.37720
H          5.58290        3.44950        5.17160
H          1.77270        0.35430       -1.92610
H         -2.05150       -2.38870        0.94090
H          4.04240        0.11240       -2.18780
H          3.59060        1.41090       -1.04940
H         -4.17500       -2.29200        1.18430
H         -5.63290       -2.17390        0.17940
H         -3.64690       -0.73000       -5.18720
H         -4.40250       -2.89870       -6.02570
H         -7.16930       -3.18520       -2.79470
H         -6.41210       -1.02090       -1.94670
H         -7.09460        1.16410       -3.05280
H         -8.48030        2.18900       -1.32190
H         -5.07160        2.51620        1.21820
H         -3.67720        1.51040       -0.51000
H         -8.73860        2.66280        1.10310
H         -7.30780        2.89040        2.11970
H         -6.80140        5.02130        0.92510
H         -8.41580        5.06540        1.64240
H         -8.22280        4.79220       -0.09270
H         -7.33210       -4.70970       -4.73130
H         -6.14930       -4.61280       -6.04330
H         -5.74650       -6.63170       -4.66810
H         -5.58860       -5.63830       -3.21700
H         -4.39010       -5.51160       -4.50520
H         -6.29030        2.23010       -4.94610
H         -4.70150       -3.84780       -1.40490
H         -3.25530       -4.01980       -0.40800
H         -4.82640       -4.52120        0.23050
H          5.96980        1.59600       -1.53260
H          5.78630        1.05300        0.14270
H          6.24880       -0.09860       -1.12090
