156
IOIC2.sdf
C          3.17620       -5.56420       -6.83220
C          4.48310       -5.49970       -7.26120
C          5.40070       -4.38410       -7.03250
C          6.67450       -4.76510       -7.67920
C          6.53690       -6.03640       -8.26100
C          5.17740       -6.52300       -8.01310
C          7.85220       -4.04840       -7.74360
C          8.92000       -4.62720       -8.41080
C          8.79450       -5.88880       -8.99160
C          7.60960       -6.60800       -8.92640
O          5.18230       -3.34320       -6.43900
C          4.69360       -7.74040       -8.41930
C          5.44600       -8.68820       -9.14500
C          3.39590       -8.23710       -8.17670
N          2.36510       -8.72010       -8.02090
N          6.00040       -9.50230       -9.73440
F          9.84160       -6.42460       -9.62950
C         -4.54450        4.75130        6.73720
C         -4.19960        5.57320        7.78560
C         -2.91750        6.25690        8.03800
C         -3.02080        6.80120        9.41120
C         -4.29160        6.52560        9.93750
C         -5.06790        5.80870        8.92540
C         -2.05610        7.47820       10.13030
C         -2.37850        7.88170       11.41560
C         -3.63720        7.60740       11.95040
C         -4.60730        6.93200       11.22470
O         -1.94790        6.37660        7.31640
C         -6.39440        5.48510        9.04850
C         -7.16920        5.75790       10.19640
C         -7.20180        4.87420        8.06480
N         -7.94200        4.40040        7.32500
N         -7.85550        5.94460       11.09730
F         -3.91990        8.00240       13.19730
F         10.08300       -3.96940       -8.49790
F         -1.47290        8.53810       12.15220
C          2.42470       -4.67210       -6.06560
C          1.09780       -4.95570       -5.69430
C          0.55190       -3.98450       -4.89260
C          1.44990       -2.93440       -4.64940
S          2.96870       -3.13420       -5.40160
C         -0.76210       -3.74760       -4.16680
C         -0.46970       -2.41970       -3.47990
C          0.81410       -2.00020       -3.80350
C         -1.86670       -3.57360       -5.20390
C         -0.94250       -4.90180       -3.19790
C         -3.04710       -4.30440       -5.20640
C         -3.99920       -4.09630       -6.18850
C         -3.80450       -3.15920       -7.19280
C         -2.62740       -2.42190       -7.18110
C         -1.67390       -2.62570       -6.20350
C         -4.85990       -2.91490       -8.23150
C         -5.87030       -1.87970       -7.73280
C         -0.76070       -4.74040       -1.83150
C         -0.87990       -5.81810       -0.97210
C         -1.17480       -7.08660       -1.45000
C         -1.32270       -7.25180       -2.82120
C         -1.20060       -6.17980       -3.68370
C         -1.26890       -8.25790       -0.51650
C          0.10970       -8.88940       -0.31190
C         -1.11400       -1.52640       -2.58320
C         -0.25090       -0.45500       -2.25900
S          1.29130       -0.52130       -3.06850
C         -2.40170       -1.55800       -1.97180
C         -2.71540       -0.59450       -1.05360
C         -1.82350        0.43080       -0.67670
C         -0.56970        0.53950       -1.32120
C         -2.08820        1.34510        0.35540
C         -1.18460        2.35690        0.74690
C          0.01940        2.50710       -0.00100
C          0.29860        1.60010       -0.98460
C         -3.42410       -2.60620       -2.30330
C         -3.86370       -3.41670       -1.08370
C          0.95850        3.65520        0.21230
C          0.61810        4.78490       -0.76290
S         -3.52250        1.26280        1.34330
C         -2.89100        2.52970        2.32030
C         -1.66110        3.02340        1.90510
C         -3.30760        3.18190        3.49960
C         -2.33190        4.11900        3.86400
C         -1.18230        4.09690        2.87100
C         -1.11870        5.45040        2.17140
C          0.07340        3.70820        3.63420
C          0.56290        4.55400        4.62530
C          1.68620        4.21260        5.35290
C          2.34940        3.01350        5.12580
C          1.84600        2.16260        4.15270
C          0.72070        2.49840        3.42140
C         -2.26290        5.89740        1.51830
C         -2.27780        7.11630        0.86980
C         -1.15010        7.92750        0.85340
C         -0.01160        7.47870        1.50640
C          0.00970        6.25640        2.15510
C         -1.17890        9.27290        0.18910
C         -1.62700       10.34800        1.18150
C          3.60150        2.66840        5.87790
C          4.83230        3.17090        5.11990
S         -4.62140        3.13220        4.58220
C         -3.85570        4.38300        5.57550
C         -2.64390        4.79870        5.02220
H          2.62170       -6.45250       -7.10920
H          7.94390       -3.07340       -7.29220
H          7.56660       -7.57850       -9.39240
H         -5.50660        4.26100        6.82890
H         -1.08440        7.68570        9.71140
H         -5.56230        6.74430       11.68650
H          0.60720       -5.85510       -6.01960
H         -3.23960       -5.04500       -4.44440
H         -4.90850       -4.67990       -6.17250
H         -2.45210       -1.68290       -7.94960
H         -0.76490       -2.04140       -6.21930
H         -5.38170       -3.84750       -8.45500
H         -4.39730       -2.55260       -9.15150
H         -6.63420       -1.70110       -8.48570
H         -6.35360       -2.22970       -6.82340
H         -5.37080       -0.93840       -7.51400
H         -0.52320       -3.76910       -1.42490
H         -0.74130       -5.66690        0.08920
H         -1.53360       -8.23330       -3.22060
H         -1.31030       -6.34010       -4.74560
H         -1.66170       -7.93110        0.44850
H         -1.94960       -9.00570       -0.92780
H          0.51320       -9.23330       -1.26160
H          0.80040       -8.16230        0.10940
H          0.04240       -9.73770        0.36490
H         -3.68580       -0.60950       -0.57890
H          1.22640        1.68350       -1.53290
H         -3.02910       -3.28380       -3.05100
H         -4.29880       -2.10930       -2.73340
H         -4.31270       -2.78180       -0.32470
H         -3.01380       -3.93290       -0.64480
H         -4.59690       -4.16130       -1.38410
H          0.89890        4.02230        1.23250
H          1.98200        3.32220        0.02840
H         -0.40200        5.12820       -0.60820
H          0.71450        4.44000       -1.79000
H          1.28840        5.62690       -0.61220
H          0.06670        5.48890        4.83260
H          2.04790        4.88780        6.11470
H          2.33530        1.21790        3.96340
H          0.35630        1.80390        2.68030
H         -3.15290        5.28400        1.51470
H         -3.17750        7.44110        0.36710
H          0.87860        8.09130        1.50670
H          0.91960        5.94010        2.64210
H         -0.18440        9.52190       -0.18640
H         -1.86910        9.25360       -0.65660
H         -0.94370       10.39150        2.02650
H         -2.62240       10.12380        1.55850
H         -1.64870       11.32330        0.70120
H          3.57690        3.12600        6.86860
H          3.67280        1.58600        6.00180
H          5.74110        2.92040        5.66170
H          4.78690        4.25090        4.99840
H          4.87990        2.71710        4.13240
H         -2.05220        5.56350        5.48730
