160
IOTIC-2F.mol
O         -5.26060       -1.91410       -9.90790
C         -4.62460       -1.30030      -10.74370
C         -3.67150       -0.18680      -10.56350
C         -3.16420        0.33330       -9.39470
C         -3.41790        0.02810       -8.05120
S         -2.41770        0.83260       -6.85620
C         -3.18720       -0.00320       -5.55620
C         -2.76310        0.14970       -4.21710
C         -3.21490       -0.53630       -3.09760
C         -2.49540       -0.20080       -1.95940
C         -1.51530        0.75650       -2.18770
S         -1.45590        1.25590       -3.82730
C         -0.76120        1.00610       -1.00270
C         -1.29160        0.16680        0.00720
C         -2.49620       -0.60540       -0.50690
C         -3.81300       -0.12980        0.08490
C         -3.91410        1.05080        0.80550
C         -5.14100        1.47300        1.28580
C         -6.29410        0.73730        1.05120
C         -7.61500        1.17710        1.61340
C         -7.81570        0.60410        3.01790
C         -6.18750       -0.44010        0.32100
C         -4.96560       -0.86690       -0.16040
C         -2.27830       -2.08500       -0.26580
C         -1.65640       -2.88510       -1.21350
C         -1.42300       -4.22390       -0.95650
C         -1.79070       -4.79380        0.25460
C         -1.57810       -6.25690        0.51590
C         -2.81310       -7.05880        0.10000
C         -2.40380       -3.98620        1.20390
C         -2.64340       -2.64940        0.95050
C         -0.68980        0.08070        1.23960
C          0.44100        0.86640        1.45270
C          0.93260        1.75400        0.46450
C          2.13740        2.52480        0.97990
C          2.33490        1.87810        2.32630
C          1.33300        0.94610        2.56370
S          1.54500        0.12300        4.05390
C          3.02540        1.02250        4.34640
C          3.82480        0.73290        5.47490
C          5.09400        1.26470        5.77800
O          5.63340        2.20610        4.97870
C          6.96340        2.62690        5.25070
C          7.36690        3.58890        4.14530
C          5.66340        0.70540        6.91600
C          4.87120       -0.26100        7.52290
C          5.05540       -1.07970        8.64480
C          6.14910       -1.28810        9.45340
C          7.51980       -0.75760        9.30840
C          8.33610       -1.47760       10.30710
C          7.51920       -2.34320       11.05180
C          6.14160       -2.20700       10.57630
C          5.05680       -2.81730       11.15250
C          3.70600       -2.65490       10.77770
N          2.58010       -2.57890       10.56190
C          5.13780       -3.69280       12.25630
N          5.12680       -4.41570       13.14810
C          8.07770       -3.13650       12.04010
C          9.44680       -3.02620       12.24340
F         10.01110       -3.79130       13.19270
C         10.26210       -2.17090       11.51780
C          9.69630       -1.38040       10.53030
O          7.94270        0.08680        8.54190
S          3.36010       -0.44180        6.65110
C          3.29210        1.92890        3.32910
C          3.40950        2.35180        0.17500
C          3.56470        1.33260       -0.75220
C          4.75770        1.18780       -1.43850
C          5.82600        2.04240       -1.20610
C          7.09970        1.91720       -1.99100
C          7.04130        2.79420       -3.24360
C          5.67120        3.04970       -0.26140
C          4.48140        3.20210        0.42240
C          1.72710        3.98610        1.06580
C          1.18200        4.51600        2.22640
C          0.77740        5.83780        2.27110
C          0.90040        6.66090        1.16030
C          0.42320        8.08400        1.19790
C         -1.03440        8.17180        0.74110
C          1.43380        6.12130       -0.00340
C          1.84070        4.80200       -0.05310
C          0.33530        1.83360       -0.77090
C         -4.20190       -0.85130       -6.04230
O         -4.93160       -1.58690       -5.17990
C         -5.94430       -2.42540       -5.72000
C         -6.60660       -3.14480       -4.55680
C         -4.32090       -0.82340       -7.42690
C         -3.24640        0.25590      -11.87860
C         -2.45960        1.33610      -12.18790
C         -2.09570        1.69740      -13.50270
N         -1.75490        2.04990      -14.54070
C         -1.91310        2.26780      -11.27970
N         -1.43530        3.08660      -10.63050
C         -4.67280       -1.55670      -12.19740
C         -3.84830       -0.63950      -12.86800
C         -3.72810       -0.70270      -14.24630
C         -4.44950       -1.69190      -14.90130
F         -4.34390       -1.77450      -16.23800
C         -5.27110       -2.59910      -14.24950
C         -5.38550       -2.53070      -12.87020
H         -2.40330        1.09540       -9.51330
H         -4.01050       -1.25380       -3.14690
H         -3.03330        1.64630        0.99630
H         -5.20160        2.39360        1.84880
H         -7.65230        2.26720        1.66130
H         -8.42530        0.83530        0.96640
H         -7.79280       -0.48310        2.98980
H         -7.02500        0.94550        3.68210
H         -8.77290        0.92120        3.42520
H         -7.07340       -1.02720        0.12440
H         -4.90040       -1.78600       -0.72450
H         -1.35340       -2.46220       -2.16040
H         -0.94210       -4.83360       -1.70840
H         -0.71200       -6.61220       -0.04580
H         -1.38630       -6.41840        1.57860
H         -3.01350       -6.92170       -0.96040
H         -3.68540       -6.72700        0.65870
H         -2.66090       -8.11860        0.29050
H         -2.69460       -4.40860        2.15520
H         -3.12850       -2.04020        1.69960
H         -1.05740       -0.57830        2.01090
H          7.63170        1.75720        5.26960
H          7.00440        3.12210        6.22920
H          7.30240        3.09300        3.17990
H          6.70350        4.44980        4.13900
H          8.38620        3.92680        4.30600
H          6.62840        0.96390        7.30930
H          4.17990       -1.67380        8.87840
H          7.50720       -3.82480       12.64080
H         11.31850       -2.13770       11.73240
H         10.29430       -0.70300        9.94090
H          4.15410        2.56670        3.33790
H          2.75180        0.64770       -0.94440
H          4.85870        0.39380       -2.16470
H          7.94670        2.22680       -1.37510
H          7.25330        0.87750       -2.28630
H          7.96470        2.70930       -3.81150
H          6.89660        3.83680       -2.96900
H          6.21290        2.49020       -3.87950
H          6.49300        3.72250       -0.06000
H          4.37570        3.99550        1.14840
H          1.07620        3.89690        3.10530
H          0.36220        6.23550        3.18630
H          0.50610        8.47600        2.21360
H          1.04270        8.69930        0.54220
H         -1.67110        7.57580        1.39130
H         -1.37940        9.20280        0.76620
H         -1.13600        7.79560       -0.27440
H          1.53550        6.74320       -0.88130
H          2.26430        4.40630       -0.96460
H          0.70790        2.48440       -1.54670
H         -5.49850       -3.14570       -6.41720
H         -6.67720       -1.81730       -6.26510
H         -5.87470       -3.74620       -4.02360
H         -7.03290       -2.42190       -3.86610
H         -7.39600       -3.79200       -4.92710
H         -5.02470       -1.40170       -7.99490
H         -3.10830       -0.03350      -14.81890
H         -5.80290       -3.34010      -14.82490
H         -6.01200       -3.21780      -12.32320
