IPIC-4Cl.sdf
  xtb     12202114323D
 energy: -269.536661270155 gnorm: 0.000599290642 xtb: 6.4.1 (unknown)
158174  0     0  0            999 V2000
    9.5811    2.8273    1.3881 C   0  0  0  0  0  0  0  0  0  0  0  0
   10.8522    2.3073    1.4896 C   0  0  0  0  0  0  0  0  0  0  0  0
   11.9960    3.0876    1.9274 C   0  0  0  0  0  0  0  0  0  0  0  0
   13.1288    2.1745    2.0761 C   0  0  0  0  0  0  0  0  0  0  0  0
   12.7199    0.8893    1.6888 C   0  0  0  0  0  0  0  0  0  0  0  0
   11.2971    0.9166    1.2861 C   0  0  0  0  0  0  0  0  0  0  0  0
   10.6712   -0.0468    0.8871 O   0  0  0  0  0  0  0  0  0  0  0  0
   12.0602    4.4424    2.1333 C   0  0  0  0  0  0  0  0  0  0  0  0
   13.2216    5.1203    2.5615 C   0  0  0  0  0  0  0  0  0  0  0  0
   14.1241    5.7385    2.9101 N   0  0  0  0  0  0  0  0  0  0  0  0
   11.0200    5.3756    1.9361 C   0  0  0  0  0  0  0  0  0  0  0  0
   10.2488    6.2147    1.7896 N   0  0  0  0  0  0  0  0  0  0  0  0
   14.4307    2.3776    2.5033 C   0  0  0  0  0  0  0  0  0  0  0  0
   15.2997    1.2919    2.5336 C   0  0  0  0  0  0  0  0  0  0  0  0
   14.8828    0.0163    2.1414 C   0  0  0  0  0  0  0  0  0  0  0  0
   13.5776   -0.1907    1.7137 C   0  0  0  0  0  0  0  0  0  0  0  0
   -9.7029   -4.0578   -0.1127 C   0  0  0  0  0  0  0  0  0  0  0  0
  -10.9667   -3.6947    0.2953 C   0  0  0  0  0  0  0  0  0  0  0  0
  -12.0906   -4.6141    0.3070 C   0  0  0  0  0  0  0  0  0  0  0  0
  -13.2117   -3.9393    0.9599 C   0  0  0  0  0  0  0  0  0  0  0  0
  -12.8190   -2.6315    1.2835 C   0  0  0  0  0  0  0  0  0  0  0  0
  -11.4171   -2.4121    0.8656 C   0  0  0  0  0  0  0  0  0  0  0  0
  -14.4912   -4.3668    1.2743 C   0  0  0  0  0  0  0  0  0  0  0  0
  -15.3552   -3.4775    1.9048 C   0  0  0  0  0  0  0  0  0  0  0  0
  -14.9552   -2.1749    2.2183 C   0  0  0  0  0  0  0  0  0  0  0  0
  -13.6723   -1.7440    1.9055 C   0  0  0  0  0  0  0  0  0  0  0  0
  -10.8073   -1.3685    1.0006 O   0  0  0  0  0  0  0  0  0  0  0  0
  -12.1490   -5.8765   -0.2267 C   0  0  0  0  0  0  0  0  0  0  0  0
  -11.1226   -6.5423   -0.9302 C   0  0  0  0  0  0  0  0  0  0  0  0
  -13.2901   -6.7048   -0.1697 C   0  0  0  0  0  0  0  0  0  0  0  0
  -14.1755   -7.4355   -0.1579 N   0  0  0  0  0  0  0  0  0  0  0  0
  -10.3634   -7.1629   -1.5291 N   0  0  0  0  0  0  0  0  0  0  0  0
    8.3686    2.2558    0.9856 C   0  0  0  0  0  0  0  0  0  0  0  0
    6.9315    3.2914    1.1593 S   0  0  0  0  0  0  0  0  0  0  0  0
    5.9334    2.0329    0.5597 C   0  0  0  0  0  0  0  0  0  0  0  0
    6.6938    0.8769    0.2259 C   0  0  0  0  0  0  0  0  0  0  0  0
    8.0507    1.0065    0.4619 C   0  0  0  0  0  0  0  0  0  0  0  0
    4.6073    1.7218    0.2864 C   0  0  0  0  0  0  0  0  0  0  0  0
    4.5874    0.3864   -0.2047 C   0  0  0  0  0  0  0  0  0  0  0  0
    5.8621   -0.1016   -0.2556 N   0  0  0  0  0  0  0  0  0  0  0  0
    3.0312    2.4414    0.3734 S   0  0  0  0  0  0  0  0  0  0  0  0
    2.3654    0.9619   -0.2337 C   0  0  0  0  0  0  0  0  0  0  0  0
    3.2883   -0.0360   -0.5020 C   0  0  0  0  0  0  0  0  0  0  0  0
    1.0334    0.5006   -0.4656 C   0  0  0  0  0  0  0  0  0  0  0  0
    1.1274   -0.8472   -0.8792 C   0  0  0  0  0  0  0  0  0  0  0  0
    2.5867   -1.2783   -1.0021 C   0  0  0  0  0  0  0  0  0  0  0  0
   -0.1900    1.1381   -0.2761 C   0  0  0  0  0  0  0  0  0  0  0  0
   -1.3279    0.3957   -0.4854 C   0  0  0  0  0  0  0  0  0  0  0  0
   -1.2317   -0.9695   -0.8364 C   0  0  0  0  0  0  0  0  0  0  0  0
   -0.0094   -1.6008   -1.0487 C   0  0  0  0  0  0  0  0  0  0  0  0
   -2.7886    0.8128   -0.3280 C   0  0  0  0  0  0  0  0  0  0  0  0
   -3.4812   -0.5203   -0.5028 C   0  0  0  0  0  0  0  0  0  0  0  0
   -2.5574   -1.5002   -0.8279 C   0  0  0  0  0  0  0  0  0  0  0  0
   -4.7699   -1.0554   -0.4113 C   0  0  0  0  0  0  0  0  0  0  0  0
   -4.7792   -2.4521   -0.6835 C   0  0  0  0  0  0  0  0  0  0  0  0
   -3.2083   -3.0898   -1.0479 S   0  0  0  0  0  0  0  0  0  0  0  0
   -6.0421   -0.6332   -0.1461 N   0  0  0  0  0  0  0  0  0  0  0  0
   -6.8596   -1.7333   -0.2071 C   0  0  0  0  0  0  0  0  0  0  0  0
   -6.0939   -2.8813   -0.5556 C   0  0  0  0  0  0  0  0  0  0  0  0
   -8.2055   -1.9911   -0.0154 C   0  0  0  0  0  0  0  0  0  0  0  0
   -8.5075   -3.3360   -0.2064 C   0  0  0  0  0  0  0  0  0  0  0  0
   -7.0715   -4.2854   -0.6571 S   0  0  0  0  0  0  0  0  0  0  0  0
    2.8889   -1.5738   -2.4610 C   0  0  0  0  0  0  0  0  0  0  0  0
    2.8783   -2.4396   -0.0648 C   0  0  0  0  0  0  0  0  0  0  0  0
   -3.0506    1.3497    1.0692 C   0  0  0  0  0  0  0  0  0  0  0  0
   -3.1323    1.7929   -1.4376 C   0  0  0  0  0  0  0  0  0  0  0  0
    3.5816   -3.5719   -0.4494 C   0  0  0  0  0  0  0  0  0  0  0  0
    3.8359   -4.5833    0.4604 C   0  0  0  0  0  0  0  0  0  0  0  0
    3.4074   -4.4894    1.7765 C   0  0  0  0  0  0  0  0  0  0  0  0
    2.7104   -3.3501    2.1605 C   0  0  0  0  0  0  0  0  0  0  0  0
    2.4512   -2.3399    1.2556 C   0  0  0  0  0  0  0  0  0  0  0  0
    2.3205   -2.6822   -3.0810 C   0  0  0  0  0  0  0  0  0  0  0  0
    2.5730   -2.9569   -4.4108 C   0  0  0  0  0  0  0  0  0  0  0  0
    3.3992   -2.1351   -5.1669 C   0  0  0  0  0  0  0  0  0  0  0  0
    3.9563   -1.0242   -4.5505 C   0  0  0  0  0  0  0  0  0  0  0  0
    3.7048   -0.7447   -3.2190 C   0  0  0  0  0  0  0  0  0  0  0  0
   -2.6025    0.6026    2.1538 C   0  0  0  0  0  0  0  0  0  0  0  0
   -2.8422    1.0218    3.4476 C   0  0  0  0  0  0  0  0  0  0  0  0
   -3.5346    2.2004    3.6981 C   0  0  0  0  0  0  0  0  0  0  0  0
   -3.9820    2.9414    2.6139 C   0  0  0  0  0  0  0  0  0  0  0  0
   -3.7482    2.5234    1.3156 C   0  0  0  0  0  0  0  0  0  0  0  0
   -2.5561    3.0593   -1.4520 C   0  0  0  0  0  0  0  0  0  0  0  0
   -2.8416    3.9560   -2.4629 C   0  0  0  0  0  0  0  0  0  0  0  0
   -3.7105    3.6198   -3.4932 C   0  0  0  0  0  0  0  0  0  0  0  0
   -4.2790    2.3546   -3.4814 C   0  0  0  0  0  0  0  0  0  0  0  0
   -3.9943    1.4527   -2.4714 C   0  0  0  0  0  0  0  0  0  0  0  0
   15.9839   -1.3015    2.1894 Cl  0  0  0  0  0  0  0  0  0  0  0  0
  -16.0499   -1.1022    2.9943 Cl  0  0  0  0  0  0  0  0  0  0  0  0
    6.2825   -1.4341   -0.6077 C   0  0  0  0  0  0  0  0  0  0  0  0
    6.5479   -2.2797    0.6348 C   0  0  0  0  0  0  0  0  0  0  0  0
   -6.4644    0.6789    0.2737 C   0  0  0  0  0  0  0  0  0  0  0  0
   -6.6429    0.7474    1.7879 C   0  0  0  0  0  0  0  0  0  0  0  0
    3.6473   -5.6093    2.7464 C   0  0  0  0  0  0  0  0  0  0  0  0
    2.4896   -6.6088    2.7018 C   0  0  0  0  0  0  0  0  0  0  0  0
    3.6388   -2.4128   -6.6221 C   0  0  0  0  0  0  0  0  0  0  0  0
    2.5692   -1.7306   -7.4776 C   0  0  0  0  0  0  0  0  0  0  0  0
   -3.8440    2.6294    5.1025 C   0  0  0  0  0  0  0  0  0  0  0  0
   -5.1920    2.0579    5.5477 C   0  0  0  0  0  0  0  0  0  0  0  0
   -3.9845    4.5788   -4.6147 C   0  0  0  0  0  0  0  0  0  0  0  0
   -2.9691    4.3825   -5.7424 C   0  0  0  0  0  0  0  0  0  0  0  0
   16.9150    1.5351    3.0663 Cl  0  0  0  0  0  0  0  0  0  0  0  0
  -16.9425   -4.0017    2.3021 Cl  0  0  0  0  0  0  0  0  0  0  0  0
    9.4753    3.8615    1.6935 H   0  0  0  0  0  0  0  0  0  0  0  0
   14.7911    3.3437    2.8153 H   0  0  0  0  0  0  0  0  0  0  0  0
   13.2397   -1.1686    1.4091 H   0  0  0  0  0  0  0  0  0  0  0  0
   -9.5863   -5.0973   -0.3956 H   0  0  0  0  0  0  0  0  0  0  0  0
  -14.8374   -5.3623    1.0515 H   0  0  0  0  0  0  0  0  0  0  0  0
  -13.3482   -0.7428    2.1419 H   0  0  0  0  0  0  0  0  0  0  0  0
    8.7961    0.2541    0.2857 H   0  0  0  0  0  0  0  0  0  0  0  0
   -0.2153    2.1627    0.0590 H   0  0  0  0  0  0  0  0  0  0  0  0
    0.0175   -2.6492   -1.2989 H   0  0  0  0  0  0  0  0  0  0  0  0
   -8.9537   -1.2709    0.2576 H   0  0  0  0  0  0  0  0  0  0  0  0
    3.9356   -3.6792   -1.4641 H   0  0  0  0  0  0  0  0  0  0  0  0
    4.3827   -5.4581    0.1390 H   0  0  0  0  0  0  0  0  0  0  0  0
    2.3695   -3.2519    3.1812 H   0  0  0  0  0  0  0  0  0  0  0  0
    1.9097   -1.4606    1.5749 H   0  0  0  0  0  0  0  0  0  0  0  0
    1.6857   -3.3483   -2.5176 H   0  0  0  0  0  0  0  0  0  0  0  0
    2.1238   -3.8271   -4.8678 H   0  0  0  0  0  0  0  0  0  0  0  0
    4.5994   -0.3657   -5.1168 H   0  0  0  0  0  0  0  0  0  0  0  0
    4.1530    0.1324   -2.7765 H   0  0  0  0  0  0  0  0  0  0  0  0
   -2.0606   -0.3163    1.9791 H   0  0  0  0  0  0  0  0  0  0  0  0
   -2.4851    0.4266    4.2758 H   0  0  0  0  0  0  0  0  0  0  0  0
   -4.5233    3.8611    2.7839 H   0  0  0  0  0  0  0  0  0  0  0  0
   -4.1137    3.1257    0.4969 H   0  0  0  0  0  0  0  0  0  0  0  0
   -1.8876    3.3561   -0.6591 H   0  0  0  0  0  0  0  0  0  0  0  0
   -2.3839    4.9349   -2.4491 H   0  0  0  0  0  0  0  0  0  0  0  0
   -4.9568    2.0662   -4.2721 H   0  0  0  0  0  0  0  0  0  0  0  0
   -4.4531    0.4758   -2.5009 H   0  0  0  0  0  0  0  0  0  0  0  0
    5.4974   -1.8847   -1.2166 H   0  0  0  0  0  0  0  0  0  0  0  0
    7.1945   -1.3571   -1.2072 H   0  0  0  0  0  0  0  0  0  0  0  0
    5.6536   -2.3385    1.2509 H   0  0  0  0  0  0  0  0  0  0  0  0
    7.3533   -1.8460    1.2222 H   0  0  0  0  0  0  0  0  0  0  0  0
    6.8325   -3.2856    0.3414 H   0  0  0  0  0  0  0  0  0  0  0  0
   -7.4117    0.9075   -0.2236 H   0  0  0  0  0  0  0  0  0  0  0  0
   -5.7111    1.3969   -0.0544 H   0  0  0  0  0  0  0  0  0  0  0  0
   -5.7113    0.4986    2.2905 H   0  0  0  0  0  0  0  0  0  0  0  0
   -7.4147    0.0524    2.1096 H   0  0  0  0  0  0  0  0  0  0  0  0
   -6.9351    1.7523    2.0779 H   0  0  0  0  0  0  0  0  0  0  0  0
    4.5770   -6.1238    2.4956 H   0  0  0  0  0  0  0  0  0  0  0  0
    3.7394   -5.2098    3.7583 H   0  0  0  0  0  0  0  0  0  0  0  0
    1.5544   -6.1165    2.9593 H   0  0  0  0  0  0  0  0  0  0  0  0
    2.3907   -7.0291    1.7034 H   0  0  0  0  0  0  0  0  0  0  0  0
    2.6606   -7.4202    3.4050 H   0  0  0  0  0  0  0  0  0  0  0  0
    4.6233   -2.0413   -6.9132 H   0  0  0  0  0  0  0  0  0  0  0  0
    3.6114   -3.4891   -6.8034 H   0  0  0  0  0  0  0  0  0  0  0  0
    2.7415   -1.9307   -8.5324 H   0  0  0  0  0  0  0  0  0  0  0  0
    2.5883   -0.6545   -7.3199 H   0  0  0  0  0  0  0  0  0  0  0  0
    1.5805   -2.0970   -7.2107 H   0  0  0  0  0  0  0  0  0  0  0  0
   -3.8796    3.7191    5.1580 H   0  0  0  0  0  0  0  0  0  0  0  0
   -3.0627    2.2775    5.7788 H   0  0  0  0  0  0  0  0  0  0  0  0
   -5.1757    0.9710    5.5059 H   0  0  0  0  0  0  0  0  0  0  0  0
   -5.9882    2.4122    4.8966 H   0  0  0  0  0  0  0  0  0  0  0  0
   -5.4157    2.3626    6.5671 H   0  0  0  0  0  0  0  0  0  0  0  0
   -4.9911    4.4153   -5.0046 H   0  0  0  0  0  0  0  0  0  0  0  0
   -3.9213    5.6054   -4.2486 H   0  0  0  0  0  0  0  0  0  0  0  0
   -3.0250    3.3675   -6.1294 H   0  0  0  0  0  0  0  0  0  0  0  0
   -3.1659    5.0764   -6.5560 H   0  0  0  0  0  0  0  0  0  0  0  0
   -1.9591    4.5529   -5.3761 H   0  0  0  0  0  0  0  0  0  0  0  0
  1  2  2  0  0  0  0
  2  3  1  0  0  0  0
  3  4  1  0  0  0  0
  4  5  2  0  0  0  0
  5  6  1  0  0  0  0
  6  2  1  0  0  0  0
  6  7  2  0  0  0  0
  3  8  2  0  0  0  0
  8  9  1  0  0  0  0
  9 10  3  0  0  0  0
  8 11  1  0  0  0  0
 11 12  3  0  0  0  0
  4 13  1  0  0  0  0
 13 14  2  0  0  0  0
 14 15  1  0  0  0  0
 15 16  2  0  0  0  0
 16  5  1  0  0  0  0
 17 18  2  0  0  0  0
 18 19  1  0  0  0  0
 19 20  1  0  0  0  0
 20 21  2  0  0  0  0
 21 22  1  0  0  0  0
 22 18  1  0  0  0  0
 20 23  1  0  0  0  0
 23 24  2  0  0  0  0
 24 25  1  0  0  0  0
 25 26  2  0  0  0  0
 26 21  1  0  0  0  0
 22 27  2  0  0  0  0
 19 28  2  0  0  0  0
 28 29  1  0  0  0  0
 28 30  1  0  0  0  0
 30 31  3  0  0  0  0
 29 32  3  0  0  0  0
  1 33  1  0  0  0  0
 33 34  1  0  0  0  0
 34 35  1  0  0  0  0
 35 36  2  0  0  0  0
 36 37  1  0  0  0  0
 37 33  2  0  0  0  0
 35 38  1  0  0  0  0
 38 39  2  0  0  0  0
 39 40  1  0  0  0  0
 40 36  1  0  0  0  0
 38 41  1  0  0  0  0
 41 42  1  0  0  0  0
 42 43  2  0  0  0  0
 43 39  1  0  0  0  0
 42 44  1  0  0  0  0
 44 45  2  0  0  0  0
 45 46  1  0  0  0  0
 46 43  1  0  0  0  0
 44 47  1  0  0  0  0
 47 48  2  0  0  0  0
 48 49  1  0  0  0  0
 49 50  2  0  0  0  0
 50 45  1  0  0  0  0
 48 51  1  0  0  0  0
 51 52  1  0  0  0  0
 52 53  2  0  0  0  0
 53 49  1  0  0  0  0
 52 54  1  0  0  0  0
 54 55  2  0  0  0  0
 55 56  1  0  0  0  0
 56 53  1  0  0  0  0
 54 57  1  0  0  0  0
 57 58  1  0  0  0  0
 58 59  2  0  0  0  0
 59 55  1  0  0  0  0
 58 60  1  0  0  0  0
 60 61  2  0  0  0  0
 61 62  1  0  0  0  0
 62 59  1  0  0  0  0
 61 17  1  0  0  0  0
 46 63  1  0  0  0  0
 46 64  1  0  0  0  0
 51 65  1  0  0  0  0
 51 66  1  0  0  0  0
 64 67  2  0  0  0  0
 67 68  1  0  0  0  0
 68 69  2  0  0  0  0
 69 70  1  0  0  0  0
 70 71  2  0  0  0  0
 71 64  1  0  0  0  0
 63 72  2  0  0  0  0
 72 73  1  0  0  0  0
 73 74  2  0  0  0  0
 74 75  1  0  0  0  0
 75 76  2  0  0  0  0
 76 63  1  0  0  0  0
 65 77  2  0  0  0  0
 77 78  1  0  0  0  0
 78 79  2  0  0  0  0
 79 80  1  0  0  0  0
 80 81  2  0  0  0  0
 81 65  1  0  0  0  0
 66 82  2  0  0  0  0
 82 83  1  0  0  0  0
 83 84  2  0  0  0  0
 84 85  1  0  0  0  0
 85 86  2  0  0  0  0
 86 66  1  0  0  0  0
 15 87  1  0  0  0  0
 25 88  1  0  0  0  0
 40 89  1  0  0  0  0
 89 90  1  0  0  0  0
 57 91  1  0  0  0  0
 91 92  1  0  0  0  0
 69 93  1  0  0  0  0
 93 94  1  0  0  0  0
 74 95  1  0  0  0  0
 95 96  1  0  0  0  0
 79 97  1  0  0  0  0
 97 98  1  0  0  0  0
 84 99  1  0  0  0  0
 99100  1  0  0  0  0
 14101  1  0  0  0  0
 24102  1  0  0  0  0
  1103  1  0  0  0  0
 13104  1  0  0  0  0
 16105  1  0  0  0  0
 17106  1  0  0  0  0
 23107  1  0  0  0  0
 26108  1  0  0  0  0
 37109  1  0  0  0  0
 47110  1  0  0  0  0
 50111  1  0  0  0  0
 60112  1  0  0  0  0
 67113  1  0  0  0  0
 68114  1  0  0  0  0
 70115  1  0  0  0  0
 71116  1  0  0  0  0
 72117  1  0  0  0  0
 73118  1  0  0  0  0
 75119  1  0  0  0  0
 76120  1  0  0  0  0
 77121  1  0  0  0  0
 78122  1  0  0  0  0
 80123  1  0  0  0  0
 81124  1  0  0  0  0
 82125  1  0  0  0  0
 83126  1  0  0  0  0
 85127  1  0  0  0  0
 86128  1  0  0  0  0
 89129  1  0  0  0  0
 89130  1  0  0  0  0
 90131  1  0  0  0  0
 90132  1  0  0  0  0
 90133  1  0  0  0  0
 91134  1  0  0  0  0
 91135  1  0  0  0  0
 92136  1  0  0  0  0
 92137  1  0  0  0  0
 92138  1  0  0  0  0
 93139  1  0  0  0  0
 93140  1  0  0  0  0
 94141  1  0  0  0  0
 94142  1  0  0  0  0
 94143  1  0  0  0  0
 95144  1  0  0  0  0
 95145  1  0  0  0  0
 96146  1  0  0  0  0
 96147  1  0  0  0  0
 96148  1  0  0  0  0
 97149  1  0  0  0  0
 97150  1  0  0  0  0
 98151  1  0  0  0  0
 98152  1  0  0  0  0
 98153  1  0  0  0  0
 99154  1  0  0  0  0
 99155  1  0  0  0  0
100156  1  0  0  0  0
100157  1  0  0  0  0
100158  1  0  0  0  0
M  END
