145
IPTBO-4Cl.sdf
C         -2.21320       -0.60880       -0.83520
C         -1.65830        0.18520        0.16020
C         -0.30020        0.50720       -0.13700
C          0.01750       -0.12890       -1.35960
C         -1.22240       -0.77880       -1.96640
C          0.64790        1.21560        0.59660
C          1.93580        1.22220        0.11570
C          2.27200        0.50690       -1.05910
C          1.30940       -0.14870       -1.82550
C          3.16680        1.86030        0.73530
C          4.25560        1.27630       -0.12840
C          3.69150        0.55850       -1.18490
C         -1.59410        0.05610       -3.18270
C         -0.98780       -2.24560       -2.26980
C         -0.82670       -0.02140       -4.34010
C         -1.13240        0.75070       -5.44410
C         -2.20810        1.62940       -5.42710
C         -2.95760        1.72310       -4.26330
C         -2.65480        0.95180       -3.15480
C         -1.42570       -2.85390       -3.43920
C         -1.20260       -4.20290       -3.65460
C         -0.54930       -4.98130       -2.70950
C         -0.12510       -4.37160       -1.53520
C         -0.34340       -3.02550       -1.31570
C         -2.51890        2.49390       -6.61400
C         -1.80520        3.84210       -6.49520
C         -0.26340       -6.43080       -2.97230
C          1.08660       -6.58730       -3.67570
C          3.24630        1.49440        2.20250
C          3.22020        3.36780        0.53100
C          3.91550        0.35520        2.62510
C          3.93600        0.01180        3.96470
C          3.28480        0.78980        4.91190
C          2.60600        1.92280        4.48140
C          2.58500        2.27220        3.14510
C          4.22430        4.09290        1.16230
C          4.33830        5.45370        0.95850
C          3.46100        6.12510        0.11510
C          2.46300        5.39470       -0.51360
C          2.34410        4.03020       -0.31530
C          3.26680        0.39160        6.35930
C          2.03260       -0.46060        6.66240
C          3.56440        7.61110       -0.07340
C          2.76820        8.34480        1.00760
C          5.63670        1.28920       -0.14470
C          6.15890        0.55960       -1.21160
S          4.86750       -0.10440       -2.22630
C         -3.50550       -1.01570       -0.48890
C         -3.89030       -0.50420        0.78240
S         -2.67340        0.47590        1.53010
N         -4.51350       -1.80130       -0.98260
C         -5.52530       -1.79430       -0.05610
C         -5.16070       -0.99460        1.06260
C         -6.76410       -2.38480        0.08740
C         -7.36170       -2.06810        1.31530
S         -6.36140       -0.98920        2.29310
C         -4.56260       -2.50100       -2.24150
C         -5.13930       -1.63250       -3.35710
C         -8.59700       -2.61200        1.67930
C         -9.32390       -2.49890        2.84170
C        -10.57650       -3.16900        3.12020
C        -10.96620       -2.81580        4.48600
C        -10.00070       -1.94650        5.02190
C         -8.94560       -1.70750        4.01510
C        -12.05260       -3.19060        5.25850
C        -12.15500       -2.69070        6.55280
C        -11.18920       -1.82530        7.07570
C        -10.09800       -1.44630        6.30320
O         -7.97050       -0.99250        4.15320
C        -11.29240       -3.99120        2.28660
C        -10.93830       -4.34430        0.96830
C        -12.51010       -4.60960        2.64000
N        -10.72760       -4.68380       -0.10930
N        -13.50210       -5.14500        2.85800
Cl       -13.49780       -3.15450        7.51870
Cl       -11.34710       -1.22830        8.67830
C          7.46600        0.23730       -1.60300
C          8.68230        0.44570       -0.99820
C          9.93920       -0.01770       -1.56110
C         10.98050        0.19110       -0.55650
C         10.40900        0.82880        0.55540
C          8.96480        1.04760        0.32060
O          8.21130        1.60980        1.08870
C         12.32900       -0.12620       -0.54500
C         13.08150        0.20230        0.57750
C         12.50320        0.84330        1.67800
C         11.15120        1.16170        1.66950
Cl        13.46380        1.23620        3.04640
Cl        14.75290       -0.19390        0.60270
C         10.15930       -0.52810       -2.81480
C         11.42080       -0.95470       -3.28280
C          9.20030       -0.68840       -3.83780
N          8.50160       -0.84690       -4.73610
N         12.41090       -1.32480       -3.73040
H          0.37890        1.70810        1.51800
H          1.59470       -0.67920       -2.72020
H          0.01170       -0.69950       -4.38540
H         -0.52580        0.66760       -6.33440
H         -3.79380        2.40640       -4.22020
H         -3.25350        1.05890       -2.26210
H         -1.93880       -2.27640       -4.19450
H         -1.54730       -4.65590       -4.57330
H          0.38130       -4.95850       -0.78260
H         -0.00770       -2.57010       -0.39470
H         -3.59600        2.66190       -6.67720
H         -2.19590        1.99530       -7.52990
H         -0.72860        3.69690       -6.44080
H         -2.12590        4.36250       -5.59550
H         -2.02870        4.46690       -7.35650
H         -1.04810       -6.85540       -3.60160
H         -0.24440       -6.98150       -2.02990
H          1.88440       -6.17980       -3.05890
H          1.08290       -6.05600       -4.62480
H          1.29610       -7.63700       -3.86620
H          4.42980       -0.26660        1.90660
H          4.46950       -0.87430        4.27790
H          2.09090        2.54160        5.20230
H          2.06160        3.16430        2.83170
H          4.91560        3.58700        1.81990
H          5.12500        6.00260        1.45570
H          1.77020        5.89610       -1.17460
H          1.56290        3.48470       -0.82470
H          4.16640       -0.17860        6.59870
H          3.25000        1.28400        6.98820
H          2.01600       -0.74700        7.71130
H          1.12450        0.09500        6.43940
H          2.03800       -1.36330        6.05540
H          3.17690        7.88750       -1.05600
H          4.61080        7.91820       -0.01970
H          1.71910        8.06080        0.96270
H          3.14890        8.09230        1.99470
H          2.84320        9.42100        0.87090
H          6.26570        1.77280        0.57870
H         -7.24350       -3.02800       -0.62870
H         -3.55150       -2.82360       -2.49780
H         -5.18490       -3.38880       -2.10100
H         -6.13530       -1.28550       -3.09140
H         -4.50300       -0.76870       -3.53530
H         -5.20520       -2.21050       -4.27450
H         -9.02030       -3.24520        0.90910
H        -12.81720       -3.85580        4.89270
H         -9.34440       -0.78040        6.69300
H          7.49890       -0.31290       -2.53610
H         12.81180       -0.62140       -1.37100
H         10.68940        1.65400        2.51070
