151
IPTTT-2F.sdf
C         -9.78380       -0.80310        1.01220
C        -10.57210       -1.13810        2.08870
C        -12.01820       -1.08600        2.12400
C        -12.43990       -1.49780        3.46430
C        -11.29640       -1.80030        4.22350
C        -10.09000       -1.59340        3.39410
O         -8.93880       -1.77300        3.74680
C        -12.86840       -0.72260        1.10960
C        -12.48700       -0.32420       -0.18790
N        -12.26810        0.01190       -1.26510
C        -14.27390       -0.69740        1.22430
N        -15.42100       -0.65040        1.24560
C        -13.69640       -1.61860        4.03950
C        -13.79020       -2.03790        5.35870
C        -12.64360       -2.32880        6.08150
C        -11.37320       -2.21820        5.53580
C         10.73880        1.64990       -1.05710
C         11.31990        2.30590       -2.11490
C         12.72220        2.65360       -2.23250
C         12.89150        3.36990       -3.49770
C         11.64470        3.44920       -4.14250
C         10.62050        2.78680       -3.30910
C         14.00910        3.93440       -4.09530
C         13.86460        4.56410       -5.32280
C         12.62200        4.62340       -5.93510
C         11.48530        4.07090       -5.36370
O          9.43840        2.67450       -3.57880
C         13.72980        2.37610       -1.34480
C         13.58970        1.68380       -0.12370
C         15.07780        2.74760       -1.53400
N         16.19000        3.01850       -1.62020
N         13.56820        1.13440        0.88510
C         -8.39430       -0.79220        0.86310
S         -7.20360       -1.25060        2.08570
C         -5.93620       -0.87300        0.98730
C         -6.41900       -0.41370       -0.26910
C         -7.79640       -0.37580       -0.33470
C         -4.54910       -0.84090        0.89690
C         -4.21540       -0.35440       -0.39770
N         -5.36760       -0.11760       -1.09990
S         -3.16600       -1.19680        1.87750
C         -2.15930       -0.66980        0.57400
C         -2.83040       -0.24200       -0.56310
C         -0.74600       -0.54140        0.41830
C         -0.51730       -0.00290       -0.86750
C         -1.83480        0.23010       -1.60220
C          0.29640       -0.84700        1.28900
C          1.57330       -0.57120        0.86000
C          1.80080       -0.00990       -0.41790
C          0.75900        0.26910       -1.29860
C          2.88380       -0.80390        1.59360
C          3.86800       -0.26230        0.59170
C          3.21070        0.18760       -0.54240
C          5.23920       -0.03530        0.51570
C          5.60810        0.58890       -0.69050
S          4.25120        0.88870       -1.73180
S          6.59400       -0.33600        1.56320
C          7.65580        0.39380        0.38350
C          6.97810        0.83900       -0.76950
C          9.01180        0.64150        0.34540
C          9.40530        1.28710       -0.83160
S          8.03870        1.57320       -1.90780
C         -1.93810       -0.66350       -2.82760
C         -1.92190        1.71630       -1.88920
C          3.03640       -0.00330        2.87340
C          3.02080       -2.29620        1.83640
C         -1.21780        2.27040       -2.95330
C         -1.24660        3.63160       -3.18660
C         -1.96490        4.48480       -2.35850
C         -2.64610        3.93340       -1.28280
C         -2.62130        2.57000       -1.04630
C         -2.49920       -0.24000       -4.02530
C         -2.61140       -1.11040       -5.09590
C         -2.17190       -2.42300       -5.00220
C         -1.62160       -2.84620       -3.79880
C         -1.50820       -1.98230       -2.72730
C          2.23810        1.09810        3.14500
C          2.43710        1.83660        4.29760
C          3.44210        1.50490        5.19570
C          4.24860        0.41060        4.90920
C          4.05240       -0.33320        3.76220
C          2.44080       -2.87060        2.96050
C          2.51520       -4.23440        3.16840
C          3.16740       -5.06050        2.26190
C          3.73770       -4.48220        1.13640
C          3.66340       -3.11810        0.92190
F        -12.77150       -2.73200        7.35750
F         12.51850        5.24030       -7.12420
C         -5.50830        0.34080       -2.45860
C         -5.73690        1.84840       -2.53790
C         -2.03820        5.95530       -2.64860
C         -3.19860        6.25240       -3.60080
C         -2.33230       -3.37480       -6.15160
C         -3.67190       -4.10820       -6.05580
C          3.62110        2.27800        6.47010
C          2.76750        1.66980        7.58500
C          3.20730       -6.54720        2.46660
C          1.99210       -7.20800        1.81230
H        -10.30470       -0.48060        0.11890
H        -14.59550       -1.39520        3.48990
H        -14.75230       -2.14150        5.83510
H        -10.48890       -2.44710        6.10870
H         11.39490        1.36310       -0.24430
H         14.98030        3.89640       -3.63070
H         14.71390        5.01320       -5.81300
H         10.52410        4.12520       -5.84940
H         -8.37910       -0.06190       -1.18220
H          0.09650       -1.27060        2.26070
H          0.96520        0.68630       -2.27120
H          9.70650        0.38210        1.12380
H         -0.64690        1.63330       -3.61230
H         -0.69630        4.03900       -4.02260
H         -3.20190        4.57720       -0.61590
H         -3.14860        2.17330       -0.19080
H         -2.83880        0.77950       -4.13990
H         -3.04610       -0.75760       -6.02040
H         -1.27430       -3.86460       -3.69980
H         -1.07660       -2.33430       -1.80130
H          1.45570        1.38210        2.45630
H          1.80240        2.68820        4.49800
H          5.04260        0.13920        5.58990
H          4.68850       -1.18220        3.55640
H          1.94000       -2.24450        3.68460
H          2.06220       -4.66380        4.05060
H          4.24920       -5.10600        0.41710
H          4.11220       -2.69410        0.03530
H         -4.60630        0.06190       -3.00540
H         -6.35890       -0.18640       -2.90150
H         -4.87710        2.38510       -2.14420
H         -6.61780        2.12880       -1.96520
H         -5.88660        2.14260       -3.57300
H         -1.10420        6.28950       -3.10460
H         -2.18350        6.51010       -1.71970
H         -4.14180        5.93940       -3.15810
H         -3.06590        5.71640       -4.53810
H         -3.25180        7.31710       -3.81460
H         -2.28840       -2.82760       -7.09530
H         -1.52130       -4.10560       -6.14160
H         -4.49550       -3.39810       -6.08120
H         -3.78550       -4.80140       -6.88570
H         -3.73140       -4.66790       -5.12500
H          3.32640        3.31820        6.31790
H          4.67070        2.25970        6.77010
H          3.05460        0.63530        7.75920
H          2.89610        2.22680        8.51000
H          1.71530        1.69090        7.30990
H          4.11920       -6.95740        2.02810
H          3.20870       -6.77470        3.53430
H          2.02110       -8.28550        1.95630
H          1.07230       -6.82350        2.24740
H          1.97770       -7.00000        0.74460
