160
IT-BT-ICN.sdf
C          3.93980       -2.25600        5.78500
C          4.59170       -1.56830        4.78240
C          3.95110       -1.70320        3.55340
C          2.79650       -2.50400        3.59570
S          2.52890       -3.12060        5.18080
C          2.10900       -2.51210        2.38460
C          0.83700       -3.09540        1.82950
C         -0.39860       -2.76510        2.64170
C         -1.53220       -3.56140        2.53980
C         -2.67200       -3.25290        3.25740
C         -2.71070       -2.14490        4.09390
C         -3.96140       -1.79410        4.84680
C         -4.86110       -0.89400        3.99760
C         -1.58110       -1.34260        4.17810
C         -0.44020       -1.64360        3.45780
C          1.04940       -4.59670        1.72200
C          1.00950       -5.36160        2.88210
C          1.23860       -6.72210        2.83260
C          1.51520       -7.35530        1.62680
C          1.80500       -8.82800        1.58310
C          3.29580       -9.08610        1.81130
C          1.56450       -6.58450        0.47410
C          1.33780       -5.22000        0.51750
C          0.77050       -2.39430        0.48330
C          1.94080       -1.63230        0.25300
C          2.74390       -1.73470        1.43130
S          4.20920       -0.99550        1.98440
C          2.11210       -0.88120       -0.90670
C          1.06810       -0.86210       -1.80120
C          0.95300       -0.05950       -3.08620
C          1.77240       -0.62820       -4.23300
C          1.84830        0.08920       -5.42130
C          2.53680       -0.41980       -6.50430
C          3.16390       -1.65810       -6.43260
C          3.94890       -2.18720       -7.59810
C          5.38130       -1.65030       -7.56610
C          3.08270       -2.37000       -5.24450
C          2.39020       -1.86710       -4.15690
C          1.30520        1.38700       -2.80770
C          0.34120        2.28920       -2.38180
C          0.68510        3.59600       -2.08840
C          1.99770        4.03200       -2.20380
C          2.38060        5.43720       -1.83920
C          2.84010        5.50340       -0.38130
C          2.96140        3.12060       -2.61660
C          2.62270        1.81490       -2.91440
C         -0.49430       -0.29080       -3.43060
C         -1.05910       -1.20940       -2.56250
C         -0.12810       -1.57130       -1.53950
C         -0.27670       -2.36820       -0.40730
S         -2.72890       -1.54430       -2.87690
C         -2.69200       -0.40040       -4.18790
C         -1.41970        0.16960       -4.36450
S         -1.43730        1.34030       -5.62740
C         -3.16180        1.08110       -5.88240
C         -3.66610        0.11050       -5.04300
C         -3.87220        1.88140       -6.82830
C         -3.22970        2.82420       -7.62450
C         -3.90390        3.64180       -8.52130
C         -5.27610        3.55970       -8.72740
C         -5.98150        2.64900       -7.89920
C         -5.28680        1.80520       -6.96360
N         -7.30130        2.50340       -7.81700
S         -7.63460        1.38200       -6.72090
N         -6.13020        1.04780       -6.26410
C          4.21770       -2.24070        7.18410
C          3.47500       -2.98580        8.09430
C          3.63060       -2.87300        9.46850
C          4.50070       -1.95970       10.05440
C          5.34400       -1.24460        9.16410
C          5.22080       -1.39720        7.73820
N          6.32700       -0.40870        9.49160
S          7.02050        0.13860        8.14650
N          6.11350       -0.65750        7.08590
C          4.53370       -1.79030       11.47390
C          4.88920       -0.69960       12.19860
C          5.20130       -0.85090       13.64880
C          5.90710        0.39180       14.02170
C          5.90700        1.27750       12.92780
C          5.14610        0.67760       11.83480
C          4.58770        1.36500       10.79120
O          4.95730       -1.80880       14.34570
C          4.84800        2.72080       10.50730
C          3.63460        0.82150        9.90650
N          2.82880        0.44880        9.17850
N          5.04310        3.81130       10.20570
C         -5.93480        4.41180       -9.67240
C         -7.03040        4.08580      -10.40650
C         -7.85110        4.98920      -11.19530
C         -8.93610        4.20220      -11.77730
C         -8.75900        2.85120      -11.43130
C         -7.53320        2.70100      -10.62230
C         -7.67780        6.33880      -11.35020
C         -6.63530        7.10380      -10.78540
C         -8.52170        7.16640      -12.12170
O         -6.99380        1.66020      -10.31820
C         -9.63890        1.87340      -11.85230
C        -10.72710        2.25660      -12.62310
C        -10.91160        3.58870      -12.96580
C        -10.02430        4.57340      -12.55330
C          6.54300        2.50390       13.03380
C          7.15780        2.82820       14.23580
C          7.14000        1.95780       15.31660
C          6.51400        0.72290       15.21770
N         -5.82440        7.80010      -10.36500
N         -9.15960        7.89870      -12.73400
H          5.47190       -0.98040        4.96210
H         -1.51810       -4.43590        1.90500
H         -3.54310       -3.88690        3.17110
H         -4.50550       -2.70470        5.10610
H         -3.70280       -1.27490        5.77170
H         -4.33790        0.02270        3.73470
H         -5.76480       -0.63430        4.54410
H         -5.14430       -1.40120        3.07790
H         -1.59060       -0.47240        4.81870
H          0.42310       -0.99890        3.53630
H          0.78960       -4.88560        3.82690
H          1.19960       -7.30240        3.74330
H          1.51370       -9.23490        0.61270
H          1.22920       -9.34100        2.35610
H          3.50540      -10.15300        1.79020
H          3.60460       -8.68990        2.77600
H          3.88650       -8.60020        1.03780
H          1.78100       -7.05610       -0.47410
H          1.38210       -4.64230       -0.39410
H          3.01340       -0.31070       -1.07010
H          1.36700        1.05400       -5.49300
H          2.58410        0.15000       -7.42120
H          3.47250       -1.88390       -8.53270
H          3.97240       -3.27820       -7.56450
H          5.95150       -2.03640       -8.40780
H          5.87630       -1.94900       -6.64460
H          5.37940       -0.56380       -7.61650
H          3.56240       -3.33550       -5.16730
H          2.33500       -2.44450       -3.24570
H         -0.68630        1.97200       -2.27640
H         -0.08030        4.28710       -1.76480
H          1.52640        6.10250       -1.97850
H          3.19030        5.78000       -2.48690
H          2.04300        5.17420        0.28160
H          3.11610        6.52100       -0.11490
H          3.70140        4.85750       -0.22560
H          3.99030        3.43830       -2.70890
H          3.38570        1.12390       -3.24300
H         -1.19310       -2.90840       -0.22530
H         -4.69900       -0.18230       -5.05320
H         -2.15740        2.92440       -7.53630
H         -3.33580        4.34520       -9.11240
H          2.72270       -3.66000        7.71130
H          2.99750       -3.46460       10.11320
H          4.27370       -2.66620       12.06130
H         -5.49800        5.39620       -9.78580
H         -9.47380        0.84340      -11.57600
H        -11.43590        1.51520      -12.96020
H        -11.76240        3.86960      -13.56840
H        -10.19140        5.59910      -12.83830
H          6.57510        3.19340       12.20570
H          7.65840        3.78040       14.32890
H          7.61950        2.24420       16.24050
H          6.49280        0.03110       16.04560
