144
IT-M.sdf
C          5.88390       -5.62680       -4.08200
O          5.85300       -4.60850       -3.41360
C          7.01250       -6.56310       -4.19400
C          8.24390       -6.52390       -3.56920
C          9.14770       -7.54050       -3.83320
C          8.83210       -8.58060       -4.70490
C          7.58710       -8.61020       -5.33280
C          6.67450       -7.60100       -5.07980
C          5.31860       -7.37110       -5.57950
C          4.67270       -8.15860       -6.49720
C          3.37560       -7.94270       -7.00760
N          2.33250       -7.84300       -7.47910
C          5.23060       -9.31570       -7.08070
N          5.61820      -10.26670       -7.59450
C          4.81730       -6.17240       -4.93510
C          3.54870       -5.66820       -5.05920
C          2.94200       -4.56420       -4.44090
C          1.58690       -4.27650       -4.62460
C          1.17510       -3.19220       -3.87570
C          2.21390       -2.61030       -3.11730
S          3.71030       -3.43110       -3.33370
C          1.75520       -1.55030       -2.33850
C          2.32510       -0.61170       -1.31030
C          3.24170        0.44480       -1.90490
C          4.09160        1.16560       -1.07560
C          4.89860        2.16050       -1.59300
C          4.87920        2.46300       -2.94860
C          5.72490        3.57340       -3.50190
C          4.96010        4.89800       -3.46100
C          4.02250        1.74480       -3.77100
C          3.21020        0.75030       -3.25780
C          3.03440       -1.43970       -0.25680
C          4.31770       -1.90420       -0.52090
C          4.97060       -2.71250        0.38810
C          4.36140       -3.07880        1.58190
C          5.09590       -3.91230        2.59220
C          5.91200       -3.01790        3.52780
C          3.07720       -2.61810        1.83610
C          2.41380       -1.81520        0.92510
C          1.06450        0.09130       -0.83800
C         -0.06120       -0.33210       -1.58520
C          0.39350       -1.34510       -2.48540
S         -0.36550       -2.41410       -3.61740
C         -1.33590        0.17770       -1.34940
C         -1.46860        1.09110       -0.33010
C         -2.73840        1.74660        0.18530
C         -3.28910        2.82250       -0.73750
C         -2.56390        3.31680       -1.81100
C         -3.08060        4.33700       -2.59020
C         -4.32000        4.89490       -2.31030
C         -4.89490        5.97420       -3.18130
C         -5.74200        5.36360       -4.29970
C         -5.03770        4.40000       -1.22800
C         -4.52980        3.37940       -0.44930
C         -3.77480        0.68200        0.48170
C         -3.85060        0.08130        1.73000
C         -4.78460       -0.90810        1.97610
C         -5.65440       -1.33220        0.98110
C         -6.70430       -2.36700        1.26480
C         -7.99990       -1.69610        1.72610
C         -5.56260       -0.73960       -0.27190
C         -4.63490        0.25300       -0.52150
C         -2.21330        2.45440        1.40580
C         -0.83610        2.32780        1.48690
C         -0.34860        1.48550        0.44040
C          0.93320        1.01200        0.17460
S         -0.12770        3.11880        2.85250
C         -1.71670        3.62000        3.35970
C         -2.72410        3.19800        2.46590
S         -4.27690        3.67890        3.01760
C         -3.56870        4.40880        4.46890
C         -2.18710        4.29860        4.47380
C         -4.48470        4.96240        5.38290
C         -4.32000        5.43600        6.65660
C         -5.41880        5.93090        7.47090
C         -6.66310        6.31030        7.04040
C         -7.67580        6.80140        7.89150
N         -8.54460        7.20390        8.52510
C         -7.11140        6.31750        5.70220
N         -7.55400        6.37670        4.64370
C         -4.94160        6.02920        8.84810
C         -5.59480        6.33920       10.02870
C         -4.87420        6.36240       11.22180
C         -3.50930        6.08000       11.21680
C         -2.84440        5.76360       10.04350
C         -3.56840        5.73590        8.86690
C         -3.10510        5.40960        7.50730
O         -1.95750        5.16960        7.19050
C         -5.57350        6.66580       12.50870
C          9.81520       -9.68050       -4.95110
H          8.48340       -5.71620       -2.89480
H         10.11680       -7.53150       -3.35590
H          7.35590       -9.42140       -6.00390
H          2.87180       -6.20930       -5.70970
H          0.95150       -4.85980       -5.26650
H          4.13290        0.93610       -0.02080
H          5.55720        2.70830       -0.93410
H          6.00100        3.34940       -4.53420
H          6.64110        3.66880       -2.91590
H          5.57140        5.70340       -3.86150
H          4.68590        5.14520       -2.43780
H          4.04870        4.82700       -4.05060
H          3.99090        1.96320       -4.82900
H          2.55180        0.20780       -3.92050
H          4.80890       -1.62960       -1.44260
H          5.96430       -3.06940        0.16120
H          5.76700       -4.60520        2.08080
H          4.38480       -4.49550        3.18080
H          5.25820       -2.32740        4.05600
H          6.44690       -3.61880        4.25970
H          6.63490       -2.43700        2.95940
H          2.58270       -2.89620        2.75620
H          1.40860       -1.48180        1.13940
H         -2.18160       -0.15500       -1.93130
H         -1.59180        2.90670       -2.04370
H         -2.50450        4.70870       -3.42580
H         -4.08860        6.56430       -3.62160
H         -5.51820        6.63990       -2.58120
H         -5.13500        4.70580       -4.91800
H         -6.55890        4.78110       -3.87990
H         -6.16030        6.14490       -4.92990
H         -6.00230        4.82290       -0.98780
H         -5.10130        3.00660        0.38860
H         -3.17820        0.38680        2.51870
H         -4.83560       -1.35890        2.95710
H         -6.35400       -3.04780        2.04320
H         -6.90260       -2.95060        0.36360
H         -8.76260       -2.44280        1.93370
H         -7.82470       -1.11700        2.63010
H         -8.37200       -1.02320        0.95690
H         -6.22640       -1.05940       -1.06250
H         -4.58620        0.70890       -1.49990
H          1.77480        1.33470        0.76750
H         -1.57320        4.68430        5.26630
H         -5.50240        4.95590        5.00880
H         -6.65070        6.55570       10.04590
H         -2.96470        6.10670       12.14940
H         -1.78850        5.54060       10.03440
H         -4.92420        7.21940       13.18300
H         -6.47980        7.23940       12.33330
H         -5.85320        5.73470       13.00300
H          9.71390      -10.44320       -4.17820
H          9.63740      -10.15280       -5.91380
H         10.83540       -9.30550       -4.91890
