146
IT-OM-4.sdf
C          1.44010        0.18010        9.12820
O          0.93590       -0.68370        8.44290
C          2.13490       -0.01520       10.41140
C          2.42990       -1.21620       11.06440
C          3.11580       -1.12850       12.28190
C          3.48280        0.09960       12.80200
C          3.18920        1.29200       12.15460
C          2.50740        1.22590       10.95140
C          2.05900        2.27990       10.04370
C          2.09790        3.62300       10.31460
C          1.57100        4.64470        9.49570
N          1.15100        5.53800        8.90800
C          2.63680        4.18080       11.49300
N          3.06190        4.70700       12.42090
C          1.50350        1.64210        8.86490
C          1.25260        2.30920        7.69680
C          0.73740        1.86530        6.46400
C          0.13520        0.68080        6.07190
C         -0.19180        0.68640        4.72400
C          0.14660        1.87690        4.04630
S          0.85770        3.01320        5.11950
C         -0.12570        1.80550        2.68270
C          0.01480        2.68470        1.46830
C         -0.93400        3.85660        1.66200
C         -2.17750        3.90940        1.05080
C         -3.02800        4.97390        1.29290
C         -2.66380        6.00110        2.15200
C         -3.60810        7.13050        2.44710
C         -4.48060        6.79400        3.65810
C         -1.42190        5.93420        2.77220
C         -0.56720        4.87680        2.53200
C          1.43120        3.15010        1.19810
C          2.52270        2.43690        1.67220
C          3.81000        2.85290        1.38550
C          4.03960        3.98340        0.61390
C          5.43620        4.41110        0.26630
C          5.86190        3.80660       -1.07320
C          2.94310        4.68410        0.12780
C          1.65520        4.27460        0.41360
C         -0.41510        1.72440        0.37200
C         -0.86190        0.49950        0.92160
C         -0.68080        0.58440        2.33640
S         -0.88970       -0.50540        3.66340
C         -1.29920       -0.55180        0.12060
C         -1.21450       -0.37990       -1.24040
C         -1.58240       -1.36440       -2.33570
C         -0.88710       -2.70910       -2.29480
C         -1.36090       -3.72490       -3.11790
C         -0.69340       -4.92970       -3.20170
C          0.45830       -5.15580       -2.45800
C          1.15770       -6.48290       -2.53090
C          0.47960       -7.49900       -1.60970
C          0.91950       -4.14390       -1.62790
C          0.26440       -2.92640       -1.55430
C         -3.09620       -1.50960       -2.30420
C         -3.68130       -2.43340       -1.44780
C         -5.05640       -2.54370       -1.36940
C         -5.88280       -1.73180       -2.13570
C         -7.37580       -1.88310       -2.08460
C         -7.84800       -2.87980       -3.14500
C         -5.29240       -0.80770       -2.98650
C         -3.91690       -0.69240       -3.06800
C         -1.08830       -0.62670       -3.54910
C         -0.64890        0.64080       -3.20880
C         -0.72490        0.82960       -1.79280
C         -0.34140        1.90120       -0.99010
S         -0.01240        1.54570       -4.54430
C         -0.27180        0.16110       -5.57740
C         -0.86140       -0.92190       -4.89110
S         -0.97960       -2.32640       -5.87330
C         -0.25000       -1.45960       -7.21910
C          0.04110       -0.13290       -6.89070
C          0.07440       -2.00850       -8.47070
C          0.07700       -3.31500       -8.88460
C          0.52730       -3.79210      -10.17510
C          0.75350       -3.04600      -11.30250
C          0.57540       -1.65040      -11.40670
N          0.44770       -0.52170      -11.57860
C          1.17260       -3.57970      -12.53900
N          1.51450       -3.94290      -13.57320
C          0.66390       -5.24660      -10.08120
C          1.13800       -6.17650      -10.99020
C          1.17100       -7.50930      -10.60080
C          0.75360       -7.92090       -9.34780
C          0.27120       -6.99610       -8.41390
C          0.23010       -5.65630       -8.80930
C         -0.22320       -4.48780       -8.04320
O         -0.74750       -4.49060       -6.94550
O         -0.14140       -7.29060       -7.17040
C         -0.09200       -8.62570       -6.72530
O          2.04090       -2.35760       10.47600
C          2.32570       -3.58740       11.09950
H          3.36840       -2.02260       12.82970
H          4.01510        0.12950       13.74090
H          3.49590        2.22960       12.58540
H          1.53660        3.35570        7.67870
H         -0.03120       -0.14030        6.74390
H         -2.48650        3.12060        0.38050
H         -3.99110        5.00420        0.80310
H         -3.04230        8.04090        2.65450
H         -4.24820        7.31440        1.58180
H         -5.06120        5.89390        3.46760
H         -5.16570        7.61090        3.87220
H         -3.86040        6.62150        4.53470
H         -1.11970        6.71910        3.45020
H          0.39770        4.84410        3.01730
H          2.37040        1.55050        2.27110
H          4.64850        2.29000        1.77030
H          6.12840        4.08540        1.04510
H          5.48380        5.50000        0.20030
H          5.82760        2.72040       -1.02580
H          5.19330        4.13440       -1.86610
H          6.87500        4.11220       -1.32410
H          3.09960        5.56480       -0.47860
H          0.81560        4.84010        0.03560
H         -1.65010       -1.47250        0.56030
H         -2.25660       -3.56830       -3.70030
H         -1.06160       -5.69300       -3.87030
H          2.20290       -6.37010       -2.23600
H          1.12940       -6.85160       -3.55860
H         -0.56120       -7.63360       -1.89560
H          0.98340       -8.46160       -1.66410
H          0.50750       -7.15110       -0.57940
H          1.81350       -4.30030       -1.04050
H          0.65700       -2.14380       -0.92100
H         -3.05600       -3.07890       -0.84850
H         -5.49500       -3.26980       -0.69960
H         -7.67910       -2.23670       -1.09720
H         -7.85180       -0.91660       -2.26280
H         -8.92960       -2.98840       -3.11100
H         -7.39480       -3.85420       -2.97630
H         -7.56370       -2.53860       -4.13790
H         -5.91610       -0.16560       -3.59210
H         -3.48400        0.03920       -3.73460
H          0.02500        2.81750       -1.42670
H          0.49150        0.55240       -7.58600
H          0.43890       -1.27160       -9.17730
H          1.48110       -5.89260      -11.97030
H          1.53860       -8.24920      -11.29580
H          0.80640       -8.96910       -9.09930
H         -0.46560       -8.60600       -5.70300
H         -0.73130       -9.27600       -7.33030
H          0.93190       -9.01270       -6.72930
H          3.40380       -3.74200       11.20980
H          1.91860       -4.34940       10.43730
H          1.84270       -3.66320       12.07870
