139
IT-OH.sdf
C          6.86590        2.80570        6.30210
O          5.65060        2.72740        6.27460
C          7.71280        2.79100        7.50870
C          7.33320        2.66470        8.83010
C          8.32580        2.67140        9.80020
C          9.65880        2.80260        9.43980
C         10.04350        2.93160        8.11110
C          9.06090        2.92610        7.13370
C          9.13660        3.03460        5.67600
C         10.29250        3.20240        4.95820
C         11.57820        3.28810        5.53320
N         12.65370        3.36470        5.92780
C         10.38800        3.32060        3.55580
N         10.56060        3.42620        2.42470
C          7.78400        2.93490        5.16300
C          7.42920        2.92060        3.83790
C          6.17380        2.77310        3.23140
C          6.03910        2.69080        1.84230
C          4.73180        2.48200        1.45400
C          3.82830        2.41990        2.53790
S          4.62290        2.61460        4.05150
C          2.52660        2.16500        2.11290
C          1.18530        1.92110        2.74990
C          0.57200        3.16850        3.36240
C         -0.47230        3.05000        4.27080
C         -1.07330        4.17630        4.79870
C         -0.65410        5.44840        4.43100
C         -1.27820        6.67020        5.04090
C         -0.54210        7.06260        6.32350
C          0.38730        5.56070        3.52030
C          0.99050        4.43670        2.98670
C          1.34640        0.81340        3.77380
C          1.86790        1.12400        5.02420
C          2.07930        0.13180        5.96090
C          1.77920       -1.19420        5.67490
C          1.95510       -2.26290        6.71480
C          0.68600       -2.39720        7.55910
C          1.26900       -1.49940        4.42080
C          1.06200       -0.51090        3.47520
C          0.35670        1.54450        1.53380
C          1.12420        1.64120        0.34850
C          2.44720        2.01440        0.73810
S          3.95510        2.22400       -0.08710
C          0.59240        1.33300       -0.90170
C         -0.70430        0.87850       -0.93810
C         -1.51580        0.43110       -2.14140
C         -1.77920        1.66700       -2.98730
C         -2.93940        2.41320       -2.84310
C         -3.14190        3.54780       -3.60760
C         -2.19200        3.96870       -4.52750
C         -2.39880        5.22270       -5.32700
C         -1.85330        6.43550       -4.57040
C         -1.02580        3.22510       -4.65770
C         -0.81980        2.08930       -3.89890
C         -0.94410       -0.70130       -2.96890
C          0.00750       -1.57580       -2.46880
C          0.39980       -2.67650       -3.21230
C         -0.15480       -2.93260       -4.45800
C          0.19960       -4.16500       -5.23880
C         -0.92590       -5.19650       -5.13540
C         -1.10230       -2.04680       -4.95690
C         -1.49370       -0.94690       -4.22280
C         -2.75070       -0.09570       -1.46330
C         -2.71440        0.16590       -0.10490
C         -1.46980        0.77330        0.25020
C         -0.95380        1.13010        1.49300
S         -4.07340       -0.46170        0.77020
C         -4.66730       -1.17280       -0.71040
C         -3.84410       -0.88160       -1.81990
S         -4.33780       -1.72420       -3.23330
C         -5.67210       -2.45130       -2.34550
C         -5.71090       -2.02430       -1.01520
C         -6.58230       -3.39300       -2.85100
C         -6.56410       -4.09370       -4.02890
C         -7.51630       -5.11190       -4.41790
C         -8.73940       -5.36240       -3.85170
C         -9.63240       -6.36070       -4.29360
N        -10.40610       -7.15350       -4.59590
C         -9.30060       -4.64880       -2.77170
N         -9.83260       -4.11640       -1.90380
C         -6.95940       -5.81490       -5.57460
C         -7.42110       -6.91330       -6.27800
C         -6.65760       -7.38030       -7.34160
C         -5.46670       -6.77740       -7.69800
C         -4.98390       -5.66740       -6.99770
C         -5.74940       -5.19470       -5.93480
C         -5.48870       -4.05990       -5.03590
O         -4.57590       -3.26040       -5.11320
O         -3.82370       -5.06670       -7.31010
H          6.28960        2.56340        9.08580
H          8.06060        2.57320       10.84210
H         10.41890        2.80460       10.20660
H         11.08750        3.03070        7.86360
H          8.23500        3.00720        3.11880
H          6.87720        2.76530        1.17280
H         -0.80840        2.06980        4.57640
H         -1.88330        4.06580        5.50580
H         -1.23500        7.50050        4.33300
H         -2.32670        6.47350        5.27360
H          0.50360        7.27280        6.11010
H         -0.99210        7.94890        6.76490
H         -0.58630        6.25230        7.04780
H          0.72970        6.54070        3.21960
H          1.79380        4.55270        2.27380
H          2.10640        2.14900        5.26660
H          2.48990        0.39260        6.92530
H          2.79510       -2.01120        7.36510
H          2.16930       -3.21900        6.23280
H          0.80950       -3.17110        8.31320
H          0.46360       -1.45690        8.05870
H         -0.16130       -2.65810        6.92890
H          1.03470       -2.52560        4.17500
H          0.67480       -0.77640        2.50220
H          1.19590        1.41390       -1.79230
H         -3.69660        2.10730       -2.13610
H         -4.05650        4.11140       -3.48930
H         -3.46390        5.36790       -5.51850
H         -1.88720        5.13810       -6.28780
H         -2.36060        6.54420       -3.61430
H         -2.00290        7.34410       -5.14900
H         -0.78920        6.31520       -4.38010
H         -0.27200        3.53570       -5.36710
H          0.08530        1.51410       -4.02840
H          0.43920       -1.40490       -1.49270
H          1.14110       -3.35160       -2.80770
H          0.34940       -3.90320       -6.28880
H          1.12800       -4.59650       -4.85870
H         -0.68180       -6.08570       -5.71340
H         -1.85810       -4.77800       -5.50760
H         -1.07340       -5.48850       -4.09770
H         -1.55460       -2.23060       -5.91950
H         -2.23730       -0.27360       -4.62260
H         -1.55390        1.04360        2.38550
H         -6.45460       -2.36380       -0.31700
H         -7.37820       -3.63130       -2.15470
H         -8.34090       -7.40890       -6.01860
H         -7.00190       -8.23710       -7.90050
H         -4.89320       -7.16580       -8.52920
H         -3.40550       -5.50100       -8.06480
