146
IT-OM-1.sdf
C         -4.92920        6.94880       -4.38500
O         -4.50630        6.67520       -3.27600
C         -5.98040        7.93590       -4.69460
C         -6.72720        8.69350       -3.81620
C         -7.72020        9.50320       -4.34850
C         -7.98070        9.51120       -5.70760
C         -7.23680        8.73450       -6.60330
C         -6.17990        7.97450       -6.08420
C         -5.19870        7.10990       -6.72910
C         -4.85570        7.10450       -8.05570
C         -3.87050        6.27090       -8.62970
N         -3.09380        5.63090       -9.18420
C         -5.32120        7.98910       -9.05400
N         -5.55080        8.67860       -9.94320
C         -4.53090        6.36460       -5.67010
C         -3.71950        5.27550       -5.84180
C         -3.04450        4.48520       -4.89670
C         -2.31770        3.35330       -5.27110
C         -1.74680        2.71360       -4.18790
C         -2.01400        3.35210       -2.95860
S         -2.99290        4.75250       -3.15750
C         -1.45050        2.66690       -1.88410
C         -1.35430        2.84070       -0.39270
C         -2.69410        2.80890        0.31630
C         -3.80130        2.21170       -0.26840
C         -5.00830        2.16220        0.40440
C         -5.13690        2.69380        1.67990
C         -6.46100        2.68650        2.38760
C         -7.23500        3.96990        2.07950
C         -4.02150        3.27810        2.26640
C         -2.81460        3.33440        1.59660
C         -0.61750        4.14570       -0.14300
C          0.74140        4.18270        0.13090
C          1.38740        5.39570        0.29310
C          0.69960        6.59470        0.17140
C          1.39520        7.90850        0.38410
C          1.28190        8.34440        1.84630
C         -0.66000        6.54990       -0.11250
C         -1.31210        5.34310       -0.27030
C         -0.56510        1.60050       -0.01220
C         -0.22250        0.84570       -1.15990
C         -0.76410        1.53540       -2.28910
S         -0.78200        1.27160       -4.00120
C          0.48800       -0.34860       -1.07060
C          0.83430       -0.78160        0.18800
C          1.59570       -2.03820        0.57360
C          0.85120       -3.32970        0.28250
C         -0.50130       -3.34760       -0.02340
C         -1.15350       -4.55020       -0.23170
C         -0.47740       -5.75770       -0.13060
C         -1.19720       -7.06340       -0.31060
C         -1.68800       -7.59160        1.03880
C          0.87380       -5.73280        0.19280
C          1.53180       -4.53640        0.39740
C          2.95480       -2.01410       -0.09960
C          4.05910       -1.45660        0.52830
C          5.28440       -1.41920       -0.11140
C          5.43640       -1.92850       -1.39370
C          6.75970       -1.85320       -2.09920
C          6.88780       -0.53130       -2.85880
C          4.32330       -2.46870       -2.02470
C          3.09780       -2.51220       -1.38840
C          1.65510       -1.88570        2.06980
C          0.99860       -0.73400        2.46790
C          0.49260       -0.02560        1.33480
C         -0.21270        1.17140        1.24550
S          0.97310       -0.48720        4.18190
C          1.86080       -1.97530        4.38210
C          2.14850       -2.60890        3.15440
S          3.01980       -4.07620        3.37550
C          3.00410       -3.83840        5.11970
C          2.34220       -2.66270        5.47890
C          3.58000       -4.68180        6.08380
C          4.22850       -5.87930        5.94450
C          4.81280       -6.66610        7.02240
C          5.12550       -6.20520        8.27470
C          5.90080       -6.86350        9.25540
N          6.56750       -7.23830       10.11210
C          4.81330       -4.91650        8.76140
N          4.60080       -3.89590        9.24490
C          5.14590       -7.97030        6.46170
C          5.53800       -9.17180        7.06730
C          5.84330      -10.25260        6.23230
C          5.72350      -10.16390        4.85640
C          5.26200       -9.00300        4.25290
C          4.97290       -7.92850        5.06860
C          4.41120       -6.61800        4.69070
O          4.13930       -6.25230        3.56110
O          5.54650       -9.21980        8.41050
C          6.03780      -10.36040        9.07660
O         -7.49800        8.62670       -7.91770
C         -8.48580        9.43780       -8.51140
H         -6.53650        8.64490       -2.75620
H         -8.31820       10.12220       -3.69680
H         -8.78600       10.12490       -6.07880
H         -3.58390        4.92290       -6.85720
H         -2.22830        3.03300       -6.29350
H         -3.72530        1.78380       -1.25750
H         -5.86270        1.70040       -0.06990
H         -7.04930        1.82490        2.06530
H         -6.30510        2.61010        3.46570
H         -6.67150        4.83940        2.41040
H         -7.40420        4.06090        1.00880
H         -8.19770        3.96550        2.58550
H         -4.09890        3.69440        3.26080
H         -1.96170        3.80300        2.06590
H          1.30240        3.26350        0.21820
H          2.44630        5.40720        0.51000
H          0.94500        8.67150       -0.25410
H          2.44980        7.81720        0.11640
H          1.73780        7.60270        2.49840
H          0.23710        8.45210        2.12870
H          1.78350        9.29720        1.99970
H         -1.21510        7.47050       -0.21950
H         -2.36860        5.32950       -0.49420
H          0.74110       -0.90890       -1.95720
H         -1.05210       -2.42150       -0.10200
H         -2.20630       -4.54650       -0.47650
H         -2.05120       -6.92830       -0.97740
H         -0.52470       -7.79700       -0.76000
H         -0.84840       -7.73960        1.71420
H         -2.37270       -6.88070        1.49620
H         -2.20490       -8.54020        0.91230
H          1.41940       -6.66040        0.28660
H          2.58300       -4.53860        0.64500
H          3.96720       -1.05290        1.52610
H          6.13660       -0.99140        0.39710
H          6.85110       -2.68280       -2.80320
H          7.57110       -1.93070       -1.37270
H          6.81300        0.30870       -2.17180
H          7.84580       -0.47760       -3.37070
H          6.09370       -0.44040       -3.59650
H          4.41830       -2.86680       -3.02500
H          2.24830       -2.95220       -1.89040
H         -0.46880        1.73010        2.13240
H          2.23480       -2.34590        6.50070
H          3.45810       -4.30770        7.09310
H          6.16980      -11.18390        6.66720
H          5.97480      -11.02260        4.25230
H          5.12760       -8.92840        3.18580
H          7.05840      -10.59600        8.76360
H          5.38910      -11.22680        8.91550
H          6.03970      -10.09140       10.13130
H         -9.48430        9.18570       -8.14110
H         -8.42280        9.22500       -9.57690
H         -8.28360       10.49900       -8.34400
