135
IT6-4F.sdf
C         -1.10550        0.93170        0.58390
C          0.28670        1.11660        0.77010
C         -1.76340        1.65900        1.62000
C         -0.83260        2.28580        2.45050
C          0.55980        2.08010        1.91170
C          1.04400        3.44340        1.43640
C          1.53810        1.45880        2.88730
C          1.01570        3.81470        0.10080
C          1.42420        5.08070       -0.28100
C          1.86300        6.00420        0.65700
C          1.87800        5.62890        1.99510
C          1.47220        4.36730        2.38250
C          2.90440        1.58200        2.66550
C          3.80990        0.98840        3.52310
C          3.37760        0.25540        4.62110
C          2.01160        0.12970        4.83330
C          1.10030        0.71680        3.97440
C          2.26000        7.39220        0.24540
C          1.05410        8.33210        0.30700
C          4.36640       -0.33780        5.58220
C          4.74510        0.68630        6.65420
S         -3.36810        1.88000        2.15010
C         -2.79180        2.80630        3.54480
C         -1.40450        2.93980        3.52490
C         -3.78130        3.22950        4.44460
C         -3.70130        3.81790        5.68310
C         -2.49730        4.12020        6.48290
C         -2.99780        4.52500        7.81620
C         -4.40070        4.52950        7.81680
C         -4.86870        4.14450        6.48530
O         -1.32700        4.06170        6.16780
C         -6.18080        4.14900        6.09020
C         -6.66740        3.85940        4.79680
C         -7.25890        4.48280        6.93870
N         -7.15700        3.65720        3.77760
N         -8.18110        4.73630        7.57280
C         -2.25870        4.85250        8.93560
C         -2.95200        5.18680       10.08720
C         -4.34720        5.18880       10.10010
C         -5.08800        4.86470        8.97340
F         -4.99150        5.50880       11.22790
C         -1.98080       -2.57280       -1.90050
C         -1.40670       -0.84420       -3.62880
C         -3.34060       -2.32760       -2.04540
C         -4.26890       -3.25830       -1.62100
C         -3.86650       -4.45390       -1.03940
C         -2.50670       -4.68850       -0.88760
C         -1.57320       -3.75770       -1.30510
C         -1.81320       -1.63270       -4.69880
C         -2.15290       -1.05450       -5.90590
C         -2.09140        0.32300       -6.07870
C         -1.68450        1.10420       -5.00620
C         -1.33850        0.53060       -3.79550
C         -4.87690       -5.48720       -0.63440
C         -5.18510       -6.41800       -1.80920
C         -2.50070        0.95260       -7.37840
C         -3.99990        1.25890       -7.37510
C          2.30990       -5.97050       -5.46930
C          3.38770       -6.78430       -5.71150
C          4.71490       -6.76930       -5.06220
C          5.38640       -8.01190       -5.50480
C          4.56410       -8.70150       -6.40900
C          3.33690       -7.93050       -6.60450
O          5.19510       -5.94530       -4.31280
C          2.36170       -8.23240       -7.51810
C          1.21110       -7.46190       -7.79460
C          2.39230       -9.36740       -8.35740
N          0.26070       -6.89460       -8.10080
N          2.35250      -10.27160       -9.06290
C          6.62460       -8.48920       -5.12270
C          7.04130       -9.69570       -5.66060
C          6.22850      -10.39230       -6.55580
C          4.98760       -9.90900       -6.94300
F          6.65230      -11.55900       -7.05390
C          1.19620        0.42160        0.00790
C          0.68710       -0.43620       -0.96390
C         -0.70380       -0.55440       -1.20680
C         -1.61400        0.11580       -0.42510
C          1.34190       -1.36670       -1.82800
C          0.41100       -2.05870       -2.58850
C         -0.97510       -1.52890       -2.33870
S          2.97610       -1.88310       -2.05840
C          2.41450       -3.08410       -3.18820
C          1.01460       -3.03360       -3.37570
C          3.04910       -4.09320       -3.89360
C          2.15340       -4.84880       -4.63870
S          0.49400       -4.24950       -4.46780
F          8.23210      -10.20010       -5.31640
F         -2.27810        5.50760       11.19850
H          0.67810        3.11580       -0.65060
H          1.40160        5.35210       -1.32680
H          2.21240        6.33360        2.74270
H          1.49500        4.09110        3.42630
H          3.26120        2.15890        1.82410
H          4.86910        1.09620        3.33760
H          1.65360       -0.43700        5.68080
H          0.04230        0.60000        4.15830
H          2.65440        7.37910       -0.77260
H          3.04100        7.76620        0.91030
H          0.65260        8.36680        1.31730
H          1.34080        9.33860        0.01200
H          0.26870        7.98450       -0.36060
H          3.93560       -1.21890        6.06170
H          5.26600       -0.64550        5.04520
H          5.18910        1.56710        6.19580
H          3.86220        0.99770        7.20780
H          5.46110        0.25940        7.35240
H         -0.86930        3.47530        4.28620
H         -4.78370        3.00280        4.10040
H         -1.18050        4.84710        8.91910
H         -6.16320        4.88000        9.03890
H         -3.67330       -1.40820       -2.50530
H         -5.32280       -3.05320       -1.74330
H         -2.17180       -5.61020       -0.43370
H         -0.52070       -3.95890       -1.16520
H         -1.86790       -2.70550       -4.58170
H         -2.46390       -1.68300       -6.72750
H         -1.62990        2.17770       -5.11860
H         -1.01650        1.16130       -2.97970
H         -4.49180       -6.07600        0.20040
H         -5.79820       -4.99790       -0.31230
H         -4.28050       -6.92440       -2.13840
H         -5.91700       -7.16770       -1.51840
H         -5.58290       -5.85050       -2.64740
H         -1.94450        1.87940       -7.53260
H         -2.27420        0.27560       -8.20420
H         -4.24490        1.94300       -6.56560
H         -4.29640        1.71450       -8.31670
H         -4.57230        0.34470       -7.23580
H          1.38910       -6.25080       -5.96800
H          7.24690       -7.94670       -4.42900
H          4.39900      -10.48790       -7.63530
H          2.25980        0.51240        0.16410
H         -2.67810        0.00360       -0.56410
H          4.10380       -4.29430       -3.86820
