144
ITBC.sdf
C         -4.25850       -7.80620       -2.90820
O         -3.10020       -7.47200       -3.05890
C         -4.83420       -9.10670       -3.26010
C         -6.18030       -9.11290       -2.95940
C         -6.58790       -7.85230       -2.39610
C         -7.87370       -7.56650       -2.01110
C         -8.34480       -6.36070       -1.45760
N         -8.81350       -5.41560       -1.00270
C         -8.89950       -8.52610       -2.15200
N         -9.74760       -9.29180       -2.25830
C         -5.39030       -7.01930       -2.34170
C         -5.39230       -5.75700       -1.81660
C         -4.36760       -4.80500       -1.65130
C         -3.02630       -4.79660       -1.99910
C         -2.39550       -3.62610       -1.60490
C         -3.23550       -2.70600       -0.94250
S         -4.83800       -3.30960       -0.82560
C         -2.55650       -1.55450       -0.55260
C         -2.85460       -0.29620        0.21760
C         -3.33560       -0.71920        1.59540
C         -2.47980       -0.78500        2.68480
C         -2.94260       -1.22970        3.91040
C         -4.26040       -1.63300        4.07450
C         -4.77000       -2.07320        5.41630
C         -5.33560       -0.88010        6.18950
C         -5.10940       -1.57670        2.97600
C         -4.65480       -1.12840        1.75150
C         -3.84670        0.62510       -0.46560
C         -4.08390        0.54160       -1.82990
C         -4.96580        1.41290       -2.44240
C         -5.62180        2.39500       -1.71310
C         -6.61510        3.30810       -2.37110
C         -8.01590        2.69420       -2.32480
C         -5.37220        2.48090       -0.34940
C         -4.49500        1.61050        0.26820
C         -1.48750        0.36600        0.22060
C         -0.53570       -0.43230       -0.45720
C         -1.21850       -1.60490       -0.90730
S         -0.75730       -3.04980       -1.73960
C          0.79830       -0.05050       -0.57320
C          1.16670        1.13500        0.01870
C          2.54520        1.77110        0.07280
C          3.58230        0.96250        0.83090
C          3.23360       -0.09600        1.65610
C          4.20630       -0.77690        2.36660
C          5.54180       -0.40870        2.28440
C          6.60040       -1.17870        3.02000
C          7.14900       -2.30450        2.14080
C          5.88220        0.66260        1.46770
C          4.91740        1.34140        0.75030
C          2.99440        2.05660       -1.34930
C          3.62920        1.06370       -2.08470
C          4.00920        1.29460       -3.39280
C          3.76720        2.51970       -4.00080
C          4.14460        2.75560       -5.43480
C          2.98470        2.38300       -6.36050
C          3.12430        3.50480       -3.26410
C          2.73790        3.27740       -1.95600
C          2.25300        3.01260        0.87200
C          0.90870        3.07730        1.19670
C          0.21090        1.94120        0.68200
C         -1.12710        1.56890        0.78110
S          0.47310        4.45550        2.14990
C          2.14360        4.95640        2.14000
C          2.97370        4.07490        1.41550
S          4.62290        4.56530        1.45720
C          4.19800        5.95980        2.44280
C          2.82850        6.01510        2.70480
C          5.08730        6.92110        2.95260
C          6.45030        6.99980        2.87610
C          7.26160        8.03860        3.49280
C          6.87150        9.15530        4.18800
C          7.82500       10.05220        4.71480
N          8.58500       10.79240        5.15220
C          5.54510        9.54410        4.45380
N          4.48760        9.91700        4.70340
C          8.63280        7.67860        3.23330
C          8.70890        6.51590        2.49230
C          7.35470        6.03560        2.21200
O          7.04340        5.05030        1.56770
C         10.03950        6.11200        2.21880
C         10.95660        7.02490        2.78940
S         10.16810        8.34570        3.63410
C         10.51940        5.00610        1.51380
C         11.87880        4.83080        1.39350
C         12.77400        5.73860        1.96290
C         12.32420        6.84040        2.66280
C         -4.37670      -10.32920       -3.81230
C         -5.44350      -11.25230       -3.91190
S         -6.96590      -10.59950       -3.33230
C         -3.10010      -10.70610       -4.23470
C         -2.91120      -11.97230       -4.73900
C         -3.97270      -12.87460       -4.83170
C         -5.24400      -12.52540       -4.42140
H         -6.34710       -5.40900       -1.43870
H         -2.55020       -5.61380       -2.50810
H         -1.44670       -0.48650        2.58140
H         -2.26400       -1.26880        4.75080
H         -3.95850       -2.52300        5.99190
H         -5.55400       -2.82170        5.28660
H         -6.15620       -0.42690        5.63780
H         -5.70400       -1.19710        7.16230
H         -4.56560       -0.12620        6.33820
H         -6.13760       -1.89210        3.07820
H         -5.32990       -1.08960        0.90890
H         -3.57950       -0.20860       -2.42180
H         -5.14370        1.32920       -3.50510
H         -6.62770        4.27220       -1.85870
H         -6.33040        3.47740       -3.41160
H         -8.02690        1.73710       -2.84130
H         -8.73680        3.35470       -2.80100
H         -8.32280        2.52950       -1.29450
H         -5.87040        3.23980        0.23690
H         -4.32260        1.68760        1.33200
H          1.50840       -0.67570       -1.09180
H          2.19950       -0.39570        1.74600
H          3.91880       -1.60440        2.99980
H          7.41700       -0.50960        3.29860
H          6.18170       -1.60670        3.93310
H          6.35150       -2.99050        1.86380
H          7.58050       -1.89620        1.22970
H          7.91810       -2.86170        2.67060
H          6.91360        0.97510        1.39580
H          5.20270        2.17040        0.11980
H          3.84160        0.10910       -1.62560
H          4.50620        0.51230       -3.94890
H          4.39900        3.80710       -5.58250
H          5.01800        2.15310       -5.69210
H          2.10730        2.98240       -6.12750
H          2.72390        1.33430       -6.23680
H          3.25660        2.55370       -7.39950
H          2.92490        4.46530       -3.71760
H          2.23680        4.06070       -1.40610
H         -1.83910        2.19660        1.29410
H          2.37980        6.79570        3.29240
H          4.58790        7.70500        3.51060
H          9.81430        4.31490        1.07950
H         12.26400        3.98020        0.85190
H         13.83560        5.57640        1.85450
H         13.01390        7.54310        3.10330
H         -2.29110       -9.99690       -4.15570
H         -1.92950      -12.27730       -5.06860
H         -3.79670      -13.86200       -5.23070
H         -6.06530      -13.22120       -4.49230
