132
ITC-2Cl.sdf
C          7.49540        6.21230       -1.62250
O          7.50480        5.01030       -1.78270
C          8.67200        7.08590       -1.52850
C          8.25790        8.44650       -1.37670
C          6.80840        8.49350       -1.36890
C          6.08730        9.65740       -1.28280
C          6.73260       10.90690       -1.17080
N          7.23410       11.93470       -1.07460
C          4.68570        9.79370       -1.30420
N          3.55480        9.99660       -1.32110
C          6.32930        7.12300       -1.47980
C          4.99990        6.79760       -1.38910
C          4.32460        5.56590       -1.42030
C          4.74390        4.26090       -1.63970
C          3.70500        3.35350       -1.51140
C          2.45750        3.93660       -1.19510
S          2.58590        5.64360       -1.08080
C          1.46530        2.98350       -0.99090
C          0.00150        2.95540       -0.64130
C         -0.72850        3.52870       -1.84810
C         -0.70950        4.90420       -2.04780
C         -1.30390        5.45830       -3.16400
C         -1.92750        4.65580       -4.11210
C         -2.60740        5.26440       -5.30410
C         -4.05870        5.61580       -4.97030
C         -1.94310        3.28350       -3.90640
C         -1.34580        2.72170       -2.79160
C         -0.36170        3.68960        0.63160
C          0.57550        3.89490        1.63350
C          0.21950        4.54040        2.80360
C         -1.07880        4.98790        3.00540
C         -1.47660        5.65160        4.29180
C         -2.02290        4.61790        5.27890
C         -2.01740        4.76280        2.00640
C         -1.66640        4.12180        0.83430
C         -0.21570        1.46330       -0.46390
C          0.93880        0.73650       -0.84430
C          1.94800        1.69560       -1.16650
S          3.62200        1.61510       -1.59400
C          0.98280       -0.65460       -0.79340
C         -0.12350       -1.29790       -0.29110
C         -0.32040       -2.78650       -0.06700
C          0.87960       -3.37160        0.64680
C          1.96590       -3.83060       -0.08770
C          3.08040       -4.33660        0.55260
C          3.14170       -4.39540        1.93910
C          4.32990       -5.00140        2.62760
C          4.14420       -6.51300        2.77550
C          2.05790       -3.92510        2.66770
C          0.94240       -3.41160        2.03200
C         -0.63550       -3.54810       -1.34720
C         -0.91680       -2.90270       -2.54180
C         -1.25200       -3.63420       -3.66760
C         -1.32180       -5.01960       -3.62690
C         -1.73570       -5.80560       -4.83710
C         -3.25390       -5.99540       -4.85560
C         -1.04820       -5.65910       -2.42370
C         -0.71020       -4.93510       -1.29760
C         -1.59140       -2.78020        0.73880
C         -2.12420       -1.50140        0.79740
C         -1.24160       -0.56470        0.17590
C         -1.31190        0.82170        0.06230
S         -3.60100       -1.38680        1.69080
C         -3.50300       -3.09270        2.03240
C         -2.37550       -3.69640        1.43170
S         -2.28520       -5.36370        1.82530
C         -3.74120       -5.23630        2.82960
C         -4.26510       -3.95090        2.80810
C         -4.11350       -6.41320        3.50070
C         -5.08300       -6.67540        4.43510
C         -5.24850       -7.98800        5.04310
C         -4.60180       -9.16300        4.75460
C         -3.62030       -9.37450        3.76700
N         -2.82100       -9.63690        2.98420
C         -4.89150      -10.34690        5.46510
N         -5.10660      -11.32200        6.03080
C         -6.27370       -7.86600        6.06170
C         -6.76040       -6.52110        6.06420
C         -6.05930       -5.73340        5.04230
O         -6.25710       -4.56750        4.77350
C         10.02510        6.93740       -1.54780
S         10.81290        8.48960       -1.37550
C          9.29950        9.31570       -1.28200
C         -7.73210       -6.30550        6.99310
S         -8.06070       -7.77320        7.88590
C         -6.87970       -8.65640        6.98780
Cl        -8.56650       -4.86840        7.32440
Cl        10.92160        5.50830       -1.70700
H          4.32840        7.63350       -1.22820
H          5.76280        4.00600       -1.86490
H         -0.22920        5.54310       -1.32070
H         -1.27720        6.52910       -3.30440
H         -2.59020        4.56170       -6.13960
H         -2.07930        6.17030       -5.60770
H         -4.55090        6.05770       -5.83330
H         -4.09590        6.32600       -4.14740
H         -4.60650        4.72290       -4.67700
H         -2.42280        2.64090       -4.63090
H         -1.36430        1.64970       -2.65980
H          1.59120        3.55040        1.50210
H          0.96430        4.70050        3.56990
H         -0.61280        6.15140        4.73410
H         -2.24420        6.40340        4.09760
H         -1.26770        3.86540        5.49520
H         -2.31260        5.09790        6.21060
H         -2.89320        4.11740        4.86040
H         -3.03500        5.09890        2.14560
H         -2.40800        3.96700        0.06370
H          1.86320       -1.19420       -1.10630
H          1.93300       -3.80270       -1.16740
H          3.91590       -4.69180       -0.03360
H          5.23380       -4.80520        2.04730
H          4.45410       -4.55490        3.61610
H          3.25330       -6.72940        3.36070
H          4.03160       -6.97780        1.79860
H          5.00360       -6.95500        3.27390
H          2.08660       -3.95740        3.74740
H          0.11650       -3.04050        2.62170
H         -0.87190       -1.82500       -2.60000
H         -1.46230       -3.11650       -4.59270
H         -1.42750       -5.28090       -5.74360
H         -1.25170       -6.78410       -4.82620
H         -3.55540       -6.56510       -5.73140
H         -3.75590       -5.03050       -4.87880
H         -3.57930       -6.52860       -3.96520
H         -1.09970       -6.73670       -2.36740
H         -0.49500       -5.44910       -0.37180
H         -2.17990        1.36390        0.40440
H         -5.14930       -3.67290        3.35100
H         -3.47960       -7.25420        3.24300
H          9.29230       10.38060       -1.16190
H         -6.72000       -9.69210        7.21210
