138
ITCC-M.sdf
C         -8.32720       -5.17470        0.49940
O         -7.23630       -5.61200        0.19360
C         -9.47580       -5.93750        0.96820
C        -10.57360       -5.12260        1.19790
C        -10.21030       -3.75460        0.88920
C        -11.07360       -2.69430        0.99120
C        -12.40700       -2.87000        1.41860
N        -13.49470       -2.98230        1.76700
C        -10.80000       -1.34230        0.70430
N        -10.67070       -0.21960        0.49660
C         -8.81020       -3.76410        0.48000
C         -8.11520       -2.62370        0.18730
C         -6.76690       -2.39900       -0.15150
C         -5.69090       -3.24870       -0.35280
C         -4.51760       -2.55060       -0.59730
C         -4.66370       -1.14700       -0.59470
S         -6.29380       -0.69730       -0.30340
C         -3.45250       -0.48850       -0.78880
C         -2.95080        0.93030       -0.79580
C         -3.40690        1.58850        0.49290
C         -2.60240        1.62020        1.62240
C         -3.07060        2.18160        2.79700
C         -4.35050        2.71260        2.87610
C         -4.87100        3.28290        4.16370
C         -5.60830        2.20760        4.96430
C         -5.15900        2.65760        1.74750
C         -4.69620        2.10200        0.57100
C         -3.38490        1.72000       -2.01830
C         -3.28490        3.10570       -2.01610
C         -3.64290        3.83600       -3.13280
C         -4.10850        3.20540       -4.27960
C         -4.46160        3.99920       -5.50410
C         -3.23400        4.17480       -6.40030
C         -4.19540        1.82030       -4.28010
C         -3.83530        1.08420       -3.16610
C         -1.45160        0.70060       -0.89200
C         -1.15810       -0.67900       -1.00750
C         -2.40120       -1.38000       -0.92500
S         -2.86700       -3.04480       -0.85410
C          0.14870       -1.14850       -1.11200
C          1.15660       -0.21520       -1.05810
C          2.65590       -0.45350       -1.06980
C          3.01600       -1.51020       -0.04750
C          3.00550       -2.85270       -0.40460
C          3.29760       -3.82780        0.52900
C          3.60570       -3.49030        1.84080
C          3.88390       -4.55820        2.85880
C          2.57690       -5.06420        3.47250
C          3.60120       -2.14850        2.19510
C          3.30630       -1.16850        1.26510
C          3.20470       -0.79430       -2.44730
C          4.53770       -1.17210       -2.56060
C          5.08740       -1.43220       -3.80040
C          4.32490       -1.32070       -4.95670
C          4.93780       -1.55580       -6.30730
C          5.51780       -0.25350       -6.86310
C          2.99710       -0.93560       -4.83630
C          2.44020       -0.67070       -3.59760
C          3.16120        0.92790       -0.75170
C          2.11530        1.83510       -0.73580
C          0.86510        1.16170       -0.90240
C         -0.44330        1.63510       -0.84920
S          2.59960        3.46780       -0.41880
C          4.25010        2.92260       -0.27080
C          4.38680        1.53550       -0.48810
S          6.00910        1.00460       -0.26860
C          6.50610        2.64600        0.12540
C          5.43920        3.54370        0.06070
C          7.79240        3.05700        0.51430
C          8.93520        2.33550        0.72330
C         10.19410        2.88190        1.20430
C         10.51780        4.18540        1.47900
C         11.79930        4.54450        1.94670
N         12.83300        4.85940        2.33340
C          9.67050        5.30150        1.33780
N          9.03680        6.25600        1.25180
C         11.10390        1.76310        1.35850
C         10.45410        0.59990        0.97050
C          9.09070        0.87430        0.54410
O          8.26300        0.08430        0.12820
S         -9.80130       -7.58100        1.30980
C        -11.43310       -7.17480        1.77260
C        -11.69500       -5.83810        1.65900
S         11.44860       -0.78280        1.12450
C         12.75480        0.20650        1.72140
C         12.42380        1.53150        1.78790
C         14.04770       -0.42180        2.09040
C        -12.35770       -8.24170        2.23040
H         -8.68260       -1.70240        0.25570
H         -5.77470       -4.31860       -0.30690
H         -1.60440        1.20770        1.58810
H         -2.42790        2.20620        3.66560
H         -5.55650        4.10610        3.95280
H         -4.04230        3.67120        4.75920
H         -6.44830        1.82000        4.39240
H         -4.93920        1.38070        5.19220
H         -5.98370        2.61890        5.89830
H         -6.16260        3.05520        1.78890
H         -5.33780        2.07260       -0.29780
H         -2.94100        3.61690       -1.12880
H         -3.56490        4.91370       -3.11140
H         -5.24570        3.48620       -6.06460
H         -4.83720        4.98190       -5.21230
H         -2.44300        4.69170       -5.86150
H         -2.85450        3.20560       -6.71650
H         -3.48830        4.75400       -7.28480
H         -4.55360        1.30830       -5.16190
H         -3.91210        0.00690       -3.19390
H          0.35300       -2.20420       -1.20210
H          2.78130       -3.13440       -1.42350
H          3.29180       -4.86730        0.23340
H          4.52330       -4.16000        3.64900
H          4.40520       -5.39280        2.38550
H          2.04860       -4.24910        3.96210
H          2.77630       -5.84070        4.20750
H          1.93000       -5.47440        2.70030
H          3.83450       -1.86410        3.21130
H          3.30550       -0.13060        1.56540
H          5.14580       -1.26570       -1.67270
H          6.12480       -1.72550       -3.86970
H          4.18150       -1.93600       -6.99700
H          5.73380       -2.29880       -6.22830
H          5.96170       -0.42090       -7.84170
H          6.28380        0.13400       -6.19510
H          4.73690        0.49760       -6.95920
H          2.38660       -0.83970       -5.72320
H          1.40520       -0.36790       -3.53180
H         -0.64490        2.68940       -0.74000
H          5.54940        4.59290        0.26840
H          7.85400        4.12260        0.70320
H        -12.64760       -5.40390        1.89960
H         13.10180        2.29030        2.13210
H         13.89860       -1.18820        2.85020
H         14.73120        0.33000        2.47630
H         14.50290       -0.89990        1.22340
H        -12.48140       -9.00010        1.45810
H        -11.96310       -8.73500        3.11820
H        -13.32980       -7.81670        2.46660
