132
ITCC-Cl.sdf
C         -6.57330       -2.14450       -6.49180
O         -5.77410       -1.23560       -6.57650
C         -7.40650       -2.67980       -7.56510
C         -8.22600       -3.70200       -7.11300
C         -7.98050       -3.90510       -5.69740
C         -8.64730       -4.82650       -4.93290
C         -9.63340       -5.67090       -5.48770
N        -10.43720       -6.37210       -5.91040
C         -8.47990       -5.06800       -3.55430
N         -8.41690       -5.32890       -2.43730
C         -6.93940       -2.96390       -5.30400
C         -6.40540       -2.93130       -4.04410
C         -5.38620       -2.15060       -3.46910
C         -4.60920       -1.10700       -3.94940
C         -3.68240       -0.67630       -3.01290
C         -3.72560       -1.37490       -1.78650
S         -4.95370       -2.57290       -1.80270
C         -2.73300       -0.95820       -0.90480
C         -2.27190       -1.28700        0.48970
C         -1.90650       -2.74050        0.70690
C         -1.87490       -3.26100        1.99470
C         -1.51060       -4.57590        2.20970
C         -1.16620       -5.40380        1.14870
C         -0.83040       -6.84780        1.38330
C         -2.10470       -7.69500        1.38680
C         -1.18900       -4.87510       -0.13450
C         -1.54690       -3.55760       -0.35480
C         -3.38750       -0.84510        1.42580
C         -4.51880       -1.64410        1.54240
C         -5.57490       -1.25100        2.34040
C         -5.53130       -0.05160        3.04090
C         -6.69970        0.39490        3.87110
C         -7.69130        1.18470        3.01410
C         -4.40240        0.74540        2.91330
C         -3.34210        0.35860        2.11280
C         -1.02920       -0.42020        0.58710
C         -0.89600        0.40320       -0.55690
C         -1.95730        0.05350       -1.44840
S         -2.42170        0.52550       -3.04640
C          0.15460        1.30650       -0.69570
C          1.09550        1.33240        0.30670
C          2.35470        2.17710        0.38980
C          2.08170        3.63080        0.74800
C          0.83670        4.06450        1.17790
C          0.64740        5.38400        1.54880
C          1.69360        6.29520        1.51240
C          1.47380        7.73440        1.87890
C          1.06600        8.54370        0.64610
C          2.94000        5.85230        1.08630
C          3.13440        4.53760        0.71120
C          3.13680        2.05870       -0.90150
C          4.09490        1.07030       -1.07370
C          4.77450        0.95550       -2.27250
C          4.50910        1.81540       -3.32930
C          5.21670        1.66270       -4.64440
C          4.42880        0.73330       -5.57000
C          3.53650        2.79210       -3.15690
C          2.85810        2.91440       -1.95990
C          3.02440        1.56320        1.59010
C          2.19520        0.62350        2.18200
C          1.00290        0.45320        1.41240
C         -0.07440       -0.41360        1.57640
S          2.85950       -0.12610        3.59180
C          4.30650        0.82150        3.38750
C          4.22840        1.68980        2.27670
S          5.68330        2.58010        2.08820
C          6.40230        1.76060        3.48600
C          5.51660        0.86260        4.06240
C          7.73120        2.11720        3.77900
C          8.62770        1.64620        4.69990
C          9.99340        2.14540        4.80090
C         10.59050        3.17360        4.11980
C         11.94070        3.52090        4.34250
N         13.03580        3.82540        4.49880
C          9.99610        4.01160        3.15460
N          9.59710        4.74440        2.36520
C         10.66630        1.34620        5.80770
C          9.76460        0.42940        6.32450
C          8.45120        0.55580        5.69840
O          7.45890       -0.09360        5.95420
S         -7.61380       -2.35160       -9.23160
C         -8.81710       -3.61040       -9.31490
C         -9.04380       -4.24190       -8.12210
S         10.45270       -0.57020        7.53080
C         11.97300        0.25930        7.33010
C         11.94440        1.25100        6.38740
Cl        13.32090       -0.19140        8.26710
Cl        -9.59130       -3.95410      -10.79150
H         -6.81480       -3.65430       -3.34780
H         -4.72060       -0.70350       -4.93860
H         -2.15000       -2.63610        2.83230
H         -1.49360       -4.96580        3.21740
H         -0.16120       -7.20600        0.59870
H         -0.32240       -6.95840        2.34350
H         -1.86540       -8.74180        1.55860
H         -2.61960       -7.60770        0.43280
H         -2.77990       -7.35940        2.17070
H         -0.92050       -5.50030       -0.97400
H         -1.54600       -3.16640       -1.36200
H         -4.56720       -2.58290        1.00950
H         -6.44530       -1.88580        2.42110
H         -7.20530       -0.47430        4.29610
H         -6.35220        1.02480        4.69240
H         -8.05740        0.56920        2.19550
H         -8.53970        1.50670        3.61330
H         -7.21000        2.06410        2.59180
H         -4.34850        1.68340        3.44750
H         -2.47600        0.99860        2.02910
H          0.23140        1.93830       -1.56700
H          0.00760        3.37350        1.22350
H         -0.33000        5.70710        1.87780
H          0.68860        7.80880        2.63390
H          2.39130        8.15350        2.29650
H          1.84210        8.49140       -0.11410
H          0.14470        8.15000        0.22240
H          0.90870        9.58660        0.91100
H          3.77000        6.54290        1.05290
H          4.11010        4.21060        0.38180
H          4.31510        0.38470       -0.26800
H          5.52470        0.18600       -2.38650
H          5.32410        2.63860       -5.12200
H          6.21400        1.24940       -4.48280
H          3.43620        1.13700       -5.75700
H          4.31780       -0.24860       -5.11510
H          4.94260        0.61950       -6.52160
H          3.31100        3.46910       -3.96840
H          2.11490        3.68980       -1.84060
H         -0.13660       -1.06510        2.43420
H          5.76370        0.26900        4.92280
H          8.10480        2.89590        3.12360
H         -9.75290       -5.03870       -7.99910
H         12.79480        1.85830        6.14040
