144
ITCF.sdf
C         -2.86660        1.92130        9.07430
O         -2.84260        0.83430        8.53470
C         -2.78450        2.15590       10.53000
C         -2.60210        1.22540       11.53440
C         -2.53290        1.65180       12.85560
C         -2.65720        3.02180       13.09740
F         -2.58470        3.44500       14.37320
C         -2.84770        3.97380       12.10930
C         -2.91150        3.52770       10.79840
C         -3.09590        4.23660        9.53600
C         -3.40850        5.56530        9.41810
C         -3.69440        6.24460        8.21430
N         -3.96500        6.86910        7.28910
C         -3.53150        6.44390       10.51570
N         -3.64350        7.21070       11.36230
C         -2.96440        3.26570        8.46120
C         -2.81270        3.61690        7.14600
C         -2.66820        2.83570        5.98530
C         -2.81180        1.47750        5.74430
C         -2.55800        1.15620        4.41980
C         -2.21370        2.25920        3.60880
S         -2.23240        3.71830        4.51200
C         -1.90990        1.88220        2.30410
C         -1.50430        2.55070        1.01820
C         -0.21360        3.33970        1.10020
C          0.06780        4.30490        0.14130
C          1.25480        5.01040        0.18420
C          2.19200        4.77020        1.18070
C          3.45610        5.57640        1.25750
C          3.24840        6.81210        2.13570
C          1.90910        3.79870        2.13120
C          0.72500        3.08580        2.08970
C         -2.67230        3.43380        0.60510
C         -3.61890        3.01990       -0.31980
C         -4.69920        3.82990       -0.62230
C         -4.86720        5.06040       -0.00260
C         -6.01810        5.95410       -0.36360
C         -5.63190        6.88180       -1.51750
C         -3.91920        5.46520        0.92930
C         -2.83740        4.66280        1.23300
C         -1.31250        1.34170        0.11950
C         -1.67890        0.14940        0.78950
C         -2.04410        0.51500        2.12210
S         -2.53800       -0.34620        3.53850
C         -1.61440       -1.09540        0.16860
C         -1.13950       -1.12950       -1.12140
C         -0.93610       -2.33950       -2.01690
C         -0.11960       -3.38360       -1.28380
C          1.26440       -3.41010       -1.37290
C          1.99350       -4.35090       -0.66860
C          1.36260       -5.27590        0.15150
C          2.14940       -6.32750        0.87860
C          2.24280       -7.60110        0.03580
C         -0.02280       -5.23640        0.24680
C         -0.75630       -4.30330       -0.45950
C         -2.23430       -2.92230       -2.55530
C         -3.44190       -2.24720       -2.45830
C         -4.58760       -2.78410       -3.01760
C         -4.55450       -3.99560       -3.69470
C         -5.80960       -4.58940       -4.26540
C         -6.54820       -5.40440       -3.20170
C         -3.34020       -4.66330       -3.79360
C         -2.19340       -4.13370       -3.23520
C         -0.23710       -1.70600       -3.19000
C         -0.17020       -0.33070       -3.03230
C         -0.71020        0.05510       -1.76680
C         -0.81080        1.30440       -1.16000
S          0.58420        0.50190       -4.34680
C          0.83760       -1.02700       -5.14130
C          0.32550       -2.11190       -4.39660
S          0.60660       -3.59990       -5.20430
C          1.43920       -2.76110       -6.52480
C          1.45650       -1.38850       -6.32760
C          1.93670       -3.58090       -7.55360
C          2.74520       -3.30350       -8.62430
C          3.15940       -4.30740       -9.59200
C          2.61130       -5.54800       -9.78650
C          1.50590       -6.08550       -9.09270
N          0.60150       -6.59470       -8.60050
C          3.06390       -6.46320      -10.76110
N          3.38230       -7.25480      -11.52870
C          4.23510       -3.73290      -10.39410
C          5.03870       -4.27160      -11.38700
C          5.98650       -3.43990      -11.96050
F          6.77760       -3.95520      -12.92000
C          6.17660       -2.10240      -11.60600
C          5.35960       -1.58160      -10.60930
C          4.41090       -2.39240      -10.01750
C          3.46190       -2.04700       -8.94030
O          3.33700       -0.94760       -8.44100
C          7.22820       -1.28870      -12.28580
C         -2.32610        0.70600       13.99260
H         -2.51240        0.17880       11.28600
H         -2.93070        5.01170       12.38570
H         -2.75020        4.68060        6.94510
H         -3.07650        0.77260        6.50990
H         -0.65350        4.51500       -0.63530
H          1.45630        5.75960       -0.56810
H          4.25920        4.96740        1.67730
H          3.75440        5.89300        0.25610
H          2.96210        6.51720        3.14270
H          4.16350        7.39700        2.19170
H          2.45950        7.43900        1.72630
H          2.62570        3.59360        2.91370
H          0.53340        2.32770        2.83540
H         -3.51580        2.06250       -0.80960
H         -5.42630        3.49450       -1.34820
H         -6.30350        6.55580        0.50130
H         -6.87800        5.35010       -0.65990
H         -6.46490        7.52980       -1.77930
H         -4.78400        7.50230       -1.23610
H         -5.35470        6.30050       -2.39420
H         -4.03240        6.41660        1.42820
H         -2.11020        4.99300        1.96080
H         -1.91220       -1.99070        0.69180
H          1.78010       -2.69360       -1.99600
H          3.07060       -4.36240       -0.75600
H          1.66500       -6.56050        1.82910
H          3.15560       -5.95950        1.08860
H          2.81370       -8.36360        0.56030
H          1.24900       -7.99150       -0.17140
H          2.73170       -7.39160       -0.91300
H         -0.53370       -5.94520        0.88270
H         -1.83390       -4.29620       -0.38120
H         -3.49250       -1.29840       -1.94420
H         -5.52160       -2.24720       -2.93130
H         -6.46430       -3.79360       -4.62670
H         -5.56200       -5.23780       -5.10770
H         -7.45900       -5.83150       -3.61450
H         -5.91760       -6.21370       -2.84020
H         -6.81260       -4.77280       -2.35640
H         -3.28880       -5.60530       -4.31980
H         -1.25720       -4.66600       -3.32300
H         -0.49130        2.19700       -1.67500
H          1.91210       -0.70440       -7.01880
H          1.64550       -4.61890       -7.43850
H          4.96290       -5.29330      -11.72010
H          5.46020       -0.55470      -10.29230
H          7.23580       -0.27150      -11.90580
H          7.05190       -1.26830      -13.36070
H          8.20910       -1.73620      -12.12790
H         -3.11940        0.82280       14.72980
H         -1.38380        0.92520       14.49440
H         -2.31050       -0.32200       13.64260
