132
ITCPTC.sdf
C          0.83780        4.16940        8.46610
O          1.12370        4.62750        7.37950
C          1.26970        4.69160        9.76950
C          0.69530        3.90570       10.81790
C         -0.11960        2.86130       10.23030
C         -0.86040        1.96990       10.96350
C         -1.71130        0.96250       10.46900
N         -2.42840        0.12200       10.15310
C         -0.84720        2.00250       12.37380
N         -0.84430        2.00820       13.52150
C         -0.00170        2.98360        8.78320
C         -0.54020        2.06390        7.92120
C         -0.52930        1.96540        6.51880
C         -0.07330        2.80680        5.51430
C         -0.25250        2.25590        4.25510
C         -0.85340        0.97800        4.25900
S         -1.21690        0.47160        5.85730
C         -0.94830        0.43380        2.98230
C         -1.46970       -0.82640        2.34590
C         -0.86320       -2.10360        2.88710
C          0.37350       -2.10160        3.51550
C          0.92410       -3.28130        3.98180
C          0.26330       -4.49100        3.81910
C          0.83550       -5.76420        4.37130
C          0.29620       -6.02260        5.77980
C         -0.96700       -4.48920        3.17380
C         -1.52450       -3.31290        2.71200
C         -2.98000       -0.79830        2.53340
C         -3.50560       -1.12890        3.77700
C         -4.86460       -1.04780        4.00730
C         -5.73350       -0.63040        3.00630
C         -7.21440       -0.58160        3.24720
C         -7.85270       -1.93430        2.92510
C         -5.20220       -0.30190        1.76710
C         -3.84080       -0.37710        1.53130
C         -1.04130       -0.61220        0.90520
C         -0.48530        0.67840        0.73010
C         -0.44520        1.29430        2.01940
S          0.15620        2.78980        2.64760
C         -0.04460        1.12730       -0.51240
C         -0.12130        0.24210       -1.56160
C          0.32000        0.45230       -2.99900
C          1.72800        1.00760       -3.03190
C          2.83010        0.16530       -3.04810
C          4.11050        0.68740       -3.04470
C          4.32200        2.05900       -3.01660
C          5.71160        2.62510       -2.96950
C          6.15550        2.82830       -1.51940
C          3.21470        2.89700       -2.98250
C          1.93350        2.38090       -2.98930
C         -0.64420        1.31420       -3.80180
C         -1.89440        1.67050       -3.31940
C         -2.76200        2.40760       -4.10610
C         -2.40800        2.79830       -5.38970
C         -3.37130        3.55390       -6.25870
C         -4.20400        2.58420       -7.09990
C         -1.15750        2.42920       -5.87060
C         -0.28610        1.69650       -5.08940
C          0.18130       -0.94520       -3.54060
C         -0.40640       -1.77580       -2.59900
C         -0.59970       -1.07640       -1.36750
C         -1.08980       -1.50740       -0.13730
S         -0.64350       -3.40310       -3.13550
C          0.08260       -2.98390       -4.66280
C          0.45700       -1.62340       -4.72370
S          1.20170       -1.25550       -6.22500
C          1.03070       -2.93820       -6.75680
C          0.39860       -3.71530       -5.79660
C          1.57100       -3.22800       -8.02190
C          1.69860       -4.39840       -8.72440
C          2.35780       -4.46310      -10.02250
C          2.85770       -3.44280      -10.79110
C          2.82150       -2.06410      -10.50640
N          2.83010       -0.92440      -10.35860
C          3.48320       -3.70580      -12.02790
N          4.00350       -3.89970      -13.03240
C          2.40180       -5.85790      -10.41370
C          1.75550       -6.64310       -9.40780
C          1.27760       -5.76860       -8.32880
O          0.66740       -6.11910       -7.34010
C          2.05270        5.70220       10.22330
S          2.10120        5.70750       11.94770
C          1.05690        4.33910       12.05660
C          1.74120       -7.97020       -9.68860
S          2.52410       -8.28220      -11.19390
C          2.87040       -6.61150      -11.44620
H         -1.04920        1.22960        8.39080
H          0.37550        3.76240        5.71270
H          0.91280       -1.17420        3.64460
H          1.88430       -3.26020        4.47740
H          0.56690       -6.60180        3.72430
H          1.92440       -5.69630        4.40900
H         -0.78790       -6.10790        5.76030
H          0.71030       -6.94390        6.18270
H          0.56190       -5.20250        6.44290
H         -1.49540       -5.42110        3.03170
H         -2.48790       -3.33060        2.22270
H         -2.84460       -1.45480        4.56720
H         -5.25500       -1.30530        4.98110
H         -7.66700        0.18860        2.61950
H         -7.41060       -0.33130        4.29160
H         -7.67860       -2.19660        1.88390
H         -8.92540       -1.90000        3.10020
H         -7.42320       -2.71340        3.55080
H         -5.86000        0.02540        0.97440
H         -3.45190       -0.10620        0.56060
H          0.35860        2.12080       -0.63300
H          2.69090       -0.90620       -3.06460
H          4.95800        0.01730       -3.06680
H          6.40590        1.94570       -3.46740
H          5.73800        3.58390       -3.49100
H          5.48260        3.51430       -1.00980
H          7.16220        3.23800       -1.48350
H          6.14610        1.88100       -0.98470
H          3.35720        3.96790       -2.95590
H          1.08480        3.04970       -2.97510
H         -2.19600        1.37700       -2.32450
H         -3.73030        2.68260       -3.71260
H         -4.03780        4.15570       -5.63770
H         -2.82260        4.22480       -6.92260
H         -4.76690        1.91180       -6.45610
H         -3.55770        1.98540       -7.73760
H         -4.90350        3.13000       -7.72870
H         -0.86160        2.71900       -6.86840
H          0.68470        1.42350       -5.47740
H         -1.46860       -2.50980       -0.01130
H          0.19840       -4.76190       -5.93320
H          1.98430       -2.34980       -8.50530
H          2.59960        6.43600        9.66620
H          0.79130        3.95670       13.02160
H          1.32820       -8.77760       -9.11810
H          3.39290       -6.31220      -12.33240
