138
ITIC-6F.sdf
C          1.00940        6.16410        7.50710
O          0.42390        5.17080        7.12690
C          0.93780        6.76200        8.86120
C          0.20360        6.36080        9.96280
C          0.30110        7.10020       11.14360
F         -0.39740        6.73850       12.22280
C          1.13100        8.21810       11.18630
F          1.21200        8.91610       12.32110
C          1.87340        8.62890       10.08780
C          1.77190        7.89220        8.92010
C          2.41470        8.06610        7.61440
C          3.33820        9.03630        7.31990
C          3.77480       10.02060        8.23200
N          4.17240       10.84760        8.92160
C          4.00080        9.19470        6.08390
N          4.59140        9.39160        5.11890
C          1.91790        7.02380        6.74330
C          2.20870        6.89120        5.40480
C          1.80140        5.93060        4.47390
C          2.18690        6.00300        3.12840
C          1.69560        4.95190        2.38560
C          0.92720        4.03960        3.14700
S          0.80250        4.51430        4.79320
C          0.46890        2.97730        2.37380
C         -0.38430        1.75430        2.57230
C          0.18020        0.76000        3.56810
C         -0.65420       -0.18170        4.15660
C         -0.14470       -1.11290        5.04070
C          1.20740       -1.13000        5.35920
C          1.76180       -2.16790        6.29130
C          2.13960       -3.43280        5.51780
C          2.03820       -0.19520        4.75730
C          1.53420        0.73710        3.86910
C         -1.76130        2.24790        2.98990
C         -1.95320        2.66140        4.30320
C         -3.16790        3.18230        4.70230
C         -4.22110        3.30570        3.80370
C         -5.55240        3.83350        4.25360
C         -6.40050        2.70770        4.84890
C         -4.02290        2.88970        2.49470
C         -2.80540        2.37390        2.08620
C         -0.34560        1.15200        1.17990
C          0.38410        1.97810        0.28980
C          0.86450        3.08790        1.04970
S          1.82270        4.48850        0.70800
C          0.54070        1.65490       -1.05600
C         -0.03090        0.48240       -1.49040
C         -0.01760       -0.10500       -2.89030
C          1.41610       -0.24490       -3.36400
C          2.13770       -1.40770       -3.13670
C          3.45320       -1.50810       -3.55090
C          4.08420       -0.44840       -4.18760
C          5.49510       -0.57670       -4.68340
C          5.50740       -1.07660       -6.12960
C          3.36130        0.71900       -4.39880
C          2.04530        0.82280       -3.99190
C         -0.86520        0.67030       -3.88710
C         -1.77430        1.63770       -3.48630
C         -2.56550        2.28140       -4.42130
C         -2.47620        1.97020       -5.77090
C         -3.36880        2.63580       -6.77760
C         -4.63650        1.80730       -6.99670
C         -1.57340        0.98940       -6.16370
C         -0.77810        0.34660       -5.23600
C         -0.71430       -1.41680       -2.65090
C         -1.12380       -1.52080       -1.32940
C         -0.71480       -0.36950       -0.58870
C         -0.88550       -0.03840        0.75340
S         -1.96600       -2.98410       -0.95720
C         -1.77330       -3.49160       -2.61310
C         -1.09100       -2.52950       -3.39390
S         -0.92200       -3.05810       -5.01600
C         -1.74900       -4.58090       -4.63810
C         -2.13830       -4.63360       -3.30420
C         -1.90830       -5.46440       -5.71510
C         -2.37590       -6.75490       -5.78200
C         -2.49730       -7.49550       -7.02230
C         -2.44580       -6.99690       -8.29840
C         -2.28960       -5.63870       -8.65170
N         -2.19200       -4.56010       -9.03430
C         -2.58670       -7.78250       -9.46250
N         -2.68730       -8.36170      -10.44820
C         -2.76970       -8.89310       -6.68430
C         -2.89700      -10.01430       -7.48700
C         -3.16120      -11.23010       -6.87270
F         -3.28160      -12.32520       -7.62650
C         -3.30230      -11.34640       -5.49160
F         -3.55700      -12.53520       -4.93920
C         -3.17250      -10.21120       -4.68840
C         -2.90480       -8.99410       -5.28970
C         -2.70800       -7.66130       -4.66460
O         -2.79580       -7.41510       -3.48310
F         -3.30450      -10.32610       -3.37090
F         -0.59070        5.29550        9.92210
H          2.49620        9.50260       10.18210
H          2.85190        7.64950        4.97480
H          2.79890        6.79900        2.74390
H         -1.71140       -0.17510        3.93390
H         -0.80840       -1.83410        5.49570
H          1.01760       -2.41910        7.04960
H          2.64680       -1.77710        6.79700
H          2.54110       -4.18520        6.19230
H          2.89000       -3.20540        4.76380
H          1.26660       -3.84540        5.01700
H          3.09400       -0.19260        4.98800
H          2.20240        1.45250        3.41170
H         -1.14820        2.57250        5.01770
H         -3.29530        3.50380        5.72540
H         -6.08230        4.27510        3.40730
H         -5.40530        4.60880        5.00820
H         -7.36510        3.08980        5.17440
H         -5.89500        2.26560        5.70430
H         -6.56720        1.92790        4.10890
H         -4.82830        2.97650        1.77920
H         -2.67390        2.06860        1.05820
H          1.08950        2.30340       -1.72110
H          1.67320       -2.24400       -2.63420
H          3.99760       -2.42440       -3.37290
H          6.04680       -1.27860       -4.05500
H          5.99470        0.39280       -4.63400
H          6.52870       -1.17050       -6.49070
H          5.02350       -2.04830       -6.19820
H          4.97300       -0.38270       -6.77450
H          3.83480        1.55780       -4.88850
H          1.49690        1.73530       -4.17610
H         -1.86620        1.89610       -2.44140
H         -3.26360        3.03840       -4.09330
H         -2.84070        2.74070       -7.72720
H         -3.64530        3.63210       -6.42720
H         -5.28300        2.28850       -7.72670
H         -5.18500        1.70060       -6.06330
H         -4.38170        0.81410       -7.35940
H         -1.49100        0.72610       -7.20800
H         -0.07630       -0.40820       -5.56050
H         -1.41980       -0.69460        1.42260
H         -2.65410       -5.47360       -2.87780
H         -1.57120       -5.04150       -6.65460
H         -2.79550       -9.98680       -8.55900
