158
ITIC-OE.sdf
C          7.71000        1.56640       -1.88650
O          6.53920        1.28540       -1.77770
C          8.30550        2.52750       -2.83220
C          7.66670        3.31390       -3.77140
C          8.44170        4.13680       -4.57600
C          9.82400        4.15060       -4.44500
C         10.47100        3.35500       -3.50960
C          9.70330        2.54150       -2.69030
C         10.07890        1.60360       -1.64050
C         11.30890        1.48110       -1.05830
C         12.42550        2.26670       -1.40840
N         13.35720        2.89410       -1.64610
C         11.58690        0.59080        0.00130
N         11.87120       -0.12080        0.85550
C          8.87790        0.90290       -1.22570
C          8.77790       -0.28810       -0.58550
C          7.49900       -0.75990       -0.12740
C          6.79550       -1.87700       -0.50860
C          5.47470       -1.82730       -0.04850
C          5.20380       -0.70660        0.75040
S          6.58340        0.29950        0.92330
C          3.84930       -0.58150        1.05450
C          2.97890        0.49320        1.65000
C          2.92360        0.47270        3.16580
C          2.37790        1.55300        3.84890
C          2.27490        1.53350        5.22720
C          2.72360        0.43720        5.95130
C          2.63810        0.40500        7.45850
O          2.34190       -0.87340        7.97890
C          3.26970       -0.64130        5.26840
C          3.36100       -0.62820        3.88910
C          3.55800        1.77860        1.09440
C          3.29330        2.18240       -0.20670
C          4.05660        3.17200       -0.80240
C          5.09240        3.77770       -0.10730
C          6.02360        4.77160       -0.74630
O          7.34870        4.29580       -0.57520
C          5.31500        3.41740        1.21460
C          4.56630        2.42040        1.80580
C          1.61180        0.04510        1.15520
C          1.70140       -1.21560        0.51110
C          3.08940       -1.56040        0.44460
S          4.03460       -2.73720       -0.41260
C          0.57940       -1.85850       -0.00250
C         -0.62900       -1.21310        0.12270
C         -1.99040       -1.67060       -0.37320
C         -2.10730       -1.73260       -1.88680
C         -3.21810       -2.35190       -2.45010
C         -3.39200       -2.36940       -3.81920
C         -2.45900       -1.76650       -4.65510
C         -2.66100       -1.80760       -6.14600
O         -1.68760       -1.02800       -6.79940
C         -1.35620       -1.14240       -4.09440
C         -1.18500       -1.11920       -2.72080
C         -2.32900       -2.99950        0.27290
C         -1.89700       -4.18380       -0.31370
C         -2.17400       -5.39980        0.27830
C         -2.89340       -5.46070        1.46610
C         -3.20250       -6.80450        2.08120
O         -3.55830       -7.78400        1.12840
C         -3.31590       -4.27890        2.05590
C         -3.02750       -3.05860        1.47020
C         -2.85550       -0.52820        0.08750
C         -2.09230        0.43900        0.72180
C         -0.72020        0.04020        0.77120
C          0.40030        0.67650        1.30180
S         -2.99100        1.82610        1.23330
C         -4.43670        1.11360        0.56880
C         -4.19030       -0.15000       -0.01140
S         -5.62810       -0.81990       -0.66430
C         -6.55500        0.60930       -0.16920
C         -5.75370        1.53630        0.48210
C         -7.91410        0.59380       -0.52660
C         -8.92310        1.50540       -0.35410
C        -10.27560        1.30500       -0.85020
C        -10.77300        0.21320       -1.51450
C        -10.07560       -0.96610       -1.85250
N         -9.60530       -1.96300       -2.17850
C        -12.10450        0.10110       -1.97000
N        -13.16570       -0.06880       -2.37430
C        -11.05380        2.49740       -0.51730
C        -12.37440        2.83930       -0.76600
C        -12.83750        4.06930       -0.31750
C        -12.01280        4.95020        0.36730
C        -10.68980        4.61840        0.62140
C        -10.22650        3.39650        0.17470
C         -8.87350        2.82450        0.31560
O         -7.94000        3.35920        0.87990
C         -1.82160       -1.03830       -8.17890
O         -0.80440       -0.24390       -8.69070
C         -4.78700       -7.54060        0.52350
O         -4.93170       -8.47710       -0.49110
C          8.31990        5.23770       -0.87190
O          9.55260        4.63050       -0.66230
C         10.63310        5.50920       -0.86840
C         -0.82650       -0.16430      -10.09350
C         -6.14660       -8.34370       -1.18560
C          1.04520       -1.29220        7.70560
O          0.93970       -2.60090        8.15780
C         -0.33540       -3.15080        7.94620
H          6.59200        3.27690       -3.86520
H          7.96960        4.76950       -5.31350
H         10.41110        4.79090       -5.08720
H         11.54660        3.37340       -3.43600
H          9.64700       -0.91840       -0.43870
H          7.18690       -2.63180       -1.16610
H          2.04380        2.42030        3.29880
H          1.84710        2.38030        5.74470
H          3.61240        0.65730        7.88940
H          1.89880        1.14130        7.81040
H          3.61400       -1.49560        5.83180
H          3.78360       -1.47830        3.37460
H          2.51450        1.69030       -0.77160
H          3.86230        3.44670       -1.82850
H          5.80290        4.89620       -1.81660
H          5.92170        5.75630       -0.25930
H          6.11900        3.88390        1.76220
H          4.79010        2.11490        2.81700
H          0.66780       -2.81450       -0.49440
H         -3.94850       -2.82620       -1.81090
H         -4.26050       -2.85290       -4.24220
H         -2.60180       -2.85380       -6.49610
H         -3.67090       -1.43770       -6.39400
H         -0.63840       -0.67020       -4.74480
H         -0.32400       -0.62080       -2.30090
H         -1.35390       -4.15240       -1.24660
H         -1.85050       -6.32090       -0.18270
H         -2.30780       -7.20620        2.56720
H         -3.99620       -6.70060        2.83720
H         -3.87550       -4.30910        2.98000
H         -3.36060       -2.14870        1.94760
H          0.30830        1.63610        1.78610
H         -6.13220        2.46760        0.86130
H         -8.18910       -0.31420       -1.05020
H        -13.04100        2.17850       -1.29490
H        -13.86450        4.34230       -0.50870
H        -12.40440        5.89870        0.70270
H        -10.02780        5.28610        1.15130
H         -2.81950       -0.64190       -8.48110
H         -1.74450       -2.07850       -8.57430
H         -4.82860       -6.50800        0.11000
H         -5.61160       -7.63650        1.26830
H          8.23170        5.58360       -1.92820
H          8.21010        6.13370       -0.21830
H         11.53860        4.93340       -0.69330
H         10.59260        6.35470       -0.17180
H         10.63590        5.89490       -1.89520
H         -0.70230       -1.15400      -10.55060
H         -1.76610        0.27380      -10.45270
H          0.00630        0.47540      -10.37500
H         -6.22780       -7.35710       -1.65880
H         -7.00490       -8.48450       -0.51690
H         -6.14720       -9.11790       -1.94890
H          0.82980       -1.23780        6.61450
H          0.30770       -0.63590        8.22520
H         -0.29750       -4.16540        8.33520
H         -1.10800       -2.58080        8.47780
H         -0.58670       -3.17310        6.87800
