138
ITIC-4Cl.sdf
C          5.98440        6.00160       -3.58830
O          5.62780        4.83800       -3.56770
C          7.06630        6.56450       -4.42050
C          7.88200        5.91610       -5.32450
C          8.84070        6.66280       -5.99790
C          8.96310        8.03500       -5.75420
C          8.13690        8.68350       -4.84180
C          7.17950        7.94260       -4.16880
C          6.17880        8.32430       -3.17200
C          5.98510        9.59690       -2.69930
C          5.01600        9.99200       -1.75300
N          4.25670       10.40280       -0.99490
C          6.74100       10.71610       -3.10970
N          7.31510       11.66740       -3.39690
C          5.45040        7.12390       -2.80910
C          4.44060        7.05150       -1.88080
C          3.66580        5.96350       -1.45890
C          2.67620        6.10500       -0.47990
C          2.02030        4.91940       -0.22220
C          2.49260        3.83850       -1.00070
S          3.76830        4.30850       -2.05320
C          1.79150        2.66500       -0.73700
C          1.82920        1.23040       -1.18850
C          1.56270        1.03840       -2.66850
C          1.94350       -0.14280       -3.29270
C          1.67660       -0.34430       -4.63290
C          1.02110        0.62330       -5.38360
C          0.78790        0.42520       -6.85320
C          1.99780        0.91350       -7.65250
C          0.63420        1.79710       -4.75210
C          0.89420        2.00180       -3.40950
C          3.18960        0.68100       -0.78900
C          4.29460        0.99500       -1.57160
C          5.55480        0.56520       -1.20620
C          5.74640       -0.18360       -0.05140
C          7.11140       -0.68930        0.31650
C          7.38100       -2.03550       -0.35890
C          4.63940       -0.48900        0.72770
C          3.37420       -0.05680        0.37060
C          0.67510        0.65080       -0.39070
C          0.10240        1.63010        0.45720
C          0.81550        2.84700        0.22940
S          0.71790        4.46220        0.84520
C         -0.97260        1.34310        1.29470
C         -1.48100        0.06620        1.24860
C         -2.63380       -0.51490        2.04860
C         -2.28950       -0.41540        3.52400
C         -2.59560        0.74050        4.23050
C         -2.25270        0.85810        5.56380
C         -1.59560       -0.17110        6.22560
C         -1.18710       -0.02620        7.66270
C          0.23040        0.54200        7.75900
C         -1.28150       -1.31900        5.51100
C         -1.61920       -1.44060        4.17580
C         -3.98470        0.10710        1.74210
C         -4.19340        0.89450        0.61960
C         -5.45140        1.40300        0.34900
C         -6.52920        1.12710        1.17880
C         -7.88130        1.72040        0.90780
C         -8.01810        3.07520        1.60590
C         -6.31610        0.32480        2.29310
C         -5.06200       -0.18180        2.57150
C         -2.65460       -1.92660        1.52800
C         -1.66800       -2.11010        0.57140
C         -0.91840       -0.90770        0.38890
C          0.16580       -0.62520       -0.43790
S         -1.63240       -3.69380       -0.12180
C         -2.98410       -4.14010        0.88250
C         -3.41490       -3.07740        1.70880
S         -4.74430       -3.55340        2.68200
C         -4.72540       -5.17650        1.96770
C         -3.71250       -5.30870        1.02710
C         -5.70920       -6.05780        2.44470
C         -6.03360       -7.34630        2.10150
C         -7.11600       -8.09030        2.72700
C         -7.87380       -7.71970        3.80780
C         -8.91110       -8.50880        4.35110
N         -9.76850       -9.09140        4.84410
C         -7.74750       -6.53310        4.56180
N         -7.72080       -5.60920        5.24440
C         -7.25090       -9.36050        2.01660
C         -8.13730      -10.41460        2.16920
C         -8.01460      -11.51650        1.32970
C         -7.02010      -11.57530        0.34730
C         -6.13060      -10.52010        0.19130
C         -6.25930       -9.42870        1.02540
C         -5.44470       -8.19530        1.04470
O         -4.49770       -7.97340        0.31870
Cl        -9.11180      -12.82540        1.51110
Cl        10.15290        8.94700       -6.59200
Cl        -6.89750      -12.95260       -0.67040
Cl         9.87680        5.89580       -7.13240
H          7.77520        4.85760       -5.50170
H          8.26300        9.74160       -4.68240
H          4.17960        7.97400       -1.37650
H          2.46650        7.04360        0.00090
H          2.46560       -0.90260       -2.72910
H          1.98250       -1.26760       -5.10400
H          0.62150       -0.63340       -7.06290
H         -0.09880        0.97960       -7.16690
H          1.83160        0.77450       -8.71820
H          2.17510        1.96970       -7.46240
H          2.88930        0.36100       -7.36420
H          0.12020        2.56210       -5.31660
H          0.57590        2.92110       -2.93950
H          4.16660        1.57720       -2.47230
H          6.40250        0.82200       -1.82450
H          7.18370       -0.80870        1.39940
H          7.86930        0.02990       -0.00020
H          6.64300       -2.77040       -0.04510
H          7.32400       -1.93370       -1.44030
H          8.37040       -2.40220       -0.09580
H          4.76590       -1.06720        1.63200
H          2.53060       -0.29800        1.00100
H         -1.38840        2.10080        1.94050
H         -3.11930        1.54710        3.73830
H         -2.50420        1.76190        6.10000
H         -1.87870        0.64210        8.17910
H         -1.21890       -0.99940        8.15660
H          0.93710       -0.11670        7.25910
H          0.27940        1.51910        7.28330
H          0.52850        0.64640        8.79940
H         -0.76850       -2.13150        6.00550
H         -1.36000       -2.34360        3.64200
H         -3.37320        1.11530       -0.04790
H         -5.59620        2.02030       -0.52620
H         -8.01940        1.85380       -0.16700
H         -8.66000        1.04790        1.27260
H         -8.99740        3.50600        1.41150
H         -7.89590        2.96060        2.68070
H         -7.25740        3.76470        1.24650
H         -7.14170        0.09040        2.94910
H         -4.91430       -0.80140        3.44430
H          0.57960       -1.38230       -1.08560
H         -3.53610       -6.21870        0.48450
H         -6.32480       -5.61010        3.21590
H         -8.91780      -10.40860        2.91180
H         -5.35850      -10.54800       -0.56130
