126
ITIC-Th1.sdf
C          1.65740        9.44130        2.12420
O          2.45590        8.55130        1.91340
C          1.99980       10.86480        2.30990
C          3.25040       11.45280        2.27590
C          3.34310       12.82020        2.47670
C          2.18320       13.54660        2.70360
C          0.91770       12.97740        2.74240
C          0.83180       11.60920        2.54100
C         -0.31600       10.70180        2.51620
C         -1.61540       11.09030        2.71150
C         -2.75960       10.26310        2.70360
N         -3.75270        9.68550        2.71820
C         -2.01450       12.42210        2.96060
N         -2.41660       13.47760        3.16440
C          0.18490        9.36170        2.25260
C         -0.62660        8.26210        2.14530
C         -0.35290        6.90920        1.87930
C          0.82140        6.20970        1.63940
C          0.58440        4.86630        1.39490
C         -0.77880        4.49960        1.44370
S         -1.77280        5.84850        1.80510
C         -0.97040        3.14940        1.17400
C         -2.13350        2.20550        1.01880
C         -1.41430        0.92990        0.60970
C         -0.01510        1.13120        0.57010
C          0.22410        2.49910        0.91160
S          1.61770        3.51690        1.01070
C          0.86070        0.11140        0.20860
C          0.30170       -1.09950       -0.12230
C          1.02040       -2.35900       -0.58040
C          1.86410       -2.96530        0.50460
C          1.84080       -2.08000       -1.80560
C         -0.15110       -3.26080       -0.87040
C         -1.34410       -2.62580       -0.56530
C         -1.09860       -1.29420       -0.10460
C         -1.97320       -0.28080        0.27690
S         -2.75020       -3.58040       -0.87310
C         -1.72830       -4.87160       -1.44060
C         -0.35670       -4.54310       -1.36560
S          0.62060       -5.82680       -1.94500
C         -0.81780       -6.79730       -2.30640
C         -1.98440       -6.12950       -1.96260
C         -0.56990       -8.06180       -2.86840
C         -1.41260       -9.02780       -3.35360
C         -0.94500      -10.28550       -3.91430
C          0.31770      -10.81210       -3.84510
C          0.68770      -12.05320       -4.40810
N          1.06130      -13.04790       -4.84180
C          1.42880      -10.24140       -3.18680
N          2.38300       -9.86920       -2.66670
C         -2.09200      -10.95160       -4.53110
C         -2.19070      -12.12560       -5.26000
C         -3.45320      -12.48870       -5.70870
C         -4.59760      -11.74470       -5.46060
C         -4.49120      -10.57050       -4.73340
C         -3.24260      -10.18630       -4.28150
C         -2.88400       -8.97920       -3.51060
O         -3.66930       -8.14360       -3.11280
F         -3.57140      -13.61980       -6.42230
F          2.28850       14.87100        2.89600
C         -2.87860        2.01390        2.30780
S          1.79000       -2.38020        2.13340
C          2.91130       -3.59680        2.66300
C          3.29560       -4.38720        1.62680
C          2.69540       -4.03550        0.39720
C          3.14890       -1.72300       -1.88410
C          3.57190       -1.48170       -3.21100
C          2.58900       -1.64980       -4.13310
S          1.09820       -2.11000       -3.37200
C          3.35790       -3.64160        4.08370
C          4.29950       -2.47980        4.40710
C          2.65180       -1.45100       -5.60810
C          1.95880       -0.15110       -6.02210
S         -4.37110        1.12870        2.32220
C         -4.53440        1.34260        4.03960
C         -3.48920        2.05100        4.53790
C         -2.54500        2.43170        3.55510
C         -3.05340        2.71930       -0.05250
C         -3.99080        3.69540        0.07520
C         -4.64100        3.99060       -1.14330
C         -4.18790        3.25360       -2.19090
S         -2.93600        2.16000       -1.68740
C         -5.72370        0.76720        4.73380
C         -5.73370        1.04230        6.23250
C         -4.66460        3.25310       -3.60230
C         -5.57020        2.05050       -3.87700
H          4.12640       10.84940        2.09590
H          4.29260       13.33120        2.46060
H          0.06170       13.60530        2.92380
H         -1.68590        8.44780        2.27750
H          1.78860        6.67730        1.64200
H          1.92680        0.27530        0.17850
H         -3.04030       -0.44100        0.29130
H         -2.96150       -6.55350       -2.10280
H          0.48900       -8.27970       -2.94750
H         -1.34570      -12.75190       -5.49240
H         -5.54600      -12.09130       -5.83910
H         -5.35460       -9.96000       -4.51980
H          3.98620       -5.20470        1.73270
H          2.87970       -4.55160       -0.52820
H          3.79610       -1.64600       -1.02870
H          4.57760       -1.19920       -3.46710
H          2.48920       -3.59270        4.74480
H          3.86930       -4.59010        4.25950
H          5.17990       -2.51820        3.76970
H          4.61880       -2.53060        5.44490
H          3.79480       -1.53010        4.24380
H          3.69990       -1.42270       -5.91340
H          2.16970       -2.29100       -6.11400
H          0.91100       -0.17380       -5.73100
H          2.01870       -0.01860       -7.09930
H          2.43280        0.70040       -5.53910
H         -3.38020        2.30760        5.57540
H         -1.65800        2.99720        3.77880
H         -4.21510        4.18380        1.00700
H         -5.41670        4.72980       -1.23350
H         -5.74550       -0.31340        4.56040
H         -6.63070        1.18000        4.28100
H         -4.85670        0.60970        6.70780
H         -5.74510        2.11200        6.42600
H         -6.62040        0.60250        6.68220
H         -3.80930        3.22080       -4.28130
H         -5.21550        4.17760       -3.78720
H         -5.91400        2.06490       -4.90810
H         -6.43650        2.07280       -3.21990
H         -5.02800        1.12370       -3.70290
