132
ITIC5.sdf
C         -0.18420       -1.07580       -0.35640
C          1.03320       -0.46750       -0.78870
C          2.00580       -0.12980        0.15500
C          1.73390       -0.37330        1.48000
C          0.53040       -1.01100        1.90820
C         -0.42930       -1.37630        0.96200
S          2.75770        0.10780        2.82170
C          1.57840       -0.50890        3.92830
C          0.48760       -1.10000        3.31490
C          1.38780       -0.50130        5.33030
C          0.14730       -1.10070        5.60940
C         -0.50150       -1.61070        4.33820
C         -1.86400       -1.00450        4.06130
C         -0.53970       -3.12660        4.43180
C         -2.86240       -1.73130        3.42660
C         -4.07520       -1.14000        3.12550
C         -4.32190        0.18830        3.44500
C         -3.31680        0.91290        4.07250
C         -2.10220        0.32720        4.37480
C         -1.41550       -3.72360        5.33200
C         -1.44170       -5.09580        5.48140
C         -0.59160       -5.91000        4.74220
C          0.27630       -5.30940        3.84190
C          0.30780       -3.93420        3.68890
C         -5.62140        0.83850        3.06850
C         -5.53190        1.42700        1.65880
C         -0.64840       -7.40370        4.88110
C         -1.70070       -7.98930        3.93720
S          2.18660        0.10070        6.71510
C          0.84190       -0.43790        7.71450
C         -0.15160       -1.07220        6.94980
C          0.69730       -0.25260        9.09350
C          1.51080        0.37470       10.00590
C          2.80810        1.00400        9.70830
C          3.27550        1.56060       10.98310
C          2.30910        1.27670       12.00170
C          1.20700        0.53670       11.41570
O          3.37530        1.05230        8.63160
C          0.10830        0.10750       12.11680
C         -0.98220       -0.61450       11.59740
C         -0.02560        0.37380       13.49470
N         -1.90110       -1.20620       11.24190
N         -0.15160        0.58380       14.61620
S         -1.32250       -1.31920       -1.66920
C         -0.19720       -0.59150       -2.76370
C          1.00510       -0.23220       -2.17930
C         -0.20700       -0.18670       -4.11900
C          1.01720        0.44450       -4.39900
C          1.93110        0.40620       -3.19050
C          2.33910        1.77870       -2.68870
C          3.12380       -0.45950       -3.55720
C          3.57660        1.98830       -2.09440
C          3.90730        3.22960       -1.58470
C          3.01390        4.29070       -1.65010
C          1.77510        4.07360       -2.23840
C          1.43870        2.83380       -2.74910
C          4.06010        0.03560       -4.45840
C          5.13330       -0.73810       -4.85200
C          5.30130       -2.02720       -4.36010
C          4.36380       -2.51610       -3.46200
C          3.28540       -1.74490       -3.06400
C          3.36440        5.62030       -1.04810
C          3.05810        5.62320        0.45110
C          6.44020       -2.88360       -4.83220
C          6.04770       -3.63610       -6.10540
S         -1.30120       -0.17660       -5.43060
C         -0.11480        0.68640       -6.40230
C          1.07110        0.92110       -5.68630
C         -0.27740        1.13540       -7.71720
C         -1.35960        1.07160       -8.56110
C         -2.66860        0.48160       -8.23500
C         -3.50940        0.71740       -9.41450
C         -2.73900        1.39910      -10.41140
C         -1.39730        1.61910       -9.90460
O         -2.98810       -0.08180       -7.20350
C         -0.39650        2.23370      -10.61410
C         -0.61940        2.71240      -11.92120
C          0.92110        2.45690      -10.17320
N         -0.78730        3.11330      -12.98360
N          2.00980        2.67370       -9.87570
C         -4.78610        0.46970       -9.79950
S         -5.06880        1.06790      -11.39330
C         -3.45300        1.65570      -11.54080
C          4.34760        2.25480       11.43920
S          4.19290        2.57460       13.12790
C          2.67120        1.76570       13.21850
H          2.92050        0.34920       -0.15280
H         -1.35190       -1.83840        1.27210
H         -2.69670       -2.76840        3.17200
H         -4.84210       -1.72170        2.63410
H         -3.48650        1.94910        4.32810
H         -1.33140        0.90950        4.85940
H         -2.08790       -3.10760        5.91030
H         -2.12750       -5.54200        6.18700
H          0.94410       -5.92290        3.25410
H          0.99850       -3.49520        2.98450
H         -5.85720        1.63460        3.77720
H         -6.42690        0.10230        3.10020
H         -4.74030        2.17150        1.60920
H         -5.31090        0.64550        0.93520
H         -6.47180        1.89970        1.38380
H         -0.90040       -7.66950        5.90960
H          0.32650       -7.83480        4.64530
H         -1.45890       -7.74790        2.90450
H         -2.68230       -7.57900        4.16360
H         -1.74420       -9.07090        4.04030
H         -1.04800       -1.45790        7.40120
H         -0.22690       -0.66630        9.48030
H          4.29190        1.18030       -2.03700
H          4.87640        3.37570       -1.12920
H          1.06320        4.88440       -2.29830
H          0.46760        2.68480       -3.19930
H          3.95260        1.03940       -4.84170
H          5.85230       -0.33590       -5.55120
H          4.47560       -3.51510       -3.06520
H          2.57140       -2.15190       -2.36330
H          4.42650        5.82520       -1.19770
H          2.79150        6.41150       -1.53540
H          3.63120        4.84950        0.95700
H          3.31140        6.58580        0.88890
H          2.00100        5.43080        0.62130
H          6.71020       -3.60340       -4.05700
H          7.31180       -2.25930       -5.03870
H          5.78360       -2.93460       -6.89350
H          5.18900       -4.27670       -5.91680
H          6.87290       -4.25370       -6.45200
H          1.90090        1.44260       -6.12830
H          0.60520        1.62980       -8.10630
H         -5.57270       -0.01810       -9.25980
H         -3.15240        2.14560      -12.44500
H          5.20950        2.59740       10.90260
H          2.15970        1.71230       14.15850
