ITIC-2Cl-beta.sdf
  xtb     12202114043D
 energy: -233.302654520758 gnorm: 0.000703141005 xtb: 6.4.1 (unknown)
138152  0     0  0            999 V2000
    6.4921   -5.9098    2.1437 C   0  0  0  0  0  0  0  0  0  0  0  0
    5.9547   -5.2708    1.2585 O   0  0  0  0  0  0  0  0  0  0  0  0
    7.3942   -7.0637    1.9724 C   0  0  0  0  0  0  0  0  0  0  0  0
    7.8298   -7.6827    0.8123 C   0  0  0  0  0  0  0  0  0  0  0  0
    8.6867   -8.7764    0.9174 C   0  0  0  0  0  0  0  0  0  0  0  0
    9.0882   -9.2259    2.1624 C   0  0  0  0  0  0  0  0  0  0  0  0
    8.6596   -8.6117    3.3341 C   0  0  0  0  0  0  0  0  0  0  0  0
    7.8086   -7.5244    3.2367 C   0  0  0  0  0  0  0  0  0  0  0  0
    7.1955   -6.6825    4.2667 C   0  0  0  0  0  0  0  0  0  0  0  0
    7.3753   -6.8370    5.6172 C   0  0  0  0  0  0  0  0  0  0  0  0
    6.7947   -6.0402    6.6264 C   0  0  0  0  0  0  0  0  0  0  0  0
    6.3689   -5.4463    7.5131 N   0  0  0  0  0  0  0  0  0  0  0  0
    8.1813   -7.8351    6.2049 C   0  0  0  0  0  0  0  0  0  0  0  0
    8.8150   -8.6192    6.7542 N   0  0  0  0  0  0  0  0  0  0  0  0
    6.3834   -5.6923    3.5917 C   0  0  0  0  0  0  0  0  0  0  0  0
    5.6363   -4.7148    4.2008 C   0  0  0  0  0  0  0  0  0  0  0  0
    4.7929   -3.7373    3.6558 C   0  0  0  0  0  0  0  0  0  0  0  0
    4.0936   -2.8389    4.4689 C   0  0  0  0  0  0  0  0  0  0  0  0
    3.2917   -1.9859    3.7394 C   0  0  0  0  0  0  0  0  0  0  0  0
    3.3619   -2.2086    2.3461 C   0  0  0  0  0  0  0  0  0  0  0  0
    4.4412   -3.4869    1.9484 S   0  0  0  0  0  0  0  0  0  0  0  0
    2.5139   -1.3578    1.6419 C   0  0  0  0  0  0  0  0  0  0  0  0
    2.1644   -1.0903    0.2035 C   0  0  0  0  0  0  0  0  0  0  0  0
    1.5571   -2.2773   -0.5187 C   0  0  0  0  0  0  0  0  0  0  0  0
    0.9400   -3.3043    0.1804 C   0  0  0  0  0  0  0  0  0  0  0  0
    0.3639   -4.3644   -0.4954 C   0  0  0  0  0  0  0  0  0  0  0  0
    0.3826   -4.4220   -1.8821 C   0  0  0  0  0  0  0  0  0  0  0  0
   -0.2773   -5.5529   -2.6166 C   0  0  0  0  0  0  0  0  0  0  0  0
   -1.7311   -5.2034   -2.9412 C   0  0  0  0  0  0  0  0  0  0  0  0
    0.9864   -3.3820   -2.5772 C   0  0  0  0  0  0  0  0  0  0  0  0
    1.5657   -2.3221   -1.9071 C   0  0  0  0  0  0  0  0  0  0  0  0
    3.4360   -0.6122   -0.4785 C   0  0  0  0  0  0  0  0  0  0  0  0
    4.3930   -1.5518   -0.8444 C   0  0  0  0  0  0  0  0  0  0  0  0
    5.5823   -1.1508   -1.4196 C   0  0  0  0  0  0  0  0  0  0  0  0
    5.8488    0.1948   -1.6431 C   0  0  0  0  0  0  0  0  0  0  0  0
    7.1617    0.6272   -2.2293 C   0  0  0  0  0  0  0  0  0  0  0  0
    8.2134    0.7770   -1.1282 C   0  0  0  0  0  0  0  0  0  0  0  0
    4.8939    1.1277   -1.2647 C   0  0  0  0  0  0  0  0  0  0  0  0
    3.7010    0.7331   -0.6844 C   0  0  0  0  0  0  0  0  0  0  0  0
    1.1073   -0.0130    0.3643 C   0  0  0  0  0  0  0  0  0  0  0  0
    0.9345    0.3302    1.7274 C   0  0  0  0  0  0  0  0  0  0  0  0
    1.8206   -0.5004    2.4807 C   0  0  0  0  0  0  0  0  0  0  0  0
    2.1833   -0.7057    4.1617 S   0  0  0  0  0  0  0  0  0  0  0  0
    0.0102    1.2894    2.1347 C   0  0  0  0  0  0  0  0  0  0  0  0
   -0.7587    1.8763    1.1570 C   0  0  0  0  0  0  0  0  0  0  0  0
   -1.8410    2.9307    1.3167 C   0  0  0  0  0  0  0  0  0  0  0  0
   -1.2205    4.1733    1.9290 C   0  0  0  0  0  0  0  0  0  0  0  0
   -1.1145    4.2861    3.3094 C   0  0  0  0  0  0  0  0  0  0  0  0
   -0.5273    5.3999    3.8783 C   0  0  0  0  0  0  0  0  0  0  0  0
   -0.0308    6.4281    3.0875 C   0  0  0  0  0  0  0  0  0  0  0  0
    0.6360    7.6225    3.7059 C   0  0  0  0  0  0  0  0  0  0  0  0
    2.1410    7.3834    3.8438 C   0  0  0  0  0  0  0  0  0  0  0  0
   -0.1256    6.3027    1.7083 C   0  0  0  0  0  0  0  0  0  0  0  0
   -0.7089    5.1885    1.1337 C   0  0  0  0  0  0  0  0  0  0  0  0
   -3.0559    2.4644    2.0997 C   0  0  0  0  0  0  0  0  0  0  0  0
   -3.3013    1.1212    2.3426 C   0  0  0  0  0  0  0  0  0  0  0  0
   -4.4460    0.7319    3.0155 C   0  0  0  0  0  0  0  0  0  0  0  0
   -5.3734    1.6677    3.4516 C   0  0  0  0  0  0  0  0  0  0  0  0
   -6.6349    1.2395    4.1438 C   0  0  0  0  0  0  0  0  0  0  0  0
   -7.7594    1.0349    3.1266 C   0  0  0  0  0  0  0  0  0  0  0  0
   -5.1307    3.0102    3.1875 C   0  0  0  0  0  0  0  0  0  0  0  0
   -3.9888    3.4056    2.5192 C   0  0  0  0  0  0  0  0  0  0  0  0
   -2.2722    3.1117   -0.1141 C   0  0  0  0  0  0  0  0  0  0  0  0
   -1.5453    2.2809   -0.9523 C   0  0  0  0  0  0  0  0  0  0  0  0
   -0.5957    1.5205   -0.2034 C   0  0  0  0  0  0  0  0  0  0  0  0
    0.3412    0.5758   -0.6134 C   0  0  0  0  0  0  0  0  0  0  0  0
   -2.0014    2.3702   -2.6176 S   0  0  0  0  0  0  0  0  0  0  0  0
   -3.2176    3.5441   -2.1980 C   0  0  0  0  0  0  0  0  0  0  0  0
   -3.2335    3.8335   -0.8153 C   0  0  0  0  0  0  0  0  0  0  0  0
   -4.4442    4.9908   -0.4429 S   0  0  0  0  0  0  0  0  0  0  0  0
   -4.9387    5.0670   -2.1447 C   0  0  0  0  0  0  0  0  0  0  0  0
   -4.1655    4.2312   -2.9380 C   0  0  0  0  0  0  0  0  0  0  0  0
   -6.0054    5.9368   -2.4285 C   0  0  0  0  0  0  0  0  0  0  0  0
   -6.7074    6.1827   -3.5807 C   0  0  0  0  0  0  0  0  0  0  0  0
   -7.8012    7.1339   -3.6627 C   0  0  0  0  0  0  0  0  0  0  0  0
   -8.1732    8.0619   -2.7246 C   0  0  0  0  0  0  0  0  0  0  0  0
   -7.5496    8.2935   -1.4794 C   0  0  0  0  0  0  0  0  0  0  0  0
   -7.1073    8.5702   -0.4560 N   0  0  0  0  0  0  0  0  0  0  0  0
   -9.2449    8.9670   -2.8819 C   0  0  0  0  0  0  0  0  0  0  0  0
  -10.1004    9.7309   -2.9308 N   0  0  0  0  0  0  0  0  0  0  0  0
   -8.4358    6.9753   -4.9714 C   0  0  0  0  0  0  0  0  0  0  0  0
   -9.5484    7.5840   -5.5272 C   0  0  0  0  0  0  0  0  0  0  0  0
   -9.9255    7.2259   -6.8162 C   0  0  0  0  0  0  0  0  0  0  0  0
   -9.2184    6.2863   -7.5448 C   0  0  0  0  0  0  0  0  0  0  0  0
   -8.0989    5.6698   -6.9903 C   0  0  0  0  0  0  0  0  0  0  0  0
   -7.7143    6.0164   -5.7050 C   0  0  0  0  0  0  0  0  0  0  0  0
   -6.5883    5.5095   -4.8942 C   0  0  0  0  0  0  0  0  0  0  0  0
   -5.7565    4.7064   -5.2604 O   0  0  0  0  0  0  0  0  0  0  0  0
   -7.2265    4.5007   -7.8940 Cl  0  0  0  0  0  0  0  0  0  0  0  0
    7.3284   -7.1230   -0.7303 Cl  0  0  0  0  0  0  0  0  0  0  0  0
    9.0310   -9.2663    0.0206 H   0  0  0  0  0  0  0  0  0  0  0  0
    9.7513  -10.0749    2.2273 H   0  0  0  0  0  0  0  0  0  0  0  0
    8.9916   -8.9869    4.2873 H   0  0  0  0  0  0  0  0  0  0  0  0
    5.6779   -4.6772    5.2827 H   0  0  0  0  0  0  0  0  0  0  0  0
    4.1818   -2.8380    5.5405 H   0  0  0  0  0  0  0  0  0  0  0  0
    0.9107   -3.2819    1.2602 H   0  0  0  0  0  0  0  0  0  0  0  0
   -0.1038   -5.1611    0.0653 H   0  0  0  0  0  0  0  0  0  0  0  0
    0.2599   -5.7534   -3.5458 H   0  0  0  0  0  0  0  0  0  0  0  0
   -0.2519   -6.4570   -2.0053 H   0  0  0  0  0  0  0  0  0  0  0  0
   -2.2874   -5.0115   -2.0263 H   0  0  0  0  0  0  0  0  0  0  0  0
   -1.7765   -4.3111   -3.5615 H   0  0  0  0  0  0  0  0  0  0  0  0
   -2.2095   -6.0218   -3.4739 H   0  0  0  0  0  0  0  0  0  0  0  0
    1.0088   -3.4052   -3.6575 H   0  0  0  0  0  0  0  0  0  0  0  0
    2.0434   -1.5305   -2.4662 H   0  0  0  0  0  0  0  0  0  0  0  0
    4.2031   -2.6027   -0.6828 H   0  0  0  0  0  0  0  0  0  0  0  0
    6.3135   -1.8951   -1.6991 H   0  0  0  0  0  0  0  0  0  0  0  0
    7.0420    1.5816   -2.7458 H   0  0  0  0  0  0  0  0  0  0  0  0
    7.5045   -0.1138   -2.9541 H   0  0  0  0  0  0  0  0  0  0  0  0
    8.3504   -0.1670   -0.6059 H   0  0  0  0  0  0  0  0  0  0  0  0
    9.1675    1.0822   -1.5515 H   0  0  0  0  0  0  0  0  0  0  0  0
    7.8988    1.5254   -0.4043 H   0  0  0  0  0  0  0  0  0  0  0  0
    5.0825    2.1799   -1.4248 H   0  0  0  0  0  0  0  0  0  0  0  0
    2.9760    1.4799   -0.3944 H   0  0  0  0  0  0  0  0  0  0  0  0
   -0.1016    1.5410    3.1779 H   0  0  0  0  0  0  0  0  0  0  0  0
   -1.5099    3.5057    3.9433 H   0  0  0  0  0  0  0  0  0  0  0  0
   -0.4601    5.4747    4.9543 H   0  0  0  0  0  0  0  0  0  0  0  0
    0.4674    8.5035    3.0835 H   0  0  0  0  0  0  0  0  0  0  0  0
    0.2103    7.8145    4.6926 H   0  0  0  0  0  0  0  0  0  0  0  0
    2.6239    8.2481    4.2926 H   0  0  0  0  0  0  0  0  0  0  0  0
    2.3303    6.5149    4.4708 H   0  0  0  0  0  0  0  0  0  0  0  0
    2.5868    7.2036    2.8680 H   0  0  0  0  0  0  0  0  0  0  0  0
    0.2571    7.0891    1.0737 H   0  0  0  0  0  0  0  0  0  0  0  0
   -0.7687    5.1154    0.0574 H   0  0  0  0  0  0  0  0  0  0  0  0
   -2.5973    0.3727    2.0091 H   0  0  0  0  0  0  0  0  0  0  0  0
   -4.6185   -0.3182    3.2039 H   0  0  0  0  0  0  0  0  0  0  0  0
   -6.9376    2.0015    4.8647 H   0  0  0  0  0  0  0  0  0  0  0  0
   -6.4635    0.3061    4.6837 H   0  0  0  0  0  0  0  0  0  0  0  0
   -7.4832    0.2679    2.4063 H   0  0  0  0  0  0  0  0  0  0  0  0
   -8.6745    0.7282    3.6276 H   0  0  0  0  0  0  0  0  0  0  0  0
   -7.9522    1.9585    2.5853 H   0  0  0  0  0  0  0  0  0  0  0  0
   -5.8427    3.7557    3.5104 H   0  0  0  0  0  0  0  0  0  0  0  0
   -3.8142    4.4545    2.3280 H   0  0  0  0  0  0  0  0  0  0  0  0
    0.4482    0.3182   -1.6557 H   0  0  0  0  0  0  0  0  0  0  0  0
   -4.3071    4.1369   -3.9986 H   0  0  0  0  0  0  0  0  0  0  0  0
   -6.3345    6.4859   -1.5539 H   0  0  0  0  0  0  0  0  0  0  0  0
  -10.1228    8.3166   -4.9859 H   0  0  0  0  0  0  0  0  0  0  0  0
  -10.7922    7.6926   -7.2587 H   0  0  0  0  0  0  0  0  0  0  0  0
   -9.5265    6.0220   -8.5438 H   0  0  0  0  0  0  0  0  0  0  0  0
  1  2  2  0  0  0  0
  1  3  1  0  0  0  0
  3  4  2  0  0  0  0
  4  5  1  0  0  0  0
  5  6  2  0  0  0  0
  6  7  1  0  0  0  0
  7  8  2  0  0  0  0
  3  8  1  0  0  0  0
  8  9  1  0  0  0  0
  9 10  2  0  0  0  0
 10 11  1  0  0  0  0
 11 12  3  0  0  0  0
 10 13  1  0  0  0  0
 13 14  3  0  0  0  0
  9 15  1  0  0  0  0
  1 15  1  0  0  0  0
 15 16  2  0  0  0  0
 16 17  1  0  0  0  0
 17 18  2  0  0  0  0
 18 19  1  0  0  0  0
 19 20  2  0  0  0  0
 20 21  1  0  0  0  0
 17 21  1  0  0  0  0
 20 22  1  0  0  0  0
 22 23  1  0  0  0  0
 23 24  1  0  0  0  0
 24 25  2  0  0  0  0
 25 26  1  0  0  0  0
 26 27  2  0  0  0  0
 27 28  1  0  0  0  0
 28 29  1  0  0  0  0
 27 30  1  0  0  0  0
 30 31  2  0  0  0  0
 24 31  1  0  0  0  0
 23 32  1  0  0  0  0
 32 33  2  0  0  0  0
 33 34  1  0  0  0  0
 34 35  2  0  0  0  0
 35 36  1  0  0  0  0
 36 37  1  0  0  0  0
 35 38  1  0  0  0  0
 38 39  2  0  0  0  0
 32 39  1  0  0  0  0
 23 40  1  0  0  0  0
 40 41  2  0  0  0  0
 41 42  1  0  0  0  0
 22 42  2  0  0  0  0
 42 43  1  0  0  0  0
 19 43  1  0  0  0  0
 41 44  1  0  0  0  0
 44 45  2  0  0  0  0
 45 46  1  0  0  0  0
 46 47  1  0  0  0  0
 47 48  2  0  0  0  0
 48 49  1  0  0  0  0
 49 50  2  0  0  0  0
 50 51  1  0  0  0  0
 51 52  1  0  0  0  0
 50 53  1  0  0  0  0
 53 54  2  0  0  0  0
 47 54  1  0  0  0  0
 46 55  1  0  0  0  0
 55 56  2  0  0  0  0
 56 57  1  0  0  0  0
 57 58  2  0  0  0  0
 58 59  1  0  0  0  0
 59 60  1  0  0  0  0
 58 61  1  0  0  0  0
 61 62  2  0  0  0  0
 55 62  1  0  0  0  0
 46 63  1  0  0  0  0
 63 64  2  0  0  0  0
 64 65  1  0  0  0  0
 45 65  1  0  0  0  0
 65 66  2  0  0  0  0
 40 66  1  0  0  0  0
 64 67  1  0  0  0  0
 67 68  1  0  0  0  0
 68 69  2  0  0  0  0
 63 69  1  0  0  0  0
 69 70  1  0  0  0  0
 70 71  1  0  0  0  0
 71 72  2  0  0  0  0
 68 72  1  0  0  0  0
 71 73  1  0  0  0  0
 73 74  2  0  0  0  0
 74 75  1  0  0  0  0
 75 76  2  0  0  0  0
 76 77  1  0  0  0  0
 77 78  3  0  0  0  0
 76 79  1  0  0  0  0
 79 80  3  0  0  0  0
 75 81  1  0  0  0  0
 81 82  2  0  0  0  0
 82 83  1  0  0  0  0
 83 84  2  0  0  0  0
 84 85  1  0  0  0  0
 85 86  2  0  0  0  0
 81 86  1  0  0  0  0
 86 87  1  0  0  0  0
 74 87  1  0  0  0  0
 87 88  2  0  0  0  0
 85 89  1  0  0  0  0
  4 90  1  0  0  0  0
  5 91  1  0  0  0  0
  6 92  1  0  0  0  0
  7 93  1  0  0  0  0
 16 94  1  0  0  0  0
 18 95  1  0  0  0  0
 25 96  1  0  0  0  0
 26 97  1  0  0  0  0
 28 98  1  0  0  0  0
 28 99  1  0  0  0  0
 29100  1  0  0  0  0
 29101  1  0  0  0  0
 29102  1  0  0  0  0
 30103  1  0  0  0  0
 31104  1  0  0  0  0
 33105  1  0  0  0  0
 34106  1  0  0  0  0
 36107  1  0  0  0  0
 36108  1  0  0  0  0
 37109  1  0  0  0  0
 37110  1  0  0  0  0
 37111  1  0  0  0  0
 38112  1  0  0  0  0
 39113  1  0  0  0  0
 44114  1  0  0  0  0
 48115  1  0  0  0  0
 49116  1  0  0  0  0
 51117  1  0  0  0  0
 51118  1  0  0  0  0
 52119  1  0  0  0  0
 52120  1  0  0  0  0
 52121  1  0  0  0  0
 53122  1  0  0  0  0
 54123  1  0  0  0  0
 56124  1  0  0  0  0
 57125  1  0  0  0  0
 59126  1  0  0  0  0
 59127  1  0  0  0  0
 60128  1  0  0  0  0
 60129  1  0  0  0  0
 60130  1  0  0  0  0
 61131  1  0  0  0  0
 62132  1  0  0  0  0
 66133  1  0  0  0  0
 72134  1  0  0  0  0
 73135  1  0  0  0  0
 82136  1  0  0  0  0
 83137  1  0  0  0  0
 84138  1  0  0  0  0
M  END
