134
ITIC-Th3.sdf
C          0.20050       -5.17070       -8.35910
O          0.34280       -5.56580       -7.21830
C          0.20840       -6.01270       -9.56160
C          0.37230       -7.38050       -9.65720
C          0.33970       -7.97720      -10.90660
C          0.14590       -7.20230      -12.05230
C         -0.01820       -5.81170      -11.95320
C          0.01130       -5.22120      -10.70790
C         -0.14530       -3.82830      -10.28980
C         -0.41270       -2.78740      -11.13990
C         -0.53230       -2.91790      -12.54100
N         -0.63890       -2.93230      -13.68390
C         -0.63310       -1.43870      -10.78580
N         -0.84180       -0.32270      -10.60810
C         -0.00630       -3.78210       -8.84190
C         -0.04290       -2.61990       -8.11950
C          0.03200       -2.36430       -6.73680
C          0.15040       -3.18840       -5.62840
C          0.14000       -2.46800       -4.44310
C          0.01470       -1.07230       -4.61320
S         -0.08470       -0.65660       -6.27470
C         -0.00920       -0.39440       -3.39770
C         -0.17100        1.02620       -2.91990
C         -0.17950        0.82370       -1.41160
C         -0.00610       -0.54160       -1.08820
C          0.08260       -1.26040       -2.32160
S          0.22500       -2.92550       -2.76440
C          0.03410       -0.98220        0.23170
C         -0.10640       -0.02810        1.21080
C         -0.09260       -0.23130        2.71800
C         -1.18320       -1.16580        3.15180
C          1.24360       -0.71320        3.20970
C         -0.32880        1.17720        3.19660
C         -0.42180        2.04680        2.12320
C         -0.29160        1.33590        0.88830
C         -0.32640        1.77650       -0.43180
S         -0.67150        3.69750        2.57340
C         -0.65820        3.22500        4.25030
C         -0.45500        1.83850        4.41390
S         -0.44880        1.40460        6.07380
C         -0.73600        3.08940        6.54430
C         -0.81360        3.92250        5.43990
C         -0.82100        3.32680        7.93010
C         -1.12200        4.45390        8.64510
C         -1.14640        4.49320       10.09920
C         -0.64370        3.55800       10.96460
C         -0.68800        3.67580       12.37090
N         -0.69090        3.69240       13.51870
C          0.02540        2.36640       10.61090
N          0.59510        1.38620       10.42540
C         -1.74650        5.76460       10.49960
C         -2.07390        6.27090       11.73890
C         -2.64360        7.55120       11.82230
C         -2.87080        8.30260       10.66700
C         -2.54410        7.78890        9.42280
C         -1.98920        6.52690        9.34190
C         -1.58050        5.77620        8.14770
O         -1.63240        6.18100        7.00320
O         -2.93710        7.96140       13.07390
O          0.09740       -7.69120      -13.30940
C         -1.47260        1.57590       -3.43000
S         -0.97350       -2.87990        2.98380
C         -2.55940       -3.18310        3.62740
C         -3.18370       -2.01850        3.93820
C         -2.40400       -0.86960        3.66540
C          1.55090       -1.12770        4.46720
C          2.91170       -1.47840        4.60920
C          3.63370       -1.31790        3.46960
S          2.63480       -0.72480        2.17860
C         -3.02960       -4.59320        3.76380
C         -4.43770       -4.70240        4.33600
C          5.07210       -1.62180        3.22760
C          5.23600       -2.84840        2.32800
S         -1.55450        2.23000       -5.03360
C         -3.26100        2.49450       -4.88150
C         -3.70940        2.09240       -3.66340
C         -2.69380        1.56340       -2.83470
C          0.98430        1.89080       -3.33390
C          2.11370        1.54110       -4.00200
C          2.98640        2.63220       -4.21690
C          2.52240        3.80500       -3.71400
S          0.98240        3.58230       -2.94880
C         -4.03330        3.05880       -6.02340
C         -4.10390        2.06890       -7.18780
C          3.17130        5.14600       -3.72040
C          3.67480        5.52740       -2.32700
C         -3.50850        9.23470       13.26840
C          0.24290       -9.07700      -13.51840
H          0.52140       -7.96890       -8.76500
H          0.46510       -9.04550      -10.98170
H         -0.16260       -5.25760      -12.86500
H         -0.15830       -1.71070       -8.69800
H          0.23570       -4.25680       -5.70360
H          0.17000       -2.02670        0.46710
H         -0.46860        2.82000       -0.66690
H         -0.98380        4.98030        5.51940
H         -0.63030        2.43410        8.51500
H         -1.91910        5.72820       12.65610
H         -3.30410        9.28790       10.73040
H         -2.71820        8.36010        8.52400
H         -4.17250       -1.96170        4.35480
H         -2.74640        0.13290        3.85150
H          0.83080       -1.18780        5.26420
H          3.33480       -1.83580        5.53090
H         -2.33110       -5.13730        4.40730
H         -2.99620       -5.07350        2.78080
H         -4.48330       -4.26130        5.32870
H         -5.15300       -4.19430        3.69390
H         -4.72530       -5.74820        4.41120
H          5.55640       -0.76360        2.75450
H          5.55750       -1.80160        4.18910
H          4.76780       -3.71730        2.78500
H          4.76740       -2.67160        1.36230
H          6.28990       -3.06300        2.16990
H         -4.73790        2.17110       -3.35810
H         -2.86570        1.19400       -1.83920
H          2.32470        0.54210       -4.33900
H          3.92390        2.54290       -4.73650
H         -3.55930        3.98150       -6.36780
H         -5.04140        3.30000       -5.67950
H         -3.10400        1.83550       -7.54660
H         -4.58160        1.14460       -6.87020
H         -4.67690        2.49230       -8.00870
H          2.45590        5.89890       -4.06090
H          4.00740        5.12650       -4.42250
H          4.39810        4.79620       -1.97280
H          4.15060        6.50450       -2.35200
H          2.84580        5.56130       -1.62350
H         -3.64850        9.33010       14.34370
H         -2.84380       10.03020       12.91810
H         -4.47820        9.32000       12.76840
H          0.16440       -9.21930      -14.59470
H          1.21910       -9.43410      -13.17660
H         -0.54990       -9.64320      -13.02000
