138
ITIC1.sdf
C         -1.04880       -0.42580        1.48740
C          0.05580        0.42740        1.78680
C          1.20900        0.35850        1.00270
C          1.21930       -0.51570       -0.05760
C          0.12380       -1.38590       -0.34240
C         -1.01660       -1.34060        0.46240
S          2.51190       -0.64700       -1.23640
C          1.58280       -1.81900       -2.10650
C          0.37700       -2.13910       -1.50790
C          1.69590       -2.49920       -3.34210
C          0.53400       -3.26630       -3.53030
C         -0.38410       -3.15570       -2.32940
C         -0.45380       -4.52770       -1.68190
C         -1.75530       -2.59720       -2.66170
C          0.19070       -4.81560       -0.48860
C          0.13910       -6.09200        0.04410
C         -0.54640       -7.11050       -0.60210
C         -1.19230       -6.81550       -1.79690
C         -1.14550       -5.54390       -2.33210
C         -2.88290       -2.98820       -1.95180
C         -4.11320       -2.41920       -2.22250
C         -4.25030       -1.44440       -3.20170
C         -3.11900       -1.05540       -3.90680
C         -1.88560       -1.61810       -3.63750
C         -0.63230       -8.48430       -0.00310
C         -1.87140       -8.60340        0.88680
C         -5.59740       -0.86380       -3.52000
C         -6.32150       -1.72980       -4.55280
S          2.78010       -2.55850       -4.66100
C          1.67260       -3.62860       -5.51200
C          0.53010       -3.90940       -4.74480
C          1.82820       -4.13710       -6.80690
C          2.81840       -3.93080       -7.73550
C          4.00480       -3.08880       -7.54840
C          4.73100       -3.11420       -8.83090
C          4.03980       -3.93440       -9.74000
C          2.84960       -4.47280       -9.07910
O          4.33470       -2.48370       -6.54320
C          1.95090       -5.33440       -9.65380
C          0.80590       -5.87240       -9.03040
C          2.04920       -5.81780      -10.97560
N         -0.14360       -6.35680       -8.60100
N          2.06230       -6.25090      -12.03900
C          5.89920       -2.46530       -9.17720
C          6.38680       -2.63810      -10.46530
C          5.71040       -3.44270      -11.37020
C          4.53570       -4.09870      -11.02350
S         -2.43750       -0.12060        2.51620
C         -1.55930        1.14630        3.30320
C         -0.26030        1.29880        2.85040
C         -1.84140        2.15370        4.25510
C         -0.70670        2.96410        4.40600
C          0.43980        2.42480        3.57660
C          0.99110        3.41790        2.57140
C          1.50200        1.94200        4.55170
C          0.14140        4.32230        1.94940
C          0.62570        5.19720        0.99510
C          1.96450        5.18270        0.62740
C          2.80810        4.26950        1.24600
C          2.33040        3.39640        2.20490
C          2.22260        2.88450        5.27710
C          3.16940        2.48420        6.19870
C          3.42090        1.13600        6.42440
C          2.69590        0.20100        5.70010
C          1.74560        0.59550        4.77430
C          2.50280        6.16230       -0.37460
C          3.04680        7.40380        0.33530
C          4.41450        0.70420        7.46370
C          3.73450        0.57170        8.82800
S         -3.16620        2.69780        5.17960
C         -2.20690        4.06630        5.76480
C         -0.90950        4.03060        5.25810
C         -2.87780        4.97040        6.60380
C         -2.50350        6.18320        7.12480
C         -1.25840        6.94950        6.89360
C         -1.49070        8.27830        7.49290
C         -2.75290        8.31010        8.10690
C         -3.38130        6.99960        7.94790
O         -0.23580        6.60240        6.33630
C         -4.56460        6.62600        8.53000
C         -5.16190        5.34860        8.47030
C         -5.35960        7.48020        9.32390
N         -5.71550        4.34220        8.49670
N         -6.06030        8.11500        9.97520
C         -0.65430        9.37730        7.48900
C         -1.09520       10.53800        8.10810
C         -2.34440       10.58120        8.71020
C         -3.18530        9.47590        8.72000
H          2.04440        1.00830        1.20350
H         -1.85930       -1.97740        0.25020
H          0.73690       -4.04450        0.03410
H          0.64660       -6.29790        0.97580
H         -1.73350       -7.59300       -2.31670
H         -1.65960       -5.33140       -3.25760
H         -2.80300       -3.74770       -1.18710
H         -4.97990       -2.73480       -1.65920
H         -3.20210       -0.29740       -4.67260
H         -1.01590       -1.29330       -4.19060
H          0.25990       -8.68480        0.59340
H         -0.68750       -9.23090       -0.79780
H         -2.77290       -8.41900        0.30680
H         -1.93450       -9.59900        1.31950
H         -1.82890       -7.87560        1.69400
H         -6.20000       -0.80900       -2.61110
H         -5.48140        0.14730       -3.91510
H         -7.29810       -1.31060       -4.78300
H         -5.74210       -1.78680       -5.47160
H         -6.45760       -2.73930       -4.17150
H         -0.25400       -4.54490       -5.11560
H          1.00650       -4.77570       -7.10820
H          6.40690       -1.84300       -8.45630
H          7.29760       -2.14290      -10.76660
H          6.10190       -3.56470      -12.36900
H          4.03290       -4.71580      -11.74980
H         -0.90580        4.34530        2.21500
H         -0.04880        5.89920        0.52600
H          3.85320        4.23830        0.97240
H          3.00850        2.70050        2.67820
H          2.04700        3.93640        5.10970
H          3.72220        3.23000        6.75160
H          2.87490       -0.85290        5.85880
H          1.19800       -0.15550        4.22420
H          3.30500        5.69770       -0.95170
H          1.71170        6.45940       -1.06570
H          2.25890        7.88650        0.90910
H          3.84690        7.12860        1.01870
H          3.43690        8.11590       -0.38820
H          4.85050       -0.25690        7.18390
H          5.21980        1.43830        7.53360
H          3.30220        1.52330        9.12910
H          2.93670       -0.16640        8.78300
H          4.45300        0.26160        9.58300
H         -0.18460        4.78330        5.50510
H         -3.88740        4.65260        6.83740
H          0.31160        9.31950        7.01090
H         -0.46490       11.41450        8.12050
H         -2.67490       11.49380        9.18320
H         -4.15100        9.54240        9.19300
