150
ITN-C9.sdf
C         -2.85530        1.86180       -8.88850
O         -1.81290        2.19910       -8.36510
C         -3.02630        1.49910      -10.30730
C         -2.06940        1.37800      -11.27270
C         -2.45190        0.98380      -12.57460
C         -3.82590        0.72630      -12.84890
C         -4.79560        0.87050      -11.82960
C         -4.40170        1.25250      -10.57490
C         -5.15160        1.46460       -9.34310
C         -6.51840        1.50200       -9.24300
C         -7.24380        1.81840       -8.07510
N         -7.90630        2.08890       -7.17640
C         -7.39150        1.27660      -10.32710
N         -8.15380        1.09700      -11.16690
C         -4.19530        1.70430       -8.27480
C         -4.50990        1.59030       -6.94740
C         -3.71490        1.74190       -5.79580
C         -2.45880        2.29110       -5.59200
C         -2.04910        2.17080       -4.27210
C         -2.98100        1.52690       -3.43050
S         -4.40450        1.10690       -4.29250
C         -2.49660        1.35740       -2.13690
C         -2.93900        0.67970       -0.86850
C         -3.35460       -0.73780       -1.21000
C         -2.46900       -1.80160       -1.12050
C         -2.86780       -3.07430       -1.48810
C         -4.15000       -3.31330       -1.96280
C         -4.56600       -4.68760       -2.40140
C         -4.28580       -4.87870       -3.89330
C         -5.02450       -2.23940       -2.07180
C         -4.63400       -0.96730       -1.70230
C         -4.04150        1.43120       -0.14010
C         -4.76140        0.79580        0.86390
C         -5.74340        1.47470        1.55910
C         -6.03250        2.80300        1.27330
C         -7.07320        3.55060        2.05540
C         -6.44170        4.22830        3.27330
C         -5.30250        3.43580        0.27680
C         -4.31640        2.76190       -0.42010
C         -1.67630        0.79510       -0.03130
C         -0.69390        1.56160       -0.70290
C         -1.21600        1.86780       -1.99810
S         -0.58100        2.59290       -3.43490
C          0.54430        1.83850       -0.12900
C          0.80260        1.28370        1.10200
C          2.08500        1.35560        1.91250
C          2.27950        2.68890        2.61870
C          3.47890        2.92530        3.28040
C          3.67520        4.10160        3.97610
C          2.68100        5.07110        4.03120
C          2.88120        6.32910        4.82580
C          2.46950        6.11050        6.28320
C          1.48280        4.82470        3.37610
C          1.27850        3.64640        2.67950
C          3.26730        1.01320        1.03020
C          3.69320       -0.29830        0.87720
C          4.75080       -0.59820        0.03840
C          5.39810        0.39850       -0.67880
C          6.57650        0.07880       -1.55210
C          7.87740        0.19710       -0.75530
C          4.95820        1.70790       -0.53290
C          3.90600        2.01370        0.30830
C          1.79360        0.34060        2.98500
C          0.48530       -0.10590        2.89000
C         -0.15220        0.45600        1.74020
C         -1.41620        0.23790        1.19880
S          0.05230       -1.29220        4.07270
C          1.67440       -1.22650        4.70300
C          2.47420       -0.28060        4.02800
S          4.07200       -0.26310        4.65700
C          3.67700       -1.57880        5.77430
C          2.34620       -1.95150        5.67720
C          4.73580       -2.04980        6.57430
C          4.86810       -3.22290        7.26630
C          6.05340       -3.57190        8.03060
C          6.97820       -2.69960        8.54370
C          6.91350       -1.29450        8.43690
N          6.91620       -0.14610        8.41310
C          8.09800       -3.09940        9.30150
N          9.02910       -3.36420        9.91910
C          6.04500       -5.01490        8.23400
C          6.97440       -5.86680        8.76830
C          6.69770       -7.25270        8.82090
C          5.45930       -7.75680        8.32910
C          4.51520       -6.85820        7.78310
C          4.81410       -5.52760        7.73700
C          4.00340       -4.42470        7.18830
O          2.87620       -4.52280        6.74880
C          5.21290       -9.14220        8.39230
C          6.14650       -9.99590        8.91430
C          7.36650       -9.50080        9.39790
C          7.63610       -8.16000        9.35290
C         -1.50860        0.82930      -13.60920
C         -1.90010        0.43530      -14.86000
C         -3.25260        0.18090      -15.13110
C         -4.19430        0.32350      -14.14850
H         -1.03220        1.57380      -11.04430
H         -5.82690        0.66230      -12.06670
H         -5.52020        1.26510       -6.72360
H         -1.87780        2.73410       -6.37880
H         -1.46330       -1.63980       -0.76050
H         -2.16880       -3.89420       -1.40330
H         -4.01730       -5.44070       -1.83240
H         -5.63270       -4.82790       -2.21560
H         -3.22460       -4.75420       -4.09780
H         -4.83460       -4.14380       -4.47810
H         -4.58740       -5.87330       -4.21320
H         -6.02430       -2.40030       -2.44830
H         -5.32970       -0.14520       -1.78870
H         -4.56360       -0.24160        1.09100
H         -6.29810        0.96300        2.33270
H         -7.53760        4.30930        1.42240
H         -7.85110        2.86170        2.39020
H         -5.67130        4.92910        2.95930
H         -7.19490        4.77070        3.84000
H         -5.98380        3.48680        3.92420
H         -5.50970        4.46910        0.03780
H         -3.76350        3.27940       -1.19050
H          1.27560        2.43720       -0.64970
H          4.26440        2.18420        3.24320
H          4.61400        4.26950        4.48350
H          3.93130        6.62580        4.79030
H          2.28240        7.13640        4.39950
H          1.42120        5.82590        6.34160
H          3.06450        5.31700        6.72940
H          2.61540        7.02070        6.86030
H          0.69480        5.56370        3.40880
H          0.33500        3.47780        2.18100
H          3.19800       -1.09400        1.41500
H          5.07430       -1.62440       -0.06300
H          6.60860        0.76910       -2.39740
H          6.48430       -0.93660       -1.94280
H          7.99290        1.20680       -0.36770
H          7.86970       -0.49250        0.08590
H          8.73260       -0.03320       -1.38610
H          5.44490        2.49850       -1.08600
H          3.58380        3.03970        0.41460
H         -2.13760       -0.37870        1.71200
H          1.90660       -2.72400        6.27880
H          5.60060       -1.39500        6.56890
H          7.92340       -5.51580        9.14180
H          3.57280       -7.22240        7.40140
H          4.27170       -9.51760        8.01760
H          5.95030      -11.05690        8.95660
H          8.09250      -10.18770        9.80660
H          8.57370       -7.77390        9.72530
H         -0.46830        1.02630      -13.39410
H         -1.17000        0.31700      -15.64670
H         -3.54510       -0.12930      -16.12310
H         -5.23720        0.12980      -14.35270
