174
ITOIC.sdf
C          0.08760       -1.73810       -1.00060
C          0.94360       -1.26740       -2.02510
C          0.61890       -0.15640       -2.80070
C         -0.53830        0.51450       -2.48410
C         -1.35260        0.08880       -1.40790
C         -1.07260       -1.07000       -0.68800
C          0.66880       -2.97770       -0.33880
C          2.02470       -3.03820       -0.99360
C          2.12520       -2.06920       -1.98440
C          3.20010       -3.74960       -0.80410
C          4.20780       -3.31650       -1.65350
S          3.67230       -2.03860       -2.72660
C         -1.07490        1.80230       -3.09040
C         -2.16670        2.14350       -2.10710
C         -2.33580        1.10420       -1.20300
C         -3.00590        3.22230       -1.85960
C         -3.79380        3.01650       -0.73820
S         -3.53710        1.43780       -0.02420
C          5.55380       -3.73790       -1.65650
C         -4.67150        3.94200       -0.12570
C          0.04190        2.82110       -3.17090
C         -1.74260        1.59300       -4.44000
C         -0.22950       -4.14340       -0.72230
C          0.84890       -2.88170        1.16170
C          0.04750       -4.93990       -1.82410
C         -0.80480       -5.97000       -2.17740
C         -1.95630       -6.22790       -1.44670
C         -2.23580       -5.41990       -0.35210
C         -1.38620       -4.39090        0.00650
C          0.86050       -1.66310        1.82410
C          1.06380       -1.61210        3.19180
C          1.27700       -2.76940        3.92720
C          1.28710       -3.98540        3.25520
C          1.07950       -4.04240        1.89120
C          0.31240        3.67580       -2.11170
C          1.36730        4.56700       -2.18070
C          2.18640        4.61870       -3.30020
C          1.91950        3.75280       -4.35280
C          0.86400        2.86340       -4.29040
C         -2.01370        0.32890       -4.94160
C         -2.65990        0.18340       -6.15660
C         -3.05490        1.28990       -6.89500
C         -2.79170        2.55370       -6.38100
C         -2.14630        2.70510       -5.16960
C          3.30140        5.62000       -3.39350
C         -3.79480        1.12590       -8.19130
C          1.44380       -2.71690        5.41850
C         -2.89960       -7.32050       -1.86050
C          0.08920       -2.87720        6.11190
C         -3.91710       -6.79310       -2.87410
C          2.79910        6.91960       -4.02570
C         -5.30280        1.05820       -7.94090
S         -4.99770        5.49050       -0.82360
C         -5.96270        5.96650        0.55050
C         -6.08930        4.91240        1.46480
C         -5.31980        3.78660        1.09470
S          6.15960       -4.88890       -0.51430
C          7.77750       -4.71470       -1.14200
C          7.80870       -3.78630       -2.20340
C          6.55990       -3.21770       -2.47380
O          6.26470       -2.26560       -3.41070
C          7.01920       -1.05850       -3.33170
C          6.71540       -0.26410       -2.06780
C          8.93080       -5.38760       -0.73500
C          9.11630       -6.26430        0.30640
C          8.11990       -6.58670        1.33080
C          8.83750       -7.35880        2.36410
C         10.17380       -7.53910        1.96470
C         10.35860       -6.91620        0.65320
C          8.36460       -7.85380        3.56260
C          9.25000       -8.53980        4.38310
C         10.57100       -8.71640        3.99990
C         11.04910       -8.22350        2.79170
O          6.94160       -6.27340        1.34950
C         11.48810       -7.00790       -0.12020
C         11.60900       -6.52210       -1.43760
C         12.67330       -7.65560        0.28370
N         13.66970       -8.15830        0.55430
N         11.77880       -6.19060       -2.52490
O         -5.14680        2.64870        1.84460
C         -4.08430        2.72620        2.80220
C         -4.40020        3.57840        4.02270
C         -6.52980        7.24820        0.62880
C         -6.75260        7.91140        1.80920
C         -6.00560        7.64080        3.05740
C         -6.35770        8.74720        3.97160
C         -7.24340        9.62970        3.32970
C         -7.52530        9.11640        1.99010
C         -5.91270        8.97640        5.25820
C         -6.37010       10.10820        5.91920
C         -7.24120       10.98580        5.29090
C         -7.68730       10.76140        3.99440
O         -5.17500        6.77920        3.26300
C         -8.43390        9.63580        1.10300
C         -9.18400       10.80630        1.33110
C         -8.75970        9.04420       -0.13460
N         -9.81670       11.75640        1.45710
N         -9.09050        8.60120       -1.14140
O          8.98210       -3.48500       -2.81860
C          9.03100       -3.72330       -4.22690
C          9.18270       -5.20690       -4.53320
O         -6.92710        5.02450        2.50810
C         -7.69250        3.87800        2.86860
C         -8.79320        3.61160        1.84850
H          1.27610        0.17870       -3.58830
H         -1.72080       -1.39000        0.11300
H          3.35790       -4.52770       -0.07950
H         -3.03880        4.13850       -2.42100
H          0.93730       -4.76240       -2.40990
H         -0.56760       -6.58560       -3.03360
H         -3.12820       -5.60110        0.23000
H         -1.61590       -3.78340        0.86970
H          0.70890       -0.74660        1.27270
H          1.06110       -0.65450        3.69330
H          1.46270       -4.89800        3.80640
H          1.08780       -4.99730        1.38560
H         -0.30600        3.64800       -1.22620
H          1.55900        5.23000       -1.34890
H          2.54730        3.77370       -5.23250
H          0.66960        2.20230       -5.12270
H         -1.71760       -0.54930       -4.38670
H         -2.85740       -0.80910       -6.53620
H         -3.09440        3.42930       -6.93740
H         -1.94210        3.69530       -4.78890
H          3.69340        5.83260       -2.39680
H          4.11320        5.21480       -4.00120
H         -3.57760        1.96840       -8.85100
H         -3.47150        0.20940       -8.68900
H          1.88660       -1.76220        5.70940
H          2.11130       -3.51710        5.74430
H         -3.42860       -7.70460       -0.98610
H         -2.33880       -8.14300       -2.30930
H         -0.58680       -2.08040        5.80940
H          0.20700       -2.84160        7.19250
H         -0.36290       -3.82930        5.84270
H         -4.49530       -5.97970       -2.44140
H         -4.60020       -7.58410       -3.17490
H         -3.40900       -6.41710       -3.75930
H          1.99670        7.34530       -3.42740
H          2.41560        6.72990       -5.02580
H          3.60490        7.64660       -4.09440
H         -5.54130        0.21610       -7.29490
H         -5.64690        1.96880       -7.45570
H         -5.83970        0.93990       -8.87920
H          6.72000       -0.49880       -4.22060
H          8.09220       -1.27220       -3.38420
H          7.28910        0.65830       -2.07350
H          6.98760       -0.83920       -1.18460
H          5.65650       -0.02350       -2.01630
H          9.79680       -5.12670       -1.33300
H          7.33310       -7.70260        3.84150
H          8.90960       -8.93740        5.32750
H         11.24730       -9.24800        4.65250
H         12.08170       -8.37290        2.52140
H         -3.91640        1.68510        3.08920
H         -3.18040        3.10660        2.30990
H         -5.24910        3.17300        4.56810
H         -4.61850        4.60610        3.74130
H         -3.53450        3.57910        4.68000
H         -6.75290        7.73830       -0.31080
H         -5.23040        8.28340        5.72640
H         -6.04410       10.30970        6.92880
H         -7.58070       11.86550        5.81700
H         -8.35740       11.46410        3.52640
H          8.13560       -3.32250       -4.71570
H          9.90900       -3.17020       -4.56780
H         10.07300       -5.60000       -4.04760
H          9.27300       -5.34830       -5.60630
H          8.31430       -5.75870       -4.17720
H         -7.05650        2.99580        2.97100
H         -8.11910        4.13640        3.84060
H         -9.42270        2.79680        2.19440
H         -8.36000        3.33590        0.88900
H         -9.40520        4.50040        1.71200
