166
ITOTIC-2F.sdf
C         -4.57190       -4.50470       -5.25730
C         -4.42960       -3.57350       -4.20270
C         -4.38890       -3.83150       -2.84490
C         -4.06970       -2.69090       -2.11410
C         -3.88930       -1.53700       -2.89780
S         -4.12770       -1.87830       -4.57000
C         -3.47810       -0.44090       -2.14400
C         -3.03060        0.97280       -2.40150
C         -2.00800        0.92860       -3.52010
C         -2.45230        0.89000       -4.83680
C         -1.55280        0.76310       -5.87650
C         -0.18870        0.66790       -5.63060
C          0.77760        0.47350       -6.76300
C          0.87400       -1.00930       -7.12800
C          0.24810        0.69880       -4.31360
C         -0.64870        0.82180       -3.26700
C         -4.17550        1.91840       -2.72030
C         -5.49210        1.58260       -2.43980
C         -6.51600        2.46980       -2.71640
C         -6.25270        3.71450       -3.27160
C         -7.36590        4.68710       -3.53450
C         -7.66750        5.50870       -2.27950
C         -4.93150        4.05150       -3.53630
C         -3.90510        3.16700       -3.26580
C         -2.47480        1.34650       -1.03670
C         -2.69800        0.30800       -0.10110
C         -3.31370       -0.76950       -0.80930
S         -3.72940       -2.40800       -0.43050
C         -2.24400        0.39070        1.21270
C         -1.52280        1.50850        1.55750
C         -0.80520        1.78960        2.86580
C         -1.73590        2.22680        3.98670
C         -3.07650        2.50590        3.76940
C         -3.87450        2.94680        4.81060
C         -3.35530        3.12520        6.08490
C         -4.21250        3.65030        7.20030
C         -4.12940        5.17690        7.26370
C         -2.00820        2.85370        6.29280
C         -1.20710        2.41130        5.25910
C          0.02840        0.59310        3.27230
C          1.33670        0.45020        2.83290
C          2.08390       -0.65250        3.20290
C          1.54040       -1.64600        4.00550
C          2.37290       -2.81050        4.45790
C          3.07220       -2.47930        5.77810
C          0.22260       -1.51020        4.42250
C         -0.52630       -0.40690        4.06090
C         -0.00290        3.00450        2.48540
C         -0.37010        3.45580        1.22940
C         -1.28090        2.53890        0.61700
C         -1.78550        2.48190       -0.67990
S          0.48690        4.87220        0.71570
C          1.40550        4.83390        2.19500
C          1.01470        3.77770        3.03730
S          2.02290        3.68610        4.43220
C          2.97410        5.05030        3.85920
C          2.49360        5.56240        2.66810
C          7.23470        5.23780        6.88610
C          7.52190        4.18500        7.72600
C          8.71370        4.03790        8.53060
C          9.76080        4.91700        8.64880
C         10.89320        4.69600        9.46030
N         11.84160        4.58270       10.09740
C          9.87240        6.15810        7.98950
N         10.04440        7.17860        7.48950
C          8.62050        2.74590        9.21690
C          9.48670        2.10520       10.08600
C          9.10100        0.85840       10.56190
C          7.91040        0.24050       10.21210
C          7.04660        0.88760        9.34190
C          7.41020        2.12830        8.85570
C          6.67780        3.00610        7.92320
O          5.58730        2.77910        7.42650
C         -3.74260       -8.45510       -8.91750
O         -3.84690       -8.83670       -7.76760
C         -3.25590       -9.27710      -10.04440
C         -2.80610      -10.58350      -10.01890
C         -2.37490      -11.15710      -11.20450
C         -2.40900      -10.40350      -12.36810
C         -2.86090       -9.09140      -12.41840
C         -3.29160       -8.52550      -11.23020
C         -3.81830       -7.19600      -10.92170
C         -4.12030       -6.23630      -11.85320
C         -3.89890       -6.38430      -13.23860
N         -3.73920       -6.43600      -14.37430
C         -4.72560       -4.98950      -11.58770
N         -5.23320       -3.96570      -11.46990
C         -4.02040       -7.12100       -9.48780
C         -4.25470       -5.94310       -8.81700
C          6.14660        5.43600        6.03270
C          6.06490        6.54460        5.18140
C          4.95630        6.54520        4.35100
C          4.13890        5.41950        4.57030
S          4.77170        4.38750        5.80600
O          4.59480        7.46840        3.43310
C          5.47040        8.55780        3.18750
C          6.66290        8.16450        2.32290
C         -4.82030       -5.88690       -5.15850
C         -4.76650       -6.53550       -6.38800
C         -4.46720       -5.69790       -7.45330
S         -4.32210       -4.04070       -6.90170
O         -5.08140       -6.43160       -3.95210
C         -5.22740       -7.84280       -3.86280
C         -3.90300       -8.58710       -3.98460
F          9.92800        0.21780       11.40470
F         -1.97960      -10.97110      -13.50730
H         -4.55000       -4.80700       -2.42920
H         -3.50940        0.96360       -5.04740
H         -1.91600        0.73420       -6.89350
H          1.76530        0.84050       -6.47740
H          0.44210        1.03650       -7.63640
H          1.57100       -1.15490       -7.95000
H          1.21840       -1.58700       -6.27290
H         -0.10060       -1.38910       -7.42650
H          1.30480        0.62140       -4.09980
H         -0.28550        0.83230       -2.24950
H         -5.72520        0.61990       -2.00840
H         -7.53670        2.18680       -2.50180
H         -8.26590        4.14620       -3.83440
H         -7.08540        5.36030       -4.34690
H         -7.96060        4.85540       -1.46070
H         -8.47530        6.21140       -2.46980
H         -6.78590        6.06690       -1.97200
H         -4.70320        5.01640       -3.96620
H         -2.88610        3.44120       -3.49680
H         -2.41400       -0.41540        1.90990
H         -3.50460        2.37790        2.78590
H         -4.91900        3.15460        4.62600
H         -3.87810        3.23270        8.15210
H         -5.25100        3.35280        7.04190
H         -4.47140        5.61320        6.32780
H         -4.74830        5.55890        8.07230
H         -3.10240        5.49280        7.43260
H         -1.58160        2.98940        7.27610
H         -0.16260        2.20060        5.43880
H          1.77910        1.20550        2.19960
H          3.10540       -0.74160        2.86180
H          1.73910       -3.68890        4.59620
H          3.12420       -3.04620        3.70150
H          2.33740       -2.25850        6.54920
H          3.71240       -1.60820        5.65820
H          3.68140       -3.31800        6.10730
H         -0.22290       -2.27680        5.04070
H         -1.54650       -0.31410        4.40490
H         -1.58700        3.27530       -1.38350
H          2.94540        6.39670        2.16700
H          7.96490        6.03640        6.84050
H         10.42820        2.52390       10.40030
H          7.67790       -0.73000       10.62090
H          6.11080        0.44180        9.04320
H         -2.79360      -11.13400       -9.09120
H         -2.01240      -12.17200      -11.24190
H         -2.85620       -8.56420      -13.35770
H         -4.21130       -5.03910       -9.41310
H          6.82750        7.30270        5.19440
H          4.84990        9.28720        2.66010
H          5.80070        9.00140        4.13360
H          7.27040        9.04170        2.12030
H          7.27740        7.41890        2.82140
H          6.31610        7.74960        1.37970
H         -4.92280       -7.58650       -6.53370
H         -5.65570       -7.99710       -2.86860
H         -5.94430       -8.19780       -4.61170
H         -4.06090       -9.63740       -3.75730
H         -3.18220       -8.17850       -3.28010
H         -3.49550       -8.50810       -4.98890
