IXIC-4Cl.sdf
  xtb     12202115083D
 energy: -246.865149768637 gnorm: 0.000572411608 xtb: 6.4.1 (unknown)
138153  0     0  0            999 V2000
    1.4543    0.8289    1.4086 C   0  0  0  0  0  0  0  0  0  0  0  0
    2.7747    0.6717    0.9851 C   0  0  0  0  0  0  0  0  0  0  0  0
    1.3838    1.6574    2.6663 C   0  0  0  0  0  0  0  0  0  0  0  0
    2.8515    1.9188    2.8980 C   0  0  0  0  0  0  0  0  0  0  0  0
    3.6281    1.3254    1.9010 C   0  0  0  0  0  0  0  0  0  0  0  0
    0.8309    0.9186    3.8725 C   0  0  0  0  0  0  0  0  0  0  0  0
    0.5681    2.9050    2.3737 C   0  0  0  0  0  0  0  0  0  0  0  0
    3.6359    2.5458    3.8577 C   0  0  0  0  0  0  0  0  0  0  0  0
    5.0166    2.4313    3.5713 C   0  0  0  0  0  0  0  0  0  0  0  0
    5.3328    1.5357    2.1061 S   0  0  0  0  0  0  0  0  0  0  0  0
   -0.8183    2.8188    2.3772 C   0  0  0  0  0  0  0  0  0  0  0  0
   -1.5880    3.9269    2.0827 C   0  0  0  0  0  0  0  0  0  0  0  0
   -0.9954    5.1456    1.7758 C   0  0  0  0  0  0  0  0  0  0  0  0
    0.3905    5.2219    1.7677 C   0  0  0  0  0  0  0  0  0  0  0  0
    1.1671    4.1144    2.0562 C   0  0  0  0  0  0  0  0  0  0  0  0
    0.6712   -0.4584    3.8825 C   0  0  0  0  0  0  0  0  0  0  0  0
    0.1926   -1.0964    5.0131 C   0  0  0  0  0  0  0  0  0  0  0  0
   -0.1200   -0.3797    6.1594 C   0  0  0  0  0  0  0  0  0  0  0  0
    0.0559    0.9988    6.1456 C   0  0  0  0  0  0  0  0  0  0  0  0
    0.5246    1.6429    5.0179 C   0  0  0  0  0  0  0  0  0  0  0  0
    5.7135    4.2991    6.5994 C   0  0  0  0  0  0  0  0  0  0  0  0
    5.1842    4.9300    7.6998 C   0  0  0  0  0  0  0  0  0  0  0  0
    5.9452    5.5748    8.7513 C   0  0  0  0  0  0  0  0  0  0  0  0
    4.9866    6.1042    9.7216 C   0  0  0  0  0  0  0  0  0  0  0  0
    3.6855    5.7999    9.2859 C   0  0  0  0  0  0  0  0  0  0  0  0
    3.7574    5.0590    8.0106 C   0  0  0  0  0  0  0  0  0  0  0  0
    2.8100    4.6490    7.3649 O   0  0  0  0  0  0  0  0  0  0  0  0
    7.3083    5.6862    8.8521 C   0  0  0  0  0  0  0  0  0  0  0  0
    8.2514    5.1852    7.9303 C   0  0  0  0  0  0  0  0  0  0  0  0
    9.0880    4.8130    7.2365 N   0  0  0  0  0  0  0  0  0  0  0  0
    7.9724    6.3318    9.9169 C   0  0  0  0  0  0  0  0  0  0  0  0
    8.5795    6.8389   10.7487 N   0  0  0  0  0  0  0  0  0  0  0  0
    5.1656    6.8015   10.9047 C   0  0  0  0  0  0  0  0  0  0  0  0
    4.0421    7.1824   11.6315 C   0  0  0  0  0  0  0  0  0  0  0  0
    2.7516    6.8743   11.1886 C   0  0  0  0  0  0  0  0  0  0  0  0
    2.5680    6.1749   10.0021 C   0  0  0  0  0  0  0  0  0  0  0  0
    4.2562    8.0477   13.0996 Cl  0  0  0  0  0  0  0  0  0  0  0  0
    1.3874    7.3601   12.1114 Cl  0  0  0  0  0  0  0  0  0  0  0  0
    3.3503    3.4281    5.3083 S   0  0  0  0  0  0  0  0  0  0  0  0
    5.0847    3.6390    5.5373 C   0  0  0  0  0  0  0  0  0  0  0  0
    5.8218    3.0417    4.5078 C   0  0  0  0  0  0  0  0  0  0  0  0
    2.9480   -0.2635   -0.4620 S   0  0  0  0  0  0  0  0  0  0  0  0
    1.2237   -0.4695   -0.5112 C   0  0  0  0  0  0  0  0  0  0  0  0
    0.5671    0.1854    0.5549 C   0  0  0  0  0  0  0  0  0  0  0  0
   -3.6273   -5.4506   -6.0625 C   0  0  0  0  0  0  0  0  0  0  0  0
   -4.8248   -6.0344   -6.3958 C   0  0  0  0  0  0  0  0  0  0  0  0
   -4.9902   -6.9201   -7.5368 C   0  0  0  0  0  0  0  0  0  0  0  0
   -6.3502   -7.4540   -7.4921 C   0  0  0  0  0  0  0  0  0  0  0  0
   -7.0211   -6.8835   -6.3992 C   0  0  0  0  0  0  0  0  0  0  0  0
   -6.1167   -5.9592   -5.6826 C   0  0  0  0  0  0  0  0  0  0  0  0
   -7.0124   -8.3628   -8.3017 C   0  0  0  0  0  0  0  0  0  0  0  0
   -8.3325   -8.6833   -8.0038 C   0  0  0  0  0  0  0  0  0  0  0  0
   -8.9926   -8.1062   -6.9137 C   0  0  0  0  0  0  0  0  0  0  0  0
   -8.3314   -7.1950   -6.1002 C   0  0  0  0  0  0  0  0  0  0  0  0
   -6.4206   -5.2998   -4.7097 O   0  0  0  0  0  0  0  0  0  0  0  0
   -4.0764   -7.2033   -8.5193 C   0  0  0  0  0  0  0  0  0  0  0  0
   -4.3264   -8.0731   -9.6029 C   0  0  0  0  0  0  0  0  0  0  0  0
   -2.7714   -6.6785   -8.6357 C   0  0  0  0  0  0  0  0  0  0  0  0
   -1.7022   -6.3046   -8.8293 N   0  0  0  0  0  0  0  0  0  0  0  0
   -4.4515   -8.7662  -10.5093 N   0  0  0  0  0  0  0  0  0  0  0  0
  -10.6234   -8.5249   -6.5763 Cl  0  0  0  0  0  0  0  0  0  0  0  0
   -9.1586   -9.8123   -9.0002 Cl  0  0  0  0  0  0  0  0  0  0  0  0
    0.3426   -1.1717   -1.3240 C   0  0  0  0  0  0  0  0  0  0  0  0
   -0.9743   -1.0401   -0.8820 C   0  0  0  0  0  0  0  0  0  0  0  0
   -1.1530   -0.0561    0.5313 S   0  0  0  0  0  0  0  0  0  0  0  0
    0.4163   -2.0340   -2.5592 C   0  0  0  0  0  0  0  0  0  0  0  0
   -1.0419   -2.3820   -2.7294 C   0  0  0  0  0  0  0  0  0  0  0  0
   -1.8184   -1.7908   -1.7301 C   0  0  0  0  0  0  0  0  0  0  0  0
    0.9990   -1.2035   -3.6895 C   0  0  0  0  0  0  0  0  0  0  0  0
    1.1945   -3.3250   -2.3741 C   0  0  0  0  0  0  0  0  0  0  0  0
    0.1961   -0.5799   -4.6319 C   0  0  0  0  0  0  0  0  0  0  0  0
    0.7640    0.1915   -5.6302 C   0  0  0  0  0  0  0  0  0  0  0  0
    2.1389    0.3640   -5.7057 C   0  0  0  0  0  0  0  0  0  0  0  0
    2.9358   -0.2526   -4.7485 C   0  0  0  0  0  0  0  0  0  0  0  0
    2.3757   -1.0275   -3.7525 C   0  0  0  0  0  0  0  0  0  0  0  0
    1.5248   -4.0756   -3.4957 C   0  0  0  0  0  0  0  0  0  0  0  0
    2.1957   -5.2749   -3.3604 C   0  0  0  0  0  0  0  0  0  0  0  0
    2.5527   -5.7551   -2.1061 C   0  0  0  0  0  0  0  0  0  0  0  0
    2.2146   -5.0023   -0.9904 C   0  0  0  0  0  0  0  0  0  0  0  0
    1.5357   -3.8038   -1.1186 C   0  0  0  0  0  0  0  0  0  0  0  0
    2.7511    1.2362   -6.7629 C   0  0  0  0  0  0  0  0  0  0  0  0
    2.9327    2.6623   -6.2389 C   0  0  0  0  0  0  0  0  0  0  0  0
    3.3289   -7.0324   -1.9679 C   0  0  0  0  0  0  0  0  0  0  0  0
    4.8302   -6.7576   -2.0770 C   0  0  0  0  0  0  0  0  0  0  0  0
   -1.8136   -3.1731   -3.5687 C   0  0  0  0  0  0  0  0  0  0  0  0
   -3.1816   -3.1718   -3.2082 C   0  0  0  0  0  0  0  0  0  0  0  0
   -3.5009   -2.1778   -1.8114 S   0  0  0  0  0  0  0  0  0  0  0  0
   -1.5418   -4.1596   -4.9463 S   0  0  0  0  0  0  0  0  0  0  0  0
   -3.2638   -4.5794   -5.0242 C   0  0  0  0  0  0  0  0  0  0  0  0
   -3.9872   -3.9533   -4.0166 C   0  0  0  0  0  0  0  0  0  0  0  0
   -0.6826   -1.0680    7.3690 C   0  0  0  0  0  0  0  0  0  0  0  0
   -2.2119   -1.0684    7.3177 C   0  0  0  0  0  0  0  0  0  0  0  0
   -1.8333    6.3630    1.5132 C   0  0  0  0  0  0  0  0  0  0  0  0
   -2.1150    7.1047    2.8216 C   0  0  0  0  0  0  0  0  0  0  0  0
   -1.2952    1.8803    2.6208 H   0  0  0  0  0  0  0  0  0  0  0  0
   -2.6653    3.8438    2.0906 H   0  0  0  0  0  0  0  0  0  0  0  0
    0.8718    6.1596    1.5296 H   0  0  0  0  0  0  0  0  0  0  0  0
    2.2436    4.1991    2.0364 H   0  0  0  0  0  0  0  0  0  0  0  0
    0.9188   -1.0421    3.0080 H   0  0  0  0  0  0  0  0  0  0  0  0
    0.0662   -2.1697    5.0028 H   0  0  0  0  0  0  0  0  0  0  0  0
   -0.1724    1.5765    7.0291 H   0  0  0  0  0  0  0  0  0  0  0  0
    0.6515    2.7153    5.0247 H   0  0  0  0  0  0  0  0  0  0  0  0
    6.7936    4.2927    6.5182 H   0  0  0  0  0  0  0  0  0  0  0  0
    6.1426    7.0579   11.2796 H   0  0  0  0  0  0  0  0  0  0  0  0
    1.5792    5.9306    9.6477 H   0  0  0  0  0  0  0  0  0  0  0  0
    6.8962    3.0660    4.4757 H   0  0  0  0  0  0  0  0  0  0  0  0
   -2.7884   -5.7094   -6.6976 H   0  0  0  0  0  0  0  0  0  0  0  0
   -6.5401   -8.8306   -9.1495 H   0  0  0  0  0  0  0  0  0  0  0  0
   -8.8248   -6.7413   -5.2552 H   0  0  0  0  0  0  0  0  0  0  0  0
   -0.8772   -0.6960   -4.5944 H   0  0  0  0  0  0  0  0  0  0  0  0
    0.1255    0.6634   -6.3630 H   0  0  0  0  0  0  0  0  0  0  0  0
    4.0084   -0.1289   -4.7864 H   0  0  0  0  0  0  0  0  0  0  0  0
    3.0102   -1.5095   -3.0227 H   0  0  0  0  0  0  0  0  0  0  0  0
    1.2597   -3.7140   -4.4785 H   0  0  0  0  0  0  0  0  0  0  0  0
    2.4432   -5.8474   -4.2422 H   0  0  0  0  0  0  0  0  0  0  0  0
    2.4804   -5.3584   -0.0053 H   0  0  0  0  0  0  0  0  0  0  0  0
    1.2741   -3.2431   -0.2331 H   0  0  0  0  0  0  0  0  0  0  0  0
    2.1091    1.2554   -7.6455 H   0  0  0  0  0  0  0  0  0  0  0  0
    3.7232    0.8346   -7.0554 H   0  0  0  0  0  0  0  0  0  0  0  0
    3.3793    3.2938   -7.0031 H   0  0  0  0  0  0  0  0  0  0  0  0
    3.5791    2.6649   -5.3641 H   0  0  0  0  0  0  0  0  0  0  0  0
    1.9721    3.0864   -5.9550 H   0  0  0  0  0  0  0  0  0  0  0  0
    3.0336   -7.7307   -2.7532 H   0  0  0  0  0  0  0  0  0  0  0  0
    3.1163   -7.4934   -1.0014 H   0  0  0  0  0  0  0  0  0  0  0  0
    5.1476   -6.0726   -1.2938 H   0  0  0  0  0  0  0  0  0  0  0  0
    5.3938   -7.6824   -1.9794 H   0  0  0  0  0  0  0  0  0  0  0  0
    5.0634   -6.3081   -3.0395 H   0  0  0  0  0  0  0  0  0  0  0  0
   -5.0468   -4.0815   -3.8953 H   0  0  0  0  0  0  0  0  0  0  0  0
   -0.3533   -0.5529    8.2735 H   0  0  0  0  0  0  0  0  0  0  0  0
   -0.3234   -2.0982    7.4114 H   0  0  0  0  0  0  0  0  0  0  0  0
   -2.5604   -1.5881    6.4280 H   0  0  0  0  0  0  0  0  0  0  0  0
   -2.5892   -0.0487    7.2876 H   0  0  0  0  0  0  0  0  0  0  0  0
   -2.6219   -1.5654    8.1936 H   0  0  0  0  0  0  0  0  0  0  0  0
   -2.7796    6.0702    1.0543 H   0  0  0  0  0  0  0  0  0  0  0  0
   -1.3115    7.0316    0.8257 H   0  0  0  0  0  0  0  0  0  0  0  0
   -2.6505    6.4593    3.5142 H   0  0  0  0  0  0  0  0  0  0  0  0
   -2.7173    7.9906    2.6347 H   0  0  0  0  0  0  0  0  0  0  0  0
   -1.1828    7.4102    3.2913 H   0  0  0  0  0  0  0  0  0  0  0  0
  1  3  1  0  0  0  0
  3  4  1  0  0  0  0
  4  5  2  0  0  0  0
  5  2  1  0  0  0  0
  3  6  1  0  0  0  0
  3  7  1  0  0  0  0
  4  8  1  0  0  0  0
  8  9  2  0  0  0  0
  9 10  1  0  0  0  0
 10  5  1  0  0  0  0
  7 11  2  0  0  0  0
 11 12  1  0  0  0  0
 12 13  2  0  0  0  0
 13 14  1  0  0  0  0
 14 15  2  0  0  0  0
 15  7  1  0  0  0  0
  6 16  2  0  0  0  0
 16 17  1  0  0  0  0
 17 18  2  0  0  0  0
 18 19  1  0  0  0  0
 19 20  2  0  0  0  0
 20  6  1  0  0  0  0
 21 22  2  0  0  0  0
 22 23  1  0  0  0  0
 23 24  1  0  0  0  0
 24 25  2  0  0  0  0
 25 26  1  0  0  0  0
 26 22  1  0  0  0  0
 26 27  2  0  0  0  0
 23 28  2  0  0  0  0
 28 29  1  0  0  0  0
 29 30  3  0  0  0  0
 28 31  1  0  0  0  0
 31 32  3  0  0  0  0
 24 33  1  0  0  0  0
 33 34  2  0  0  0  0
 34 35  1  0  0  0  0
 35 36  2  0  0  0  0
 36 25  1  0  0  0  0
 34 37  1  0  0  0  0
 35 38  1  0  0  0  0
  8 39  1  0  0  0  0
 39 40  1  0  0  0  0
 40 41  2  0  0  0  0
 41  9  1  0  0  0  0
 21 40  1  0  0  0  0
  1  2  2  0  0  0  0
  2 42  1  0  0  0  0
 42 43  1  0  0  0  0
 43 44  2  0  0  0  0
 44  1  1  0  0  0  0
 45 46  2  0  0  0  0
 46 47  1  0  0  0  0
 47 48  1  0  0  0  0
 48 49  2  0  0  0  0
 49 50  1  0  0  0  0
 50 46  1  0  0  0  0
 48 51  1  0  0  0  0
 51 52  2  0  0  0  0
 52 53  1  0  0  0  0
 53 54  2  0  0  0  0
 54 49  1  0  0  0  0
 50 55  2  0  0  0  0
 47 56  2  0  0  0  0
 56 57  1  0  0  0  0
 56 58  1  0  0  0  0
 58 59  3  0  0  0  0
 57 60  3  0  0  0  0
 53 61  1  0  0  0  0
 52 62  1  0  0  0  0
 43 63  1  0  0  0  0
 63 64  2  0  0  0  0
 64 65  1  0  0  0  0
 65 44  1  0  0  0  0
 63 66  1  0  0  0  0
 66 67  1  0  0  0  0
 67 68  2  0  0  0  0
 68 64  1  0  0  0  0
 66 69  1  0  0  0  0
 66 70  1  0  0  0  0
 69 71  2  0  0  0  0
 71 72  1  0  0  0  0
 72 73  2  0  0  0  0
 73 74  1  0  0  0  0
 74 75  2  0  0  0  0
 75 69  1  0  0  0  0
 70 76  2  0  0  0  0
 76 77  1  0  0  0  0
 77 78  2  0  0  0  0
 78 79  1  0  0  0  0
 79 80  2  0  0  0  0
 80 70  1  0  0  0  0
 73 81  1  0  0  0  0
 81 82  1  0  0  0  0
 78 83  1  0  0  0  0
 83 84  1  0  0  0  0
 67 85  1  0  0  0  0
 85 86  2  0  0  0  0
 86 87  1  0  0  0  0
 87 68  1  0  0  0  0
 85 88  1  0  0  0  0
 88 89  1  0  0  0  0
 89 90  2  0  0  0  0
 90 86  1  0  0  0  0
 89 45  1  0  0  0  0
 18 91  1  0  0  0  0
 91 92  1  0  0  0  0
 13 93  1  0  0  0  0
 93 94  1  0  0  0  0
 11 95  1  0  0  0  0
 12 96  1  0  0  0  0
 14 97  1  0  0  0  0
 15 98  1  0  0  0  0
 16 99  1  0  0  0  0
 17100  1  0  0  0  0
 19101  1  0  0  0  0
 20102  1  0  0  0  0
 21103  1  0  0  0  0
 33104  1  0  0  0  0
 36105  1  0  0  0  0
 41106  1  0  0  0  0
 45107  1  0  0  0  0
 51108  1  0  0  0  0
 54109  1  0  0  0  0
 71110  1  0  0  0  0
 72111  1  0  0  0  0
 74112  1  0  0  0  0
 75113  1  0  0  0  0
 76114  1  0  0  0  0
 77115  1  0  0  0  0
 79116  1  0  0  0  0
 80117  1  0  0  0  0
 81118  1  0  0  0  0
 81119  1  0  0  0  0
 82120  1  0  0  0  0
 82121  1  0  0  0  0
 82122  1  0  0  0  0
 83123  1  0  0  0  0
 83124  1  0  0  0  0
 84125  1  0  0  0  0
 84126  1  0  0  0  0
 84127  1  0  0  0  0
 90128  1  0  0  0  0
 91129  1  0  0  0  0
 91130  1  0  0  0  0
 92131  1  0  0  0  0
 92132  1  0  0  0  0
 92133  1  0  0  0  0
 93134  1  0  0  0  0
 93135  1  0  0  0  0
 94136  1  0  0  0  0
 94137  1  0  0  0  0
 94138  1  0  0  0  0
M  END
