138
IXIC-4Cl.sdf
C          1.45430        0.82890        1.40860
C          2.77470        0.67170        0.98510
C          1.38380        1.65740        2.66630
C          2.85150        1.91880        2.89800
C          3.62810        1.32540        1.90100
C          0.83090        0.91860        3.87250
C          0.56810        2.90500        2.37370
C          3.63590        2.54580        3.85770
C          5.01660        2.43130        3.57130
S          5.33280        1.53570        2.10610
C         -0.81830        2.81880        2.37720
C         -1.58800        3.92690        2.08270
C         -0.99540        5.14560        1.77580
C          0.39050        5.22190        1.76770
C          1.16710        4.11440        2.05620
C          0.67120       -0.45840        3.88250
C          0.19260       -1.09640        5.01310
C         -0.12000       -0.37970        6.15940
C          0.05590        0.99880        6.14560
C          0.52460        1.64290        5.01790
C          5.71350        4.29910        6.59940
C          5.18420        4.93000        7.69980
C          5.94520        5.57480        8.75130
C          4.98660        6.10420        9.72160
C          3.68550        5.79990        9.28590
C          3.75740        5.05900        8.01060
O          2.81000        4.64900        7.36490
C          7.30830        5.68620        8.85210
C          8.25140        5.18520        7.93030
N          9.08800        4.81300        7.23650
C          7.97240        6.33180        9.91690
N          8.57950        6.83890       10.74870
C          5.16560        6.80150       10.90470
C          4.04210        7.18240       11.63150
C          2.75160        6.87430       11.18860
C          2.56800        6.17490       10.00210
Cl         4.25620        8.04770       13.09960
Cl         1.38740        7.36010       12.11140
S          3.35030        3.42810        5.30830
C          5.08470        3.63900        5.53730
C          5.82180        3.04170        4.50780
S          2.94800       -0.26350       -0.46200
C          1.22370       -0.46950       -0.51120
C          0.56710        0.18540        0.55490
C         -3.62730       -5.45060       -6.06250
C         -4.82480       -6.03440       -6.39580
C         -4.99020       -6.92010       -7.53680
C         -6.35020       -7.45400       -7.49210
C         -7.02110       -6.88350       -6.39920
C         -6.11670       -5.95920       -5.68260
C         -7.01240       -8.36280       -8.30170
C         -8.33250       -8.68330       -8.00380
C         -8.99260       -8.10620       -6.91370
C         -8.33140       -7.19500       -6.10020
O         -6.42060       -5.29980       -4.70970
C         -4.07640       -7.20330       -8.51930
C         -4.32640       -8.07310       -9.60290
C         -2.77140       -6.67850       -8.63570
N         -1.70220       -6.30460       -8.82930
N         -4.45150       -8.76620      -10.50930
Cl       -10.62340       -8.52490       -6.57630
Cl        -9.15860       -9.81230       -9.00020
C          0.34260       -1.17170       -1.32400
C         -0.97430       -1.04010       -0.88200
S         -1.15300       -0.05610        0.53130
C          0.41630       -2.03400       -2.55920
C         -1.04190       -2.38200       -2.72940
C         -1.81840       -1.79080       -1.73010
C          0.99900       -1.20350       -3.68950
C          1.19450       -3.32500       -2.37410
C          0.19610       -0.57990       -4.63190
C          0.76400        0.19150       -5.63020
C          2.13890        0.36400       -5.70570
C          2.93580       -0.25260       -4.74850
C          2.37570       -1.02750       -3.75250
C          1.52480       -4.07560       -3.49570
C          2.19570       -5.27490       -3.36040
C          2.55270       -5.75510       -2.10610
C          2.21460       -5.00230       -0.99040
C          1.53570       -3.80380       -1.11860
C          2.75110        1.23620       -6.76290
C          2.93270        2.66230       -6.23890
C          3.32890       -7.03240       -1.96790
C          4.83020       -6.75760       -2.07700
C         -1.81360       -3.17310       -3.56870
C         -3.18160       -3.17180       -3.20820
S         -3.50090       -2.17780       -1.81140
S         -1.54180       -4.15960       -4.94630
C         -3.26380       -4.57940       -5.02420
C         -3.98720       -3.95330       -4.01660
C         -0.68260       -1.06800        7.36900
C         -2.21190       -1.06840        7.31770
C         -1.83330        6.36300        1.51320
C         -2.11500        7.10470        2.82160
H         -1.29520        1.88030        2.62080
H         -2.66530        3.84380        2.09060
H          0.87180        6.15960        1.52960
H          2.24360        4.19910        2.03640
H          0.91880       -1.04210        3.00800
H          0.06620       -2.16970        5.00280
H         -0.17240        1.57650        7.02910
H          0.65150        2.71530        5.02470
H          6.79360        4.29270        6.51820
H          6.14260        7.05790       11.27960
H          1.57920        5.93060        9.64770
H          6.89620        3.06600        4.47570
H         -2.78840       -5.70940       -6.69760
H         -6.54010       -8.83060       -9.14950
H         -8.82480       -6.74130       -5.25520
H         -0.87720       -0.69600       -4.59440
H          0.12550        0.66340       -6.36300
H          4.00840       -0.12890       -4.78640
H          3.01020       -1.50950       -3.02270
H          1.25970       -3.71400       -4.47850
H          2.44320       -5.84740       -4.24220
H          2.48040       -5.35840       -0.00530
H          1.27410       -3.24310       -0.23310
H          2.10910        1.25540       -7.64550
H          3.72320        0.83460       -7.05540
H          3.37930        3.29380       -7.00310
H          3.57910        2.66490       -5.36410
H          1.97210        3.08640       -5.95500
H          3.03360       -7.73070       -2.75320
H          3.11630       -7.49340       -1.00140
H          5.14760       -6.07260       -1.29380
H          5.39380       -7.68240       -1.97940
H          5.06340       -6.30810       -3.03950
H         -5.04680       -4.08150       -3.89530
H         -0.35330       -0.55290        8.27350
H         -0.32340       -2.09820        7.41140
H         -2.56040       -1.58810        6.42800
H         -2.58920       -0.04870        7.28760
H         -2.62190       -1.56540        8.19360
H         -2.77960        6.07020        1.05430
H         -1.31150        7.03160        0.82570
H         -2.65050        6.45930        3.51420
H         -2.71730        7.99060        2.63470
H         -1.18280        7.41020        3.29130
