150
JC2.sdf
C         -3.12440       -1.40180        3.58120
C         -3.64760       -2.08300        4.72580
C         -3.53320       -1.51690        6.00970
C         -4.02240       -2.16490        7.18260
C         -4.59940       -3.45620        7.15700
C         -4.73260       -3.99150        5.87450
C         -4.26850       -3.34390        4.68750
S         -5.54010       -5.48710        5.49910
C         -5.14890       -5.31030        3.81420
C         -4.48580       -4.15760        3.54290
C         -4.94230       -4.05330        8.40820
C         -4.90990       -5.34960        8.79710
C         -5.24920       -5.72730       10.17060
N         -5.02040       -7.08190       10.38080
C         -4.54380       -7.77440        9.31600
S         -4.34730       -6.74710        7.90760
C         -4.21130       -9.10280        9.23510
C         -5.35420       -7.65960       11.66990
C         -6.71900       -8.33690       11.64400
O         -5.66430       -4.98620       11.03160
C         -4.28110      -10.05240       10.26830
C         -3.74380       -9.62190        8.00910
N         -3.37000      -10.05940        7.01680
N         -4.31490      -10.87740       11.06710
C         -5.49920       -6.36070        2.85480
O         -5.29800       -6.27990        1.66680
O         -6.04660       -7.40890        3.47360
C         -6.42070       -8.52340        2.66420
C         -7.80650       -8.33200        2.06510
N         -3.01570       -0.33850        6.39410
N         -3.18770       -0.31620        7.68230
N         -3.76770       -1.35440        8.21920
S         -1.69670       -0.40460        3.78120
C         -1.65790       -0.11210        2.09260
C         -2.72190       -0.69740        1.42580
C         -3.55310       -1.43100        2.26630
C         -0.78790        0.54740        1.17040
C         -1.33680        0.36180       -0.12250
C         -2.60920       -0.46430       -0.05830
C          0.40080        1.24070        1.38240
C          1.05110        1.73480        0.27610
C          0.49760        1.56340       -1.01300
C         -0.71040        0.90130       -1.22180
C          2.39490        2.44180        0.20520
C          2.52650        2.65560       -1.27930
C          1.41680        2.14150       -1.93990
C          3.45320        3.21660       -2.14690
C          3.07080        3.10760       -3.47880
S          1.52250        2.29680       -3.64060
C         -2.44660       -1.85360       -0.71940
C         -3.81850        0.29640       -0.62320
C          3.46480        1.47410        0.75770
C          2.38320        3.77260        0.97510
C          3.79080        3.45190       -4.65750
C          3.45420        2.84180       -5.88570
C          4.24110        2.97600       -7.06690
C          5.42160        3.74930       -7.11070
C          5.67350        4.44460       -5.91910
C          4.89460        4.33130       -4.73140
S          6.99940        5.55140       -5.71830
C          6.48070        5.91130       -4.09920
C          5.37880        5.20780       -3.72500
C          6.29820        3.82680       -8.22230
C          6.30010        3.11880       -9.38080
C          7.36680        3.33200      -10.36120
N          7.24780        2.44700      -11.42520
C          6.20530        1.58550      -11.35080
S          5.22280        1.85550       -9.91980
C          5.84010        0.59570      -12.23140
C          8.25380        2.46060      -12.47090
C          9.33280        1.41370      -12.22040
O          8.25050        4.15640      -10.28400
C          4.70250       -0.17680      -11.92360
C          6.48610        0.24560      -13.42730
N          6.97160       -0.08940      -14.41350
N          3.77770       -0.80240      -11.65580
C          7.20790        6.87820       -3.27600
O          6.91990        7.14070       -2.13260
O          8.21920        7.42610       -3.95720
C          9.04230        8.36220       -3.26290
C         10.14830        7.65580       -2.49220
N          2.42260        2.03810       -6.18900
N          2.58830        1.74320       -7.44340
N          3.63680        2.26090       -8.02090
C         -2.80040        0.81650        8.47310
C         -4.00200        1.72230        8.72460
C          1.67980        0.88630       -8.15040
C          2.32850       -0.46000       -8.45080
C         -2.16900       -1.85980       -2.21640
C         -4.09170        1.59470        0.12750
C          4.90880        1.92290        0.57690
C          1.25370        4.69560        0.53240
H         -4.13760       -3.92700        2.55430
H         -5.17090       -3.34910        9.20150
H         -5.36940       -6.82250       12.37330
H         -4.57430       -8.36470       11.96230
H         -7.48850       -7.61970       11.36740
H         -6.73310       -9.16420       10.93830
H         -6.94360       -8.72820       12.63150
H         -6.39360       -9.38220        3.33740
H         -5.67750       -8.64610        1.86950
H         -8.08570       -9.21980        1.50530
H         -7.80610       -7.47740        1.39270
H         -8.53710       -8.16320        2.85270
H         -4.45580       -1.92270        1.95380
H          0.78730        1.36430        2.38260
H         -1.11450        0.82150       -2.21850
H          4.38950        3.64160       -1.84070
H         -1.63040       -2.37310       -0.21040
H         -3.36430       -2.41430       -0.52740
H         -4.69640       -0.35040       -0.56530
H         -3.63440        0.52580       -1.67320
H          3.33180        0.50800        0.26390
H          3.26480        1.33030        1.82150
H          2.28090        3.55870        2.04090
H          3.33650        4.27950        0.82070
H          4.91400        5.36810       -2.77100
H          7.11840        4.53190       -8.13100
H          7.77110        2.29890      -13.43610
H          8.69590        3.46040      -12.44680
H          8.91350        0.41030      -12.22920
H          9.81140        1.59200      -11.26000
H         10.08330        1.47660      -13.00250
H          9.45370        9.00960       -4.03980
H          8.41520        8.94530       -2.58030
H         10.74090        7.04060       -3.16520
H          9.71770        7.02260       -1.72000
H         10.79320        8.39320       -2.02320
H         -2.40360        0.44310        9.41930
H         -2.02420        1.34620        7.91860
H         -4.40280        2.08790        7.78220
H         -3.70200        2.57210        9.33070
H         -4.77930        1.17300        9.24990
H          0.80200        0.76970       -7.51240
H          1.40370        1.37960       -9.08530
H          2.64800       -0.94340       -7.53070
H          1.61420       -1.10300       -8.95530
H          3.18680       -0.32760       -9.10430
H         -2.93720       -1.32260       -2.76600
H         -2.15960       -2.88810       -2.57090
H         -1.20040       -1.42020       -2.43600
H         -4.94300        2.10890       -0.31240
H         -4.31340        1.39730        1.17390
H         -3.22780        2.25400        0.07850
H          5.57120        1.20480        1.05530
H          5.08360        2.89500        1.02940
H          5.17150        1.97110       -0.47600
H          0.28560        4.22780        0.69730
H          1.28860        5.62450        1.09650
H          1.34340        4.93380       -0.52510
