K12.sdf
  xtb     12202115143D
 energy: -82.887548420046 gnorm: 0.000393203006 xtb: 6.4.1 (unknown)
 52 56  0     0  0            999 V2000
   -2.9349   -5.3362   -1.4449 C   0  0  0  0  0  0  0  0  0  0  0  0
   -2.1664   -4.2552   -1.8430 C   0  0  0  0  0  0  0  0  0  0  0  0
   -1.7235   -3.3649   -0.8783 C   0  0  0  0  0  0  0  0  0  0  0  0
   -2.0311   -3.5584    0.4785 C   0  0  0  0  0  0  0  0  0  0  0  0
   -2.8226   -4.6220    0.8594 C   0  0  0  0  0  0  0  0  0  0  0  0
   -3.2680   -5.5108   -0.1107 C   0  0  0  0  0  0  0  0  0  0  0  0
   -0.9711   -2.1314   -1.0105 C   0  0  0  0  0  0  0  0  0  0  0  0
   -0.8227   -1.5636    0.2643 C   0  0  0  0  0  0  0  0  0  0  0  0
   -1.4150   -2.4675    1.3252 C   0  0  0  0  0  0  0  0  0  0  0  0
   -0.4507   -1.4932   -2.1256 C   0  0  0  0  0  0  0  0  0  0  0  0
    0.2073   -0.2896   -1.9615 C   0  0  0  0  0  0  0  0  0  0  0  0
    0.3445    0.2947   -0.6993 C   0  0  0  0  0  0  0  0  0  0  0  0
   -0.1749   -0.3628    0.4239 C   0  0  0  0  0  0  0  0  0  0  0  0
    1.0145    1.5813   -0.5419 C   0  0  0  0  0  0  0  0  0  0  0  0
    0.6102    2.5044    0.4089 C   0  0  0  0  0  0  0  0  0  0  0  0
    1.2434    3.7326    0.5951 C   0  0  0  0  0  0  0  0  0  0  0  0
    2.3618    4.1132   -0.1312 C   0  0  0  0  0  0  0  0  0  0  0  0
    2.7813    3.2200   -1.1481 C   0  0  0  0  0  0  0  0  0  0  0  0
    2.1081    1.9654   -1.3582 C   0  0  0  0  0  0  0  0  0  0  0  0
    3.7495    3.4233   -2.0377 N   0  0  0  0  0  0  0  0  0  0  0  0
    3.8447    2.1484   -3.0060 S   0  0  0  0  0  0  0  0  0  0  0  0
    2.6487    1.2877   -2.3728 N   0  0  0  0  0  0  0  0  0  0  0  0
   -0.2323   -2.9971    2.1709 C   0  0  0  0  0  0  0  0  0  0  0  0
   -2.4544   -1.7441    2.1931 C   0  0  0  0  0  0  0  0  0  0  0  0
   -0.5758   -4.0721    3.1933 C   0  0  0  0  0  0  0  0  0  0  0  0
   -3.5549   -1.0979    1.3591 C   0  0  0  0  0  0  0  0  0  0  0  0
    3.0305    5.3555    0.1341 C   0  0  0  0  0  0  0  0  0  0  0  0
    4.3468    5.6183   -0.0662 C   0  0  0  0  0  0  0  0  0  0  0  0
    4.8594    6.9085    0.2089 C   0  0  0  0  0  0  0  0  0  0  0  0
    5.3402    4.6777   -0.4256 C   0  0  0  0  0  0  0  0  0  0  0  0
    6.2215    3.9656   -0.6045 N   0  0  0  0  0  0  0  0  0  0  0  0
    5.2609    7.9599    0.4260 N   0  0  0  0  0  0  0  0  0  0  0  0
   -3.2904   -6.0425   -2.1807 H   0  0  0  0  0  0  0  0  0  0  0  0
   -1.9246   -4.1049   -2.8846 H   0  0  0  0  0  0  0  0  0  0  0  0
   -3.1111   -4.7651    1.8899 H   0  0  0  0  0  0  0  0  0  0  0  0
   -3.8864   -6.3478    0.1793 H   0  0  0  0  0  0  0  0  0  0  0  0
   -0.5576   -1.9253   -3.1091 H   0  0  0  0  0  0  0  0  0  0  0  0
    0.6135    0.2213   -2.8195 H   0  0  0  0  0  0  0  0  0  0  0  0
   -0.0398    0.0635    1.4071 H   0  0  0  0  0  0  0  0  0  0  0  0
   -0.2479    2.2766    1.0231 H   0  0  0  0  0  0  0  0  0  0  0  0
    0.8696    4.3984    1.3599 H   0  0  0  0  0  0  0  0  0  0  0  0
    0.5178   -3.3957    1.4827 H   0  0  0  0  0  0  0  0  0  0  0  0
    0.2153   -2.1441    2.6865 H   0  0  0  0  0  0  0  0  0  0  0  0
   -2.9056   -2.4591    2.8821 H   0  0  0  0  0  0  0  0  0  0  0  0
   -1.9490   -0.9793    2.7870 H   0  0  0  0  0  0  0  0  0  0  0  0
    0.3190   -4.3322    3.7549 H   0  0  0  0  0  0  0  0  0  0  0  0
   -1.3261   -3.7248    3.8987 H   0  0  0  0  0  0  0  0  0  0  0  0
   -0.9390   -4.9709    2.7030 H   0  0  0  0  0  0  0  0  0  0  0  0
   -4.2767   -0.6044    2.0062 H   0  0  0  0  0  0  0  0  0  0  0  0
   -4.0770   -1.8484    0.7697 H   0  0  0  0  0  0  0  0  0  0  0  0
   -3.1393   -0.3584    0.6779 H   0  0  0  0  0  0  0  0  0  0  0  0
    2.4245    6.1445    0.5652 H   0  0  0  0  0  0  0  0  0  0  0  0
  1  2  2  0  0  0  0
  2  3  1  0  0  0  0
  3  4  2  0  0  0  0
  4  5  1  0  0  0  0
  5  6  2  0  0  0  0
  6  1  1  0  0  0  0
  3  7  1  0  0  0  0
  7  8  2  0  0  0  0
  8  9  1  0  0  0  0
  9  4  1  0  0  0  0
  7 10  1  0  0  0  0
 10 11  2  0  0  0  0
 11 12  1  0  0  0  0
 12 13  2  0  0  0  0
 13  8  1  0  0  0  0
 12 14  1  0  0  0  0
 14 15  2  0  0  0  0
 15 16  1  0  0  0  0
 16 17  2  0  0  0  0
 17 18  1  0  0  0  0
 18 19  1  0  0  0  0
 19 14  1  0  0  0  0
 18 20  2  0  0  0  0
 20 21  1  0  0  0  0
 21 22  1  0  0  0  0
 22 19  2  0  0  0  0
  9 23  1  0  0  0  0
  9 24  1  0  0  0  0
 23 25  1  0  0  0  0
 24 26  1  0  0  0  0
 17 27  1  0  0  0  0
 27 28  2  0  0  0  0
 28 29  1  0  0  0  0
 28 30  1  0  0  0  0
 30 31  3  0  0  0  0
 29 32  3  0  0  0  0
  1 33  1  0  0  0  0
  2 34  1  0  0  0  0
  5 35  1  0  0  0  0
  6 36  1  0  0  0  0
 10 37  1  0  0  0  0
 11 38  1  0  0  0  0
 13 39  1  0  0  0  0
 15 40  1  0  0  0  0
 16 41  1  0  0  0  0
 23 42  1  0  0  0  0
 23 43  1  0  0  0  0
 24 44  1  0  0  0  0
 24 45  1  0  0  0  0
 25 46  1  0  0  0  0
 25 47  1  0  0  0  0
 25 48  1  0  0  0  0
 26 49  1  0  0  0  0
 26 50  1  0  0  0  0
 26 51  1  0  0  0  0
 27 52  1  0  0  0  0
M  END
