110
LL2.mol
O          4.08190        2.96250       -0.60300
C          5.24060        3.34070       -0.53530
C          5.88250        4.32740       -1.41820
C          7.22710        4.49230       -1.02830
C          7.49250        3.61890        0.11440
C          6.26460        2.91070        0.42020
C          6.10240        1.99400        1.42810
C          4.98510        1.24700        1.81930
C          5.00860        0.34670        2.89800
C          6.16970        0.09430        3.80320
C          6.23490        1.15160        4.90890
C          3.77210       -0.25980        3.07720
S          3.19410       -1.43460        4.24480
C          1.63980       -1.37160        3.48950
C          1.57970       -0.50480        2.39030
N          0.31070       -0.49110        1.87850
C         -0.46220       -1.35040        2.63230
C          0.35170       -1.88940        3.67320
C         -0.19330       -2.67790        4.71160
N          0.42550       -3.21950        5.74840
S         -0.67970       -3.93620        6.68940
N         -1.99170       -3.58340        5.80890
C         -1.61050       -2.89450        4.74520
C         -2.39950       -2.42470        3.67120
C         -1.82600       -1.73510        2.56130
N         -2.81500       -1.51930        1.61750
C         -2.71370       -1.38440        0.17940
C         -2.56630       -2.75230       -0.48580
C         -3.98470       -2.02700        2.12370
C         -3.76460       -2.57420        3.39390
S         -5.18630       -3.23410        4.12440
C         -6.09510       -2.77580        2.69440
C         -5.31160       -2.14620        1.70880
S         -6.23390       -1.72580        0.31750
C         -7.68810       -2.39150        1.06810
C         -8.95440       -2.40700        0.48370
C         -9.39120       -1.96090       -0.74410
C        -10.75570       -2.03930       -1.22210
C        -10.78250       -1.45400       -2.56330
C         -9.48430       -1.03270       -2.89810
C         -9.19780       -0.43800       -4.10890
C        -10.23630       -0.25750       -5.01430
Cl        -9.92280        0.47870       -6.53420
C        -11.53180       -0.67290       -4.69150
Cl       -12.80720       -0.44400       -5.81930
C        -11.81470       -1.27220       -3.46800
C        -11.84640       -2.55690       -0.56930
C        -11.84510       -3.12610        0.72080
N        -11.93250       -3.60390        1.76240
C        -13.14870       -2.59120       -1.11060
N        -14.23120       -2.65530       -1.48730
C         -8.56980       -1.33250       -1.77780
O         -7.37500       -1.09230       -1.74550
C         -7.43110       -2.91310        2.35190
C         -8.42790       -3.58890        3.23510
C         -8.58290       -5.06330        2.85180
C         -0.06800        0.53260        0.93070
C          0.39690        0.20100       -0.48770
C          2.79450        0.14490        2.15280
S          3.40470        1.31010        1.03880
C          8.69830        3.50600        0.75950
C          9.86390        4.21840        0.40750
N         10.85190        4.75940        0.18460
C          8.97170        2.67110        1.86270
N          9.28150        2.02170        2.75940
C          8.07400        5.37600       -1.70260
C          7.48330        6.03990       -2.75180
C          7.75100        7.03940       -3.84850
C          6.26050        6.84900       -4.27280
C          6.38300        6.27590       -5.70660
C          8.52820        6.54910       -5.09520
C          8.26690        5.06760       -5.20890
C          7.00090        4.90620       -5.57020
C          7.59990        7.07350       -6.20240
C          6.14590        5.86850       -3.13260
C          5.29460        5.00930       -2.48060
H          6.97500        1.80150        2.03680
H          6.03890       -0.88930        4.25860
H          7.10920        0.09220        3.24870
H          6.36360        2.14470        4.48470
H          5.32040        1.14010        5.49740
H          7.07590        0.94650        5.56470
H         -3.63400       -0.90480       -0.16570
H         -1.87110       -0.76170       -0.09220
H         -2.49970       -2.62940       -1.56300
H         -3.42460       -3.38090       -0.26300
H         -1.66680       -3.25260       -0.13150
H         -9.71090       -2.84960        1.11690
H         -8.19380       -0.12240       -4.34410
H        -12.82600       -1.57790       -3.25680
H         -8.06930       -3.52490        4.26430
H         -9.39990       -3.09680        3.18040
H         -7.63020       -5.57970        2.94250
H         -9.30330       -5.53980        3.51020
H         -8.93580       -5.16030        1.82780
H          0.41710        1.46420        1.24210
H         -1.14600        0.68900        0.99070
H          1.47810        0.28540       -0.55200
H         -0.04000        0.90300       -1.19230
H          0.11920       -0.81100       -0.77460
H          9.10380        5.52310       -1.42420
H          8.06730        8.02920       -3.52560
H          5.60270        7.71490       -4.22640
H          5.47170        6.33520       -6.29600
H          9.57000        6.85620       -5.12690
H          8.99090        4.31180       -4.96690
H          6.45560        3.98840       -5.69020
H          7.45370        8.15230       -6.17130
H          7.92180        6.77430       -7.19870
H          4.25920        4.84820       -2.73740
