117
LL3.sdf
C         -4.45620       -0.27680        5.74610
O         -3.37610       -0.79020        5.54080
C         -4.87590        0.42200        6.97600
C         -4.11760        0.59860        8.13070
C         -4.75240        1.32120        9.11200
C         -6.04740        1.83460        8.95780
C         -6.80840        1.66490        7.82560
C         -6.17980        0.93290        6.81440
C         -6.65790        0.56970        5.48500
C         -7.92620        0.75010        4.99790
C         -8.96760        1.38980        5.69990
N         -9.85270        1.90670        6.21750
C         -8.36210        0.27460        3.74310
N         -8.78510       -0.10760        2.74640
C         -5.58010       -0.10650        4.79350
C         -5.47540       -0.28840        3.44440
C         -4.45930       -1.02510        2.79180
S         -3.83650       -0.35550        1.28360
C         -2.67050       -1.62030        1.17950
C         -2.83180       -2.54420        2.22080
C         -3.84580       -2.22100        3.13500
C         -4.28160       -3.11510        4.24680
C         -4.62500       -4.51760        3.74630
S         -1.65270       -3.83460        2.17410
C         -0.92650       -3.09860        0.78750
C         -1.58550       -1.93990        0.35700
N         -0.91670       -1.38870       -0.70250
C         -1.20100       -0.03290       -1.11830
C          0.19220       -2.17800       -0.95510
C          0.21210       -3.24760       -0.01450
C          1.33000       -4.10430        0.06860
N          1.60830       -5.15080        0.84730
N          2.83790       -5.46910        0.52740
N          3.41510       -4.73080       -0.38770
C          2.48220       -3.83720       -0.72070
C          2.45000       -2.80120       -1.67700
C          1.25690       -2.04650       -1.87820
N          1.44700       -1.18020       -2.94300
C          0.45880       -0.71310       -3.89360
C          0.39150       -1.62850       -5.11590
C          2.74700       -1.32850       -3.35910
C          3.38900       -2.31290       -2.59460
S          5.05310       -2.54060       -3.01410
C          4.88900       -1.28390       -4.22720
C          3.59230       -0.73940       -4.29810
S          3.47190        0.49520       -5.49180
C          5.18820        0.30780       -5.87200
C          5.79290       -0.70950       -5.10560
C          7.23480       -1.09650       -5.14700
C          8.06400       -0.19860       -4.22440
C          5.89680        1.09810       -6.77560
C          5.48830        2.13900       -7.58190
C          6.35700        2.92410       -8.43170
C          7.72530        2.85940       -8.52240
C          8.50080        3.67740       -9.37020
N          9.19300        4.30720      -10.03530
C          8.56230        1.99880       -7.78320
N          9.31570        1.33930       -7.21860
C          5.51200        3.85960       -9.17520
C          5.81550        4.81470      -10.13030
C          4.77930        5.56950      -10.67140
Cl         5.14760        6.75560      -11.85870
C          3.45460        5.37860      -10.26790
Cl         2.19990        6.32750      -10.95810
C          3.14640        4.42160       -9.30850
C          4.17720        3.67650       -8.77610
C          4.11490        2.60800       -7.75730
O          3.10660        2.20820       -7.20090
C         -2.47620        0.05600       -1.95640
C          3.53240       -6.54190        1.17810
C          4.16320       -6.06000        2.48120
C         -6.04170        2.47470       10.32330
C         -4.60020        1.90040       10.49590
C         -5.81250        4.00470       10.40020
C         -5.01640        4.38230        9.17560
C         -3.79190        3.89440        9.32220
C         -3.73770        3.17800       10.64890
C         -4.70580        4.04830       11.46610
H         -3.12240        0.18930        8.20750
H         -7.80060        2.07030        7.71630
H         -6.16360        0.23970        2.79380
H         -3.47580       -3.17040        4.98300
H         -5.15450       -2.68280        4.73780
H         -4.98130       -5.12410        4.57500
H         -3.75490       -5.00420        3.31440
H         -5.40820       -4.46930        2.99250
H         -1.33830        0.57120       -0.21390
H         -0.33660        0.36340       -1.65120
H         -0.51650       -0.70030       -3.42040
H          0.73160        0.29950       -4.20600
H          0.16310       -2.64820       -4.81170
H          1.33390       -1.62720       -5.65630
H         -0.38830       -1.27970       -5.78700
H          7.62970       -1.03730       -6.16180
H          7.31920       -2.13040       -4.80590
H          9.10490       -0.50730       -4.24990
H          8.00740        0.83900       -4.54390
H          7.70130       -0.27020       -3.20170
H          6.94680        0.84590       -6.83380
H          6.82320        4.99070      -10.46870
H          2.12900        4.26390       -8.98750
H         -2.59280        1.06550       -2.34000
H         -3.34300       -0.18160       -1.34600
H         -2.45740       -0.63790       -2.79400
H          4.29930       -6.89700        0.48750
H          2.80750       -7.33380        1.37740
H          4.68240       -6.88140        2.96640
H          4.87570       -5.26340        2.28090
H          3.39350       -5.68480        3.15100
H         -6.81230        2.13580       11.01260
H         -4.42910        1.18530       11.29820
H         -6.71110        4.58650       10.58650
H         -5.42890        4.90010        8.32950
H         -2.97690        3.92260        8.62270
H         -2.74700        3.00740       11.06220
H         -4.32540        5.05420       11.63720
H         -4.99830        3.59920       12.41420
