148
m-DTC-2Cl.sdf
C          4.77890        7.60890       -1.17020
C          4.54700        8.92310       -0.83940
C          3.32250        9.45370       -0.23110
C          3.54810       10.90030       -0.05540
C          4.82930       11.23250       -0.52770
C          5.47890       10.01600       -1.02330
O          2.31430        8.84130        0.07490
C          6.74180        9.96210       -1.55500
C          7.59780       11.07680       -1.68190
C          7.38310        8.80870       -2.05320
N          8.34930       11.93460       -1.81300
N          7.97890        7.92420       -2.48120
C          2.69990       11.85390        0.47340
C          3.13520       13.16830        0.53250
C          4.40130       13.49700        0.06280
C          5.26530       12.54510       -0.47130
C         -5.84030       -5.05480        3.48720
C         -6.96270       -4.82590        4.24750
C         -7.52910       -3.51270        4.57190
C         -8.71540       -3.77520        5.40740
C         -8.86490       -5.16180        5.58120
C         -7.78200       -5.84540        4.86900
O         -7.11890       -2.41710        4.23020
C         -7.60580       -7.20470        4.82690
C         -6.57140       -7.88650        4.15250
C         -8.45070       -8.13490        5.46890
N         -5.76920       -8.52520        3.63400
N         -9.08980       -8.94950        5.96500
C         -9.59740       -2.87410        5.97180
C        -10.65280       -3.36320        6.72510
C        -10.80140       -4.73450        6.89530
C         -9.91870       -5.65230        6.33270
Cl       -12.12040       -5.32500        7.83360
Cl         4.92530       15.13660        0.14160
C         -4.96700       -4.16510        2.85410
C         -3.84780       -4.61220        2.13320
C         -3.10460       -3.57720        1.61370
C         -3.64950       -2.32560        1.91290
S         -5.07510       -2.40880        2.84860
C         -1.86430       -3.42660        0.76930
C         -1.74790       -1.91130        0.70020
C         -2.82990       -1.28580        1.37630
C         -0.59780       -3.95480        1.41380
C         -2.14120       -4.08850       -0.56820
C         -0.73590       -1.16830        0.14960
C         -0.81790        0.21960        0.26820
C         -1.92390        0.83970        0.91430
C         -2.94520        0.09200        1.47980
C          0.50740       -4.25510        0.62670
C          1.69550       -4.65330        1.20800
C          1.81540       -4.75890        2.58800
C          0.70890       -4.45770        3.36980
C         -0.48270       -4.05740        2.79260
C         -2.06880       -5.47350       -0.66420
C         -2.36170       -6.11100       -1.85350
C         -2.73770       -5.38520       -2.97720
C         -2.81800       -4.00370       -2.87280
C         -2.52730       -3.35980       -1.68300
C          3.12860       -5.13400        3.21220
C          4.02260       -3.90000        3.35380
C         -3.10090       -6.08360       -4.25580
C         -4.59190       -6.42660       -4.27040
C          0.07090        1.27020       -0.10710
C         -0.53560        2.48360        0.32270
N         -1.75000        2.20130        0.89740
C         -2.63390        3.16430        1.50060
C         -2.28740        3.40950        2.96820
C          1.32980        1.26510       -0.70880
C          1.97470        2.46820       -0.83730
C          1.36310        3.67510       -0.40340
C          0.10100        3.70550        0.16980
C          3.36670        2.73060       -1.39150
C          3.46640        4.22440       -1.21290
C          2.29680        4.73020       -0.63970
C          4.47100        2.07430       -0.58060
C          3.40650        2.28840       -2.84260
C          4.24610        1.57230        0.69320
C          5.27730        0.99360        1.41040
C          6.55880        0.91210        0.88320
C          6.78450        1.43790       -0.38250
C          5.75730        2.01580       -1.10370
C          3.12590        3.17220       -3.87480
C          3.14060        2.74400       -5.18970
C          3.42150        1.42260       -5.50790
C          3.68450        0.53740       -4.47030
C          3.67550        0.96140       -3.15560
C          7.65530        0.22590        1.64560
C          7.59070       -1.28720        1.42640
C          3.49580        0.97340       -6.93850
C          4.92320        1.12480       -7.46870
C          4.41050        5.20130       -1.43160
C          3.97220        6.47500       -1.03400
S          2.34330        6.41550       -0.37060
H          5.74390        7.38520       -1.60920
H          1.72140       11.57100        0.82920
H          2.50110       13.94030        0.93860
H          6.23800       12.84540       -0.82350
H         -5.55850       -6.09110        3.34350
H         -9.45850       -1.81450        5.82310
H        -11.36170       -2.69030        7.18100
H        -10.07240       -6.70660        6.49120
H         -3.62160       -5.65850        2.02910
H          0.10410       -1.63150       -0.34370
H         -3.77900        0.53540        2.00070
H          0.43390       -4.18490       -0.44910
H          2.54430       -4.88580        0.58040
H          0.77880       -4.53470        4.44560
H         -1.32830       -3.82180        3.42260
H         -1.76900       -6.05270        0.19710
H         -2.29630       -7.18810       -1.91180
H         -3.11110       -3.42010       -3.73410
H         -2.59890       -2.28330       -1.62650
H          2.96080       -5.57290        4.19740
H          3.63580       -5.87440        2.58990
H          3.54300       -3.15690        3.98730
H          4.20480       -3.45120        2.37960
H          4.97840       -4.17070        3.79670
H         -2.51990       -7.00280       -4.35390
H         -2.87110       -5.44070       -5.10790
H         -4.83860       -7.07650       -3.43390
H         -5.18900       -5.52110       -4.18670
H         -4.85720       -6.93400       -5.19490
H         -2.56240        4.09790        0.93650
H         -3.65810        2.79270        1.41330
H         -1.27190        3.78790        3.05820
H         -2.97100        4.13700        3.39660
H         -2.36200        2.48350        3.53340
H          1.78200        0.34040       -1.03060
H         -0.33190        4.63840        0.49490
H          3.25980        1.62540        1.13020
H          5.08100        0.59960        2.39760
H          7.77640        1.39520       -0.80920
H          5.95130        2.41300       -2.08960
H          2.89930        4.20530       -3.65500
H          2.92920        3.44960       -5.98070
H          3.90030       -0.49760       -4.69500
H          3.89590        0.25870       -2.36500
H          8.62680        0.59750        1.31470
H          7.55280        0.43800        2.71200
H          6.63490       -1.67860        1.76810
H          7.69860       -1.52040        0.36940
H          8.38610       -1.78590        1.97510
H          2.81890        1.57200       -7.55130
H          3.19250       -0.07270       -7.01520
H          5.61150        0.52420       -6.87830
H          5.23990        2.16380       -7.40990
H          4.98120        0.80190       -8.50550
H          5.38520        5.04390       -1.85830
