138
m-ITIC.sdf
C         -4.16510        8.69180        3.43790
O         -3.23040        8.53400        2.67900
C         -4.36800        9.86420        4.31130
C         -3.53620       10.95200        4.49160
C         -3.93010       11.93620        5.38660
C         -5.12830       11.81920        6.07670
C         -5.96900       10.72910        5.89350
C         -5.58640        9.74150        4.99880
C         -6.23100        8.49640        4.58670
C         -7.49690        8.11360        4.94480
C         -8.17970        6.96310        4.49450
N         -8.82060        6.06620        4.17110
C         -8.33250        8.85530        5.80730
N         -9.06500        9.40050        6.50320
C         -5.31590        7.79610        3.69850
C         -5.49130        6.49330        3.31430
C         -4.70960        5.64120        2.51290
C         -3.58120        5.85300        1.73520
C         -3.12060        4.67870        1.16030
C         -3.88620        3.53540        1.47670
S         -5.21400        3.94210        2.48450
C         -3.35230        2.37310        0.92810
C         -3.63160        0.89560        0.97160
C         -4.86160        0.49240        0.17400
C         -5.42660       -0.75810        0.38010
C         -6.53390       -1.17440       -0.34430
C         -7.07370       -0.31790       -1.29480
C         -7.16580       -2.50510       -0.05400
C         -8.13250       -2.38450        1.12580
C         -6.50840        0.92400       -1.51720
C         -5.40410        1.33060       -0.78930
C         -3.74670        0.47000        2.42360
C         -4.95060        0.66370        3.09130
C         -5.06650        0.31380        4.42320
C         -3.98850       -0.23290        5.09780
C         -1.60570       -1.04700        5.14940
C         -1.51420       -2.53330        4.79730
C         -2.77520       -0.41550        4.45000
C         -2.66420       -0.04990        3.11440
C         -2.40910        0.35410        0.25030
C         -1.59970        1.40950       -0.23330
C         -2.19480        2.63050        0.21090
S         -1.74470        4.30010        0.16130
C         -0.41890        1.17220       -0.93160
C         -0.03430       -0.13830       -1.08720
C          1.24580       -0.67090       -1.70350
C          1.27720       -0.62590       -3.22310
C          2.46190       -0.97300       -3.85770
C          2.54850       -1.02340       -5.24000
C          1.42280       -0.70800       -5.99100
C          3.85560       -1.37150       -5.89020
C          4.74620       -0.13150       -5.98840
C          0.23890       -0.36190       -5.36560
C          0.15760       -0.32560       -3.98350
C          2.43000        0.06400       -1.10960
C          3.05980       -0.39310        0.03860
C          4.11210        0.32380        0.58020
C          4.53210        1.50250       -0.00850
C          4.31200        3.28350       -1.77530
C          3.42620        4.41950       -1.25920
C          3.90530        1.97870       -1.15260
C          2.85530        1.25010       -1.69140
C          1.15230       -2.12530       -1.33250
C         -0.06510       -2.39660       -0.73010
C         -0.81480       -1.19270       -0.55310
C         -2.03020       -0.95760        0.08490
S         -0.27840       -4.05630       -0.28160
C          1.31450       -4.40330       -0.90480
C          1.94550       -3.26360       -1.44880
S          3.52200       -3.61770       -2.03810
C          3.35480       -5.29080       -1.51790
C          2.10310       -5.53550       -0.94540
C          4.34240       -6.28400       -1.58500
C          5.62650       -6.23060       -2.06470
C          6.59840       -7.30570       -2.00520
C          6.44330       -8.54040       -1.43060
C          5.28460       -9.01160       -0.77840
N          4.38890       -9.47360       -0.22640
C          7.44630       -9.53260       -1.39940
N          8.21160      -10.38600       -1.33470
C          7.82100       -6.82690       -2.65190
C          9.04750       -7.43420       -2.87020
C         10.04080       -6.70980       -3.51730
C          9.82880       -5.40690       -3.94340
C          8.60420       -4.78900       -3.73210
C          7.61540       -5.50650       -3.08850
C          6.24750       -5.08400       -2.74050
O          5.74440       -4.00150       -2.98620
H         -2.60760       11.01850        3.94570
H         -3.30070       12.79800        5.55050
H         -5.41730       12.59130        6.77390
H         -6.89110       10.66470        6.44730
H         -6.35920        5.99250        3.72820
H         -3.12340        6.81780        1.62010
H         -5.00880       -1.41540        1.12940
H         -7.93910       -0.62650       -1.86330
H         -7.70920       -2.85830       -0.93230
H         -6.39300       -3.23780        0.18800
H         -8.59260       -3.34610        1.34090
H         -8.91750       -1.66670        0.89890
H         -7.60450       -2.04430        2.01400
H         -6.93040        1.58420       -2.26060
H         -4.97070        2.30270       -0.97250
H         -5.79660        1.08060        2.56490
H         -6.00440        0.46630        4.93620
H         -4.08840       -0.51390        6.13620
H         -1.71520       -0.93750        6.22980
H         -0.68180       -0.54920        4.84660
H         -0.67080       -2.99400        5.30630
H         -1.38450       -2.66230        3.72490
H         -2.42390       -3.04890        5.09680
H         -1.71570       -0.17870        2.61240
H          0.18110        1.99020       -1.29900
H          3.33400       -1.21020       -3.26520
H          1.47280       -0.73970       -7.07000
H          4.36660       -2.13250       -5.29680
H          3.67950       -1.77170       -6.89060
H          4.94640        0.26680       -4.99610
H          5.69360       -0.38030       -6.46040
H          4.25710        0.64170       -6.57760
H         -0.63320       -0.12260       -5.95650
H         -0.77420       -0.06480       -3.50330
H          2.73300       -1.30880        0.50890
H          4.60590       -0.04060        1.46910
H          5.35400        2.05700        0.42100
H          4.21760        3.21950       -2.86150
H          5.35410        3.50130       -1.53450
H          3.72340        5.36600       -1.70440
H          3.50890        4.50270       -0.17780
H          2.38380        4.23260       -1.50780
H          2.36990        1.60620       -2.58950
H         -2.61870       -1.77590        0.46990
H          1.81610       -6.50150       -0.57060
H          4.01880       -7.22810       -1.16360
H          9.24340       -8.44480       -2.55190
H         10.99920       -7.17610       -3.68990
H         10.62270       -4.87140       -4.44190
H          8.41570       -3.77620       -4.05360
