138
MeIC.sdf
C          7.87570       -3.46940       -4.29470
O          7.84530       -2.68860       -3.36300
C          9.07260       -3.90810       -5.01420
C          8.70790       -4.83230       -6.04410
C          7.27110       -5.01230       -6.02430
C          6.59350       -5.81250       -6.90960
C          7.28200       -6.53770       -7.90430
N          7.82120       -7.13840       -8.72050
C          5.20300       -6.02100       -6.98150
N          4.08400       -6.24470       -7.11840
C          6.74580       -4.18810       -4.94280
C          5.41310       -4.15350       -4.62590
C          4.68690       -3.41980       -3.67100
C          5.05290       -2.45820       -2.74080
C          3.96090       -1.97610       -2.03680
C          2.72730       -2.55620       -2.40490
S          2.94060       -3.72330       -3.64410
C          1.65930       -2.03050       -1.68340
C          0.16240       -2.18110       -1.64720
C         -0.29640       -3.53440       -1.13340
C          0.54410       -4.34070       -0.37960
C          0.10020       -5.55760        0.10380
C         -1.19300       -5.99620       -0.14490
C         -1.68330       -7.29970        0.41580
C         -2.27790       -7.09130        1.81020
C         -2.03560       -5.17720       -0.88570
C         -1.59590       -3.96200       -1.37430
C         -0.36260       -1.90400       -3.04440
C         -0.28870       -2.90920       -4.00170
C         -0.70080       -2.67420       -5.29840
C         -1.19370       -1.43090       -5.67500
C         -1.68910       -1.19470       -7.07220
C         -3.16680       -1.57560       -7.18510
C         -1.25830       -0.42920       -4.71640
C         -0.84060       -0.65670       -3.41710
C         -0.20450       -1.12830       -0.61520
C          0.95340       -0.49220       -0.10720
C          2.07480       -1.05630       -0.79020
S          3.78120       -0.77130       -0.79110
C          0.88220        0.51020        0.85660
C         -0.37060        0.88600        1.28060
C         -0.73830        1.95820        2.29170
C         -0.32970        3.36550        1.89820
C          0.04560        3.68720        0.60250
C          0.36300        4.99270        0.27160
C          0.29730        6.00640        1.21710
C          0.68850        7.41310        0.86690
C          2.17600        7.63730        1.14700
C         -0.09500        5.67970        2.50930
C         -0.40630        4.37780        2.84770
C         -0.15150        1.55790        3.63430
C         -0.87730        0.79690        4.53920
C         -0.31280        0.40840        5.74010
C          0.98970        0.76140        6.06470
C          1.61340        0.29860        7.34970
C          2.27210       -1.06950        7.16120
C          1.71620        1.51220        5.14940
C          1.15570        1.90620        3.94960
C         -2.24060        1.88230        2.25050
C         -2.65470        0.88990        1.37770
C         -1.52900        0.25030        0.77260
C         -1.45590       -0.77300       -0.16910
S         -4.37390        0.74590        1.23020
C         -4.55380        2.06990        2.35190
C         -3.31530        2.57220        2.80730
S         -3.51470        3.90140        3.88160
C         -5.26440        3.78420        3.72240
C         -5.64170        2.74280        2.87080
C         -6.21600        4.61740        4.32950
C         -6.05990        5.71530        5.13550
C         -7.15080        6.51430        5.66840
C         -8.50300        6.33000        5.52730
C         -9.13520        5.28960        4.82150
N         -9.71790        4.46980        4.26570
C         -9.42300        7.22180        6.11560
N        -10.18470        7.93990        6.58650
C         -6.55100        7.60280        6.41430
C         -5.12470        7.47760        6.35520
C         -4.77430        6.29500        5.56980
O         -3.65430        5.87860        5.32770
C         10.40670       -3.65380       -4.93630
S         11.24280       -4.57550       -6.16280
C          9.77990       -5.27990       -6.75100
C         -4.44940        8.45330        7.02030
S         -5.59330        9.55880        7.74220
C         -6.95290        8.68420        7.13320
C         -2.98690        8.63450        7.15740
C         11.12330       -2.75670       -4.00280
H          4.77780       -4.80210       -5.21840
H          6.06900       -2.13820       -2.60270
H          1.55500       -4.02250       -0.16910
H          0.77220       -6.17720        0.68030
H         -2.44600       -7.72220       -0.24120
H         -0.85610       -8.00930        0.48010
H         -3.11420       -6.39730        1.76500
H         -1.52900       -6.67990        2.48320
H         -2.63110       -8.03550        2.21810
H         -3.04760       -5.49750       -1.08810
H         -2.26240       -3.34760       -1.96200
H          0.08860       -3.88350       -3.72620
H         -0.63340       -3.46670       -6.02940
H         -1.56730       -0.14240       -7.33670
H         -1.10880       -1.79450       -7.77600
H         -3.30630       -2.62540       -6.93710
H         -3.76470       -0.97950       -6.49920
H         -3.52700       -1.40680       -8.19710
H         -1.63460        0.54660       -4.98900
H         -0.89080        0.14300       -2.69230
H          1.77810        0.97940        1.23250
H          0.09390        2.91820       -0.15480
H          0.66040        5.22570       -0.74110
H          0.48870        7.60250       -0.18960
H          0.10090        8.11800        1.45840
H          2.77920        6.95160        0.55610
H          2.46200        8.65610        0.89620
H          2.39270        7.46390        2.19870
H         -0.16460        6.45340        3.25990
H         -0.70840        4.14410        3.85790
H         -1.89220        0.50590        4.31080
H         -0.89630       -0.17670        6.43670
H          2.36630        1.01840        7.67680
H          0.84960        0.22570        8.12650
H          1.53460       -1.80410        6.84550
H          3.04670       -1.01470        6.39950
H          2.72260       -1.40670        8.09180
H          2.73310        1.79610        5.38070
H          1.73350        2.50230        3.25830
H         -2.35120       -1.24630       -0.54120
H         -6.66950        2.51700        2.64990
H         -7.23540        4.33580        4.09170
H          9.82530       -5.96870       -7.57030
H         -7.94100        9.03590        7.35190
H         -2.47820        7.79290        6.69320
H         -2.70250        8.69720        8.20660
H         -2.66880        9.55620        6.67120
H         11.63020       -1.96090       -4.54790
H         11.87680       -3.30720       -3.44090
H         10.40740       -2.31730       -3.31200
