113
MS-4Cl.sdf
C         -0.03520        3.14520        2.94030
C          0.53150        2.93540        4.21630
S          1.12230        1.30820        4.47010
C          0.63110        0.90360        2.87400
C          0.03490        1.95860        2.17630
N         -0.30070        1.53550        0.91490
C         -1.25710        2.27910        0.12480
C          0.08240        0.20820        0.78650
C          0.64160       -0.21080        2.02700
C          1.02880       -1.54460        2.27850
N          1.52040       -2.07110        3.38910
S          1.72420       -3.66000        3.15490
N          1.19640       -3.73560        1.62590
C          0.84200       -2.51800        1.24630
C          0.38500       -2.08230       -0.01610
C          0.05720       -0.72390       -0.29070
N         -0.21900       -0.61620       -1.64450
C         -0.27020        0.57130       -2.46630
C          1.03500        1.36030       -2.38660
C         -0.08500       -1.85700       -2.21320
C          0.26640       -2.77970       -1.22310
S          0.47970       -4.38320       -1.80240
C          0.10500       -3.82530       -3.41820
C         -0.18300       -2.44470       -3.49530
C         -2.59680        1.55050        0.04520
C          0.46270       -7.17110       -9.46440
O          0.24740       -5.98180       -9.56090
C          0.78770       -8.07420      -10.59050
C          0.95000       -7.75140      -11.92200
C          1.27120       -8.76900      -12.81120
Cl         1.48310       -8.41100      -14.47700
C          1.42440      -10.08200      -12.35260
Cl         1.83210      -11.32990      -13.46010
C          1.25400      -10.40240      -11.01020
C          0.93070       -9.38960      -10.12170
C          0.68460       -9.40130       -8.68170
C          0.60040      -10.53160       -7.91180
C          0.26450      -10.58530       -6.54140
N         -0.02100      -10.73320       -5.43880
C          0.80220      -11.83860       -8.40590
N          0.95840      -12.92610       -8.73750
C          0.47990       -8.02520       -8.25640
C          0.43700       -7.64410       -6.94070
C          1.26330        6.19380        8.26670
C          1.86510        5.78070        9.42800
C          2.12220        6.60950       10.59050
C          1.85090        7.94460       10.74330
C          1.26000        8.78690        9.77800
N          0.78960        9.54590        9.05510
C          2.13760        8.68120       11.91260
N          2.34050        9.34190       12.82900
C          2.75050        5.76000       11.60210
C          3.18800        6.03120       12.88810
C          3.75900        5.00220       13.62970
Cl         4.30190        5.33040       15.22540
C          3.89670        3.71440       13.10060
Cl         4.60790        2.46910       14.04440
C          3.45800        3.43800       11.81150
C          2.89120        4.46210       11.08170
C          2.34890        4.42260        9.70880
O          2.31750        3.45210        8.97740
C         -0.49550       -1.94140       -4.78560
C         -0.49680       -2.78670       -5.93500
C         -0.18400       -4.16520       -5.83870
C          0.10390       -4.65250       -4.54570
C         -0.10110       -5.14370       -6.83060
C          0.24530       -6.38710       -6.33610
S          0.45710       -6.33820       -4.58240
N         -0.81650       -0.71200       -5.20540
N         -0.98760       -0.83890       -6.49900
N         -0.81530       -2.03550       -6.98860
C         -1.39210        0.26450       -7.32100
C         -2.91390        0.34710       -7.39590
C          0.62270        3.94910        5.17640
C          0.14660        5.25450        4.92490
C         -0.43340        5.49010        3.65270
C         -0.52310        4.45340        2.67760
S          1.31130        3.79970        6.75330
C          0.96940        5.48930        7.08820
C          0.34740        6.10480        6.00530
N         -0.96870        6.59010        3.12430
N         -1.34780        6.22870        1.92830
N         -1.11280        4.98110        1.59930
C         -1.93880        7.15580        1.00740
C         -0.86500        7.81640        0.14760
H         -0.85460        2.48780       -0.86580
H         -1.39430        3.24200        0.61990
H         -0.43030        0.23960       -3.49380
H         -1.12850        1.18350       -2.19120
H          0.96420        2.25390       -3.00110
H          1.26410        1.65360       -1.36460
H          1.85750        0.75220       -2.75640
H         -2.48880        0.56260       -0.39720
H         -3.01330        1.43020        1.04270
H         -3.29630        2.12830       -0.55300
H          0.83080       -6.73400      -12.25940
H          1.38280      -11.42480      -10.69550
H          0.60640       -8.43340       -6.21740
H          0.95260        7.23070        8.22190
H          3.10030        7.00910       13.33180
H          3.55580        2.45050       11.38930
H         -0.28050       -4.94830       -7.87140
H         -0.97880        1.17420       -6.88050
H         -0.97050        0.10200       -8.31450
H         -3.33350        0.48780       -6.40270
H         -3.31630       -0.56850       -7.82180
H         -3.20750        1.18380       -8.02300
H          0.05510        7.13970        6.00850
H         -2.47000        7.90510        1.59680
H         -2.64200        6.60100        0.38280
H         -0.16360        8.35860        0.77660
H         -0.32110        7.06430       -0.41900
H         -1.32520        8.51420       -0.54590
