MS-4Cl.sdf
  xtb     12202113093D
 energy: -226.260781267902 gnorm: 0.000551587991 xtb: 6.4.1 (unknown)
113128  0     0  0            999 V2000
   -0.0352    3.1452    2.9403 C   0  0  0  0  0  0  0  0  0  0  0  0
    0.5315    2.9354    4.2163 C   0  0  0  0  0  0  0  0  0  0  0  0
    1.1223    1.3082    4.4701 S   0  0  0  0  0  0  0  0  0  0  0  0
    0.6311    0.9036    2.8740 C   0  0  0  0  0  0  0  0  0  0  0  0
    0.0349    1.9586    2.1763 C   0  0  0  0  0  0  0  0  0  0  0  0
   -0.3007    1.5355    0.9149 N   0  0  0  0  0  0  0  0  0  0  0  0
   -1.2571    2.2791    0.1248 C   0  0  0  0  0  0  0  0  0  0  0  0
    0.0824    0.2082    0.7865 C   0  0  0  0  0  0  0  0  0  0  0  0
    0.6416   -0.2108    2.0270 C   0  0  0  0  0  0  0  0  0  0  0  0
    1.0288   -1.5446    2.2785 C   0  0  0  0  0  0  0  0  0  0  0  0
    1.5204   -2.0711    3.3891 N   0  0  0  0  0  0  0  0  0  0  0  0
    1.7242   -3.6600    3.1549 S   0  0  0  0  0  0  0  0  0  0  0  0
    1.1964   -3.7356    1.6259 N   0  0  0  0  0  0  0  0  0  0  0  0
    0.8420   -2.5180    1.2463 C   0  0  0  0  0  0  0  0  0  0  0  0
    0.3850   -2.0823   -0.0161 C   0  0  0  0  0  0  0  0  0  0  0  0
    0.0572   -0.7239   -0.2907 C   0  0  0  0  0  0  0  0  0  0  0  0
   -0.2190   -0.6162   -1.6445 N   0  0  0  0  0  0  0  0  0  0  0  0
   -0.2702    0.5713   -2.4663 C   0  0  0  0  0  0  0  0  0  0  0  0
    1.0350    1.3603   -2.3866 C   0  0  0  0  0  0  0  0  0  0  0  0
   -0.0850   -1.8570   -2.2132 C   0  0  0  0  0  0  0  0  0  0  0  0
    0.2664   -2.7797   -1.2231 C   0  0  0  0  0  0  0  0  0  0  0  0
    0.4797   -4.3832   -1.8024 S   0  0  0  0  0  0  0  0  0  0  0  0
    0.1050   -3.8253   -3.4182 C   0  0  0  0  0  0  0  0  0  0  0  0
   -0.1830   -2.4447   -3.4953 C   0  0  0  0  0  0  0  0  0  0  0  0
   -2.5968    1.5505    0.0452 C   0  0  0  0  0  0  0  0  0  0  0  0
    0.4627   -7.1711   -9.4644 C   0  0  0  0  0  0  0  0  0  0  0  0
    0.2474   -5.9818   -9.5609 O   0  0  0  0  0  0  0  0  0  0  0  0
    0.7877   -8.0742  -10.5905 C   0  0  0  0  0  0  0  0  0  0  0  0
    0.9500   -7.7514  -11.9220 C   0  0  0  0  0  0  0  0  0  0  0  0
    1.2712   -8.7690  -12.8112 C   0  0  0  0  0  0  0  0  0  0  0  0
    1.4831   -8.4110  -14.4770 Cl  0  0  0  0  0  0  0  0  0  0  0  0
    1.4244  -10.0820  -12.3526 C   0  0  0  0  0  0  0  0  0  0  0  0
    1.8321  -11.3299  -13.4601 Cl  0  0  0  0  0  0  0  0  0  0  0  0
    1.2540  -10.4024  -11.0102 C   0  0  0  0  0  0  0  0  0  0  0  0
    0.9307   -9.3896  -10.1217 C   0  0  0  0  0  0  0  0  0  0  0  0
    0.6846   -9.4013   -8.6817 C   0  0  0  0  0  0  0  0  0  0  0  0
    0.6004  -10.5316   -7.9118 C   0  0  0  0  0  0  0  0  0  0  0  0
    0.2645  -10.5853   -6.5414 C   0  0  0  0  0  0  0  0  0  0  0  0
   -0.0210  -10.7332   -5.4388 N   0  0  0  0  0  0  0  0  0  0  0  0
    0.8022  -11.8386   -8.4059 C   0  0  0  0  0  0  0  0  0  0  0  0
    0.9584  -12.9261   -8.7375 N   0  0  0  0  0  0  0  0  0  0  0  0
    0.4799   -8.0252   -8.2564 C   0  0  0  0  0  0  0  0  0  0  0  0
    0.4370   -7.6441   -6.9407 C   0  0  0  0  0  0  0  0  0  0  0  0
    1.2633    6.1938    8.2667 C   0  0  0  0  0  0  0  0  0  0  0  0
    1.8651    5.7807    9.4280 C   0  0  0  0  0  0  0  0  0  0  0  0
    2.1222    6.6095   10.5905 C   0  0  0  0  0  0  0  0  0  0  0  0
    1.8509    7.9446   10.7433 C   0  0  0  0  0  0  0  0  0  0  0  0
    1.2600    8.7869    9.7780 C   0  0  0  0  0  0  0  0  0  0  0  0
    0.7896    9.5459    9.0551 N   0  0  0  0  0  0  0  0  0  0  0  0
    2.1376    8.6812   11.9126 C   0  0  0  0  0  0  0  0  0  0  0  0
    2.3405    9.3419   12.8290 N   0  0  0  0  0  0  0  0  0  0  0  0
    2.7505    5.7600   11.6021 C   0  0  0  0  0  0  0  0  0  0  0  0
    3.1880    6.0312   12.8881 C   0  0  0  0  0  0  0  0  0  0  0  0
    3.7590    5.0022   13.6297 C   0  0  0  0  0  0  0  0  0  0  0  0
    4.3019    5.3304   15.2254 Cl  0  0  0  0  0  0  0  0  0  0  0  0
    3.8967    3.7144   13.1006 C   0  0  0  0  0  0  0  0  0  0  0  0
    4.6079    2.4691   14.0444 Cl  0  0  0  0  0  0  0  0  0  0  0  0
    3.4580    3.4380   11.8115 C   0  0  0  0  0  0  0  0  0  0  0  0
    2.8912    4.4621   11.0817 C   0  0  0  0  0  0  0  0  0  0  0  0
    2.3489    4.4226    9.7088 C   0  0  0  0  0  0  0  0  0  0  0  0
    2.3175    3.4521    8.9774 O   0  0  0  0  0  0  0  0  0  0  0  0
   -0.4955   -1.9414   -4.7856 C   0  0  0  0  0  0  0  0  0  0  0  0
   -0.4968   -2.7867   -5.9350 C   0  0  0  0  0  0  0  0  0  0  0  0
   -0.1840   -4.1652   -5.8387 C   0  0  0  0  0  0  0  0  0  0  0  0
    0.1039   -4.6525   -4.5457 C   0  0  0  0  0  0  0  0  0  0  0  0
   -0.1011   -5.1437   -6.8306 C   0  0  0  0  0  0  0  0  0  0  0  0
    0.2453   -6.3871   -6.3361 C   0  0  0  0  0  0  0  0  0  0  0  0
    0.4571   -6.3382   -4.5824 S   0  0  0  0  0  0  0  0  0  0  0  0
   -0.8165   -0.7120   -5.2054 N   0  0  0  0  0  0  0  0  0  0  0  0
   -0.9876   -0.8389   -6.4990 N   0  0  0  0  0  0  0  0  0  0  0  0
   -0.8153   -2.0355   -6.9886 N   0  0  0  0  0  0  0  0  0  0  0  0
   -1.3921    0.2645   -7.3210 C   0  0  0  0  0  0  0  0  0  0  0  0
   -2.9139    0.3471   -7.3959 C   0  0  0  0  0  0  0  0  0  0  0  0
    0.6227    3.9491    5.1764 C   0  0  0  0  0  0  0  0  0  0  0  0
    0.1466    5.2545    4.9249 C   0  0  0  0  0  0  0  0  0  0  0  0
   -0.4334    5.4901    3.6527 C   0  0  0  0  0  0  0  0  0  0  0  0
   -0.5231    4.4534    2.6776 C   0  0  0  0  0  0  0  0  0  0  0  0
    1.3113    3.7997    6.7533 S   0  0  0  0  0  0  0  0  0  0  0  0
    0.9694    5.4893    7.0882 C   0  0  0  0  0  0  0  0  0  0  0  0
    0.3474    6.1048    6.0053 C   0  0  0  0  0  0  0  0  0  0  0  0
   -0.9687    6.5901    3.1243 N   0  0  0  0  0  0  0  0  0  0  0  0
   -1.3478    6.2287    1.9283 N   0  0  0  0  0  0  0  0  0  0  0  0
   -1.1128    4.9811    1.5993 N   0  0  0  0  0  0  0  0  0  0  0  0
   -1.9388    7.1558    1.0074 C   0  0  0  0  0  0  0  0  0  0  0  0
   -0.8650    7.8164    0.1476 C   0  0  0  0  0  0  0  0  0  0  0  0
   -0.8546    2.4878   -0.8658 H   0  0  0  0  0  0  0  0  0  0  0  0
   -1.3943    3.2420    0.6199 H   0  0  0  0  0  0  0  0  0  0  0  0
   -0.4303    0.2396   -3.4938 H   0  0  0  0  0  0  0  0  0  0  0  0
   -1.1285    1.1835   -2.1912 H   0  0  0  0  0  0  0  0  0  0  0  0
    0.9642    2.2539   -3.0011 H   0  0  0  0  0  0  0  0  0  0  0  0
    1.2641    1.6536   -1.3646 H   0  0  0  0  0  0  0  0  0  0  0  0
    1.8575    0.7522   -2.7564 H   0  0  0  0  0  0  0  0  0  0  0  0
   -2.4888    0.5626   -0.3972 H   0  0  0  0  0  0  0  0  0  0  0  0
   -3.0133    1.4302    1.0427 H   0  0  0  0  0  0  0  0  0  0  0  0
   -3.2963    2.1283   -0.5530 H   0  0  0  0  0  0  0  0  0  0  0  0
    0.8308   -6.7340  -12.2594 H   0  0  0  0  0  0  0  0  0  0  0  0
    1.3828  -11.4248  -10.6955 H   0  0  0  0  0  0  0  0  0  0  0  0
    0.6064   -8.4334   -6.2174 H   0  0  0  0  0  0  0  0  0  0  0  0
    0.9526    7.2307    8.2219 H   0  0  0  0  0  0  0  0  0  0  0  0
    3.1003    7.0091   13.3318 H   0  0  0  0  0  0  0  0  0  0  0  0
    3.5558    2.4505   11.3893 H   0  0  0  0  0  0  0  0  0  0  0  0
   -0.2805   -4.9483   -7.8714 H   0  0  0  0  0  0  0  0  0  0  0  0
   -0.9788    1.1742   -6.8805 H   0  0  0  0  0  0  0  0  0  0  0  0
   -0.9705    0.1020   -8.3145 H   0  0  0  0  0  0  0  0  0  0  0  0
   -3.3335    0.4878   -6.4027 H   0  0  0  0  0  0  0  0  0  0  0  0
   -3.3163   -0.5685   -7.8218 H   0  0  0  0  0  0  0  0  0  0  0  0
   -3.2075    1.1838   -8.0230 H   0  0  0  0  0  0  0  0  0  0  0  0
    0.0551    7.1397    6.0085 H   0  0  0  0  0  0  0  0  0  0  0  0
   -2.4700    7.9051    1.5968 H   0  0  0  0  0  0  0  0  0  0  0  0
   -2.6420    6.6010    0.3828 H   0  0  0  0  0  0  0  0  0  0  0  0
   -0.1636    8.3586    0.7766 H   0  0  0  0  0  0  0  0  0  0  0  0
   -0.3211    7.0643   -0.4190 H   0  0  0  0  0  0  0  0  0  0  0  0
   -1.3252    8.5142   -0.5459 H   0  0  0  0  0  0  0  0  0  0  0  0
  1  2  2  0  0  0  0
  2  3  1  0  0  0  0
  3  4  1  0  0  0  0
  4  5  2  0  0  0  0
  1  5  1  0  0  0  0
  5  6  1  0  0  0  0
  6  7  1  0  0  0  0
  6  8  1  0  0  0  0
  8  9  2  0  0  0  0
  4  9  1  0  0  0  0
  9 10  1  0  0  0  0
 10 11  2  0  0  0  0
 11 12  1  0  0  0  0
 12 13  1  0  0  0  0
 13 14  2  0  0  0  0
 10 14  1  0  0  0  0
 14 15  1  0  0  0  0
 15 16  2  0  0  0  0
  8 16  1  0  0  0  0
 16 17  1  0  0  0  0
 17 18  1  0  0  0  0
 18 19  1  0  0  0  0
 17 20  1  0  0  0  0
 20 21  2  0  0  0  0
 15 21  1  0  0  0  0
 21 22  1  0  0  0  0
 22 23  1  0  0  0  0
 20 24  1  0  0  0  0
  7 25  1  0  0  0  0
 26 27  2  0  0  0  0
 26 28  1  0  0  0  0
 28 29  2  0  0  0  0
 29 30  1  0  0  0  0
 30 31  1  0  0  0  0
 30 32  2  0  0  0  0
 32 33  1  0  0  0  0
 32 34  1  0  0  0  0
 34 35  2  0  0  0  0
 28 35  1  0  0  0  0
 35 36  1  0  0  0  0
 36 37  2  0  0  0  0
 37 38  1  0  0  0  0
 38 39  3  0  0  0  0
 37 40  1  0  0  0  0
 40 41  3  0  0  0  0
 36 42  1  0  0  0  0
 26 42  1  0  0  0  0
 42 43  2  0  0  0  0
 44 45  2  0  0  0  0
 45 46  1  0  0  0  0
 46 47  2  0  0  0  0
 47 48  1  0  0  0  0
 48 49  3  0  0  0  0
 47 50  1  0  0  0  0
 50 51  3  0  0  0  0
 46 52  1  0  0  0  0
 52 53  2  0  0  0  0
 53 54  1  0  0  0  0
 54 55  1  0  0  0  0
 54 56  2  0  0  0  0
 56 57  1  0  0  0  0
 56 58  1  0  0  0  0
 58 59  2  0  0  0  0
 52 59  1  0  0  0  0
 59 60  1  0  0  0  0
 60 61  2  0  0  0  0
 45 60  1  0  0  0  0
 23 24  2  0  0  0  0
 24 62  1  0  0  0  0
 62 63  1  0  0  0  0
 63 64  1  0  0  0  0
 64 65  2  0  0  0  0
 65 23  1  0  0  0  0
 64 66  1  0  0  0  0
 66 67  2  0  0  0  0
 67 68  1  0  0  0  0
 68 65  1  0  0  0  0
 62 69  2  0  0  0  0
 69 70  1  0  0  0  0
 70 71  1  0  0  0  0
 71 63  2  0  0  0  0
 70 72  1  0  0  0  0
 72 73  1  0  0  0  0
  2 74  1  0  0  0  0
 74 75  2  0  0  0  0
 75 76  1  0  0  0  0
 76 77  1  0  0  0  0
 77  1  1  0  0  0  0
 74 78  1  0  0  0  0
 78 79  1  0  0  0  0
 79 80  2  0  0  0  0
 80 75  1  0  0  0  0
 76 81  2  0  0  0  0
 81 82  1  0  0  0  0
 82 83  1  0  0  0  0
 83 77  2  0  0  0  0
 82 84  1  0  0  0  0
 84 85  1  0  0  0  0
 44 79  1  0  0  0  0
 43 67  1  0  0  0  0
  7 86  1  0  0  0  0
  7 87  1  0  0  0  0
 18 88  1  0  0  0  0
 18 89  1  0  0  0  0
 19 90  1  0  0  0  0
 19 91  1  0  0  0  0
 19 92  1  0  0  0  0
 25 93  1  0  0  0  0
 25 94  1  0  0  0  0
 25 95  1  0  0  0  0
 29 96  1  0  0  0  0
 34 97  1  0  0  0  0
 43 98  1  0  0  0  0
 44 99  1  0  0  0  0
 53100  1  0  0  0  0
 58101  1  0  0  0  0
 66102  1  0  0  0  0
 72103  1  0  0  0  0
 72104  1  0  0  0  0
 73105  1  0  0  0  0
 73106  1  0  0  0  0
 73107  1  0  0  0  0
 80108  1  0  0  0  0
 84109  1  0  0  0  0
 84110  1  0  0  0  0
 85111  1  0  0  0  0
 85112  1  0  0  0  0
 85113  1  0  0  0  0
M  END
