N10.sdf
  xtb     12202113143D
 energy: -244.468057248379 gnorm: 0.000268174434 xtb: 6.4.1 (unknown)
132147  0     0  0            999 V2000
    6.2103   -1.8252   -3.6799 C   0  0  0  0  0  0  0  0  0  0  0  0
    5.0272   -0.7633   -2.9897 S   0  0  0  0  0  0  0  0  0  0  0  0
    6.2505    0.3234   -2.4195 C   0  0  0  0  0  0  0  0  0  0  0  0
    7.5010   -0.1295   -2.7594 C   0  0  0  0  0  0  0  0  0  0  0  0
    7.4772   -1.3295   -3.4825 C   0  0  0  0  0  0  0  0  0  0  0  0
    5.8598    1.4083   -1.5482 C   0  0  0  0  0  0  0  0  0  0  0  0
    6.6010    1.6371   -0.3747 C   0  0  0  0  0  0  0  0  0  0  0  0
    6.1322    2.4497    0.6329 C   0  0  0  0  0  0  0  0  0  0  0  0
    4.8445    3.0226    0.5440 C   0  0  0  0  0  0  0  0  0  0  0  0
    4.1468    2.8879   -0.6790 C   0  0  0  0  0  0  0  0  0  0  0  0
    4.6827    2.1435   -1.7435 C   0  0  0  0  0  0  0  0  0  0  0  0
    4.2492    3.6519    1.6569 C   0  0  0  0  0  0  0  0  0  0  0  0
    2.8878    4.0013    1.6003 C   0  0  0  0  0  0  0  0  0  0  0  0
    2.2560    3.9762    0.3377 C   0  0  0  0  0  0  0  0  0  0  0  0
    2.8667    3.4719   -0.7821 C   0  0  0  0  0  0  0  0  0  0  0  0
    6.9451    2.6417    1.8461 C   0  0  0  0  0  0  0  0  0  0  0  0
    6.3812    3.4403    2.8222 N   0  0  0  0  0  0  0  0  0  0  0  0
    5.1158    4.0129    2.7926 C   0  0  0  0  0  0  0  0  0  0  0  0
    2.1392    3.4536   -2.0640 C   0  0  0  0  0  0  0  0  0  0  0  0
    2.7954    2.8452   -3.1167 N   0  0  0  0  0  0  0  0  0  0  0  0
    4.0367    2.2300   -3.0662 C   0  0  0  0  0  0  0  0  0  0  0  0
    2.1494    2.9105   -4.4249 C   0  0  0  0  0  0  0  0  0  0  0  0
    2.5693    4.1643   -5.1809 C   0  0  0  0  0  0  0  0  0  0  0  0
    1.0399    3.9465   -2.2030 O   0  0  0  0  0  0  0  0  0  0  0  0
    4.5642    1.8438   -4.0896 O   0  0  0  0  0  0  0  0  0  0  0  0
    8.0471    2.1534    1.9856 O   0  0  0  0  0  0  0  0  0  0  0  0
    7.2265    3.7762    3.9654 C   0  0  0  0  0  0  0  0  0  0  0  0
    8.0483    5.0283    3.6889 C   0  0  0  0  0  0  0  0  0  0  0  0
    4.7976    4.8118    3.6496 O   0  0  0  0  0  0  0  0  0  0  0  0
    0.0198    4.5410    4.1797 C   0  0  0  0  0  0  0  0  0  0  0  0
    0.4709    4.9294    2.5533 S   0  0  0  0  0  0  0  0  0  0  0  0
    2.0563    4.2347    2.7524 C   0  0  0  0  0  0  0  0  0  0  0  0
    2.2039    3.7630    4.0382 C   0  0  0  0  0  0  0  0  0  0  0  0
    1.0712    3.9378    4.8337 C   0  0  0  0  0  0  0  0  0  0  0  0
    5.7771   -3.0590   -4.3003 C   0  0  0  0  0  0  0  0  0  0  0  0
    4.4285   -3.2359   -4.6221 C   0  0  0  0  0  0  0  0  0  0  0  0
    3.9726   -4.4274   -5.1398 C   0  0  0  0  0  0  0  0  0  0  0  0
    4.8621   -5.4729   -5.3410 C   0  0  0  0  0  0  0  0  0  0  0  0
    6.2093   -5.3105   -5.0577 C   0  0  0  0  0  0  0  0  0  0  0  0
    6.6632   -4.1106   -4.5461 C   0  0  0  0  0  0  0  0  0  0  0  0
    4.5990   -8.9398   -8.7740 C   0  0  0  0  0  0  0  0  0  0  0  0
    4.0345  -10.1210   -9.2565 C   0  0  0  0  0  0  0  0  0  0  0  0
    3.0913  -10.8030   -8.5123 C   0  0  0  0  0  0  0  0  0  0  0  0
    2.6940  -10.3097   -7.2541 C   0  0  0  0  0  0  0  0  0  0  0  0
    3.2660   -9.1126   -6.7646 C   0  0  0  0  0  0  0  0  0  0  0  0
    4.2241   -8.4339   -7.5443 C   0  0  0  0  0  0  0  0  0  0  0  0
    1.7343  -10.9871   -6.4767 C   0  0  0  0  0  0  0  0  0  0  0  0
    1.3596  -10.4859   -5.2450 C   0  0  0  0  0  0  0  0  0  0  0  0
    1.9249   -9.3067   -4.7604 C   0  0  0  0  0  0  0  0  0  0  0  0
    2.8654   -8.6223   -5.5061 C   0  0  0  0  0  0  0  0  0  0  0  0
    2.4936  -12.0496   -9.0351 C   0  0  0  0  0  0  0  0  0  0  0  0
    1.5677  -12.6785   -8.2187 N   0  0  0  0  0  0  0  0  0  0  0  0
    1.1267  -12.2353   -6.9829 C   0  0  0  0  0  0  0  0  0  0  0  0
    3.4471   -7.3696   -4.9857 C   0  0  0  0  0  0  0  0  0  0  0  0
    4.3576   -6.7275   -5.8186 N   0  0  0  0  0  0  0  0  0  0  0  0
    4.8120   -7.1691   -7.0552 C   0  0  0  0  0  0  0  0  0  0  0  0
    3.1621   -6.9152   -3.9007 O   0  0  0  0  0  0  0  0  0  0  0  0
    5.6262   -6.5343   -7.6863 O   0  0  0  0  0  0  0  0  0  0  0  0
    2.7916  -12.5105  -10.1156 O   0  0  0  0  0  0  0  0  0  0  0  0
    0.9613  -13.9064   -8.7291 C   0  0  0  0  0  0  0  0  0  0  0  0
   -0.3183  -13.6061   -9.4985 C   0  0  0  0  0  0  0  0  0  0  0  0
    0.2900  -12.8514   -6.3590 O   0  0  0  0  0  0  0  0  0  0  0  0
   -8.4160    2.8485    4.6828 C   0  0  0  0  0  0  0  0  0  0  0  0
   -9.7603    2.7256    5.0330 C   0  0  0  0  0  0  0  0  0  0  0  0
  -10.2823    3.4654    6.0765 C   0  0  0  0  0  0  0  0  0  0  0  0
   -9.4589    4.3545    6.7948 C   0  0  0  0  0  0  0  0  0  0  0  0
   -8.0964    4.4824    6.4382 C   0  0  0  0  0  0  0  0  0  0  0  0
   -7.5886    3.7138    5.3725 C   0  0  0  0  0  0  0  0  0  0  0  0
   -9.9692    5.1163    7.8641 C   0  0  0  0  0  0  0  0  0  0  0  0
   -9.1426    5.9831    8.5526 C   0  0  0  0  0  0  0  0  0  0  0  0
   -7.7993    6.1127    8.1986 C   0  0  0  0  0  0  0  0  0  0  0  0
   -7.2738    5.3736    7.1562 C   0  0  0  0  0  0  0  0  0  0  0  0
  -11.7067    3.3237    6.4433 C   0  0  0  0  0  0  0  0  0  0  0  0
  -12.1537    4.1083    7.4934 N   0  0  0  0  0  0  0  0  0  0  0  0
  -11.3902    4.9830    8.2490 C   0  0  0  0  0  0  0  0  0  0  0  0
   -5.8485    5.5170    6.7934 C   0  0  0  0  0  0  0  0  0  0  0  0
   -5.4066    4.7227    5.7423 N   0  0  0  0  0  0  0  0  0  0  0  0
   -6.1643    3.8205    5.0012 C   0  0  0  0  0  0  0  0  0  0  0  0
   -5.0973    6.2775    7.3608 O   0  0  0  0  0  0  0  0  0  0  0  0
   -5.6655    3.1591    4.1190 O   0  0  0  0  0  0  0  0  0  0  0  0
  -12.4561    2.5692    5.8621 O   0  0  0  0  0  0  0  0  0  0  0  0
  -13.5588    3.9631    7.8685 C   0  0  0  0  0  0  0  0  0  0  0  0
  -13.7416    2.8408    8.8817 C   0  0  0  0  0  0  0  0  0  0  0  0
  -11.8755    5.6038    9.1698 O   0  0  0  0  0  0  0  0  0  0  0  0
   -1.3401    4.7290    4.6346 C   0  0  0  0  0  0  0  0  0  0  0  0
   -1.7229    4.3906    5.9362 C   0  0  0  0  0  0  0  0  0  0  0  0
   -3.0503    4.4170    6.3103 C   0  0  0  0  0  0  0  0  0  0  0  0
   -4.0182    4.8001    5.3937 C   0  0  0  0  0  0  0  0  0  0  0  0
   -3.6521    5.2069    4.1190 C   0  0  0  0  0  0  0  0  0  0  0  0
   -2.3262    5.1678    3.7461 C   0  0  0  0  0  0  0  0  0  0  0  0
    8.4038    0.4042   -2.5204 H   0  0  0  0  0  0  0  0  0  0  0  0
    8.3658   -1.8101   -3.8498 H   0  0  0  0  0  0  0  0  0  0  0  0
    7.5449    1.1326   -0.2294 H   0  0  0  0  0  0  0  0  0  0  0  0
    1.2395    4.3302    0.2412 H   0  0  0  0  0  0  0  0  0  0  0  0
    2.4422    2.0178   -4.9799 H   0  0  0  0  0  0  0  0  0  0  0  0
    1.0718    2.9121   -4.2525 H   0  0  0  0  0  0  0  0  0  0  0  0
    2.0746    4.1911   -6.1476 H   0  0  0  0  0  0  0  0  0  0  0  0
    2.2896    5.0530   -4.6198 H   0  0  0  0  0  0  0  0  0  0  0  0
    3.6452    4.1638   -5.3383 H   0  0  0  0  0  0  0  0  0  0  0  0
    6.5720    3.9364    4.8236 H   0  0  0  0  0  0  0  0  0  0  0  0
    7.8816    2.9218    4.1441 H   0  0  0  0  0  0  0  0  0  0  0  0
    8.6704    5.2549    4.5500 H   0  0  0  0  0  0  0  0  0  0  0  0
    8.6900    4.8731    2.8246 H   0  0  0  0  0  0  0  0  0  0  0  0
    7.3905    5.8733    3.4997 H   0  0  0  0  0  0  0  0  0  0  0  0
    3.0913    3.2711    4.3893 H   0  0  0  0  0  0  0  0  0  0  0  0
    1.0225    3.6004    5.8528 H   0  0  0  0  0  0  0  0  0  0  0  0
    3.7346   -2.4248   -4.4585 H   0  0  0  0  0  0  0  0  0  0  0  0
    2.9272   -4.5565   -5.3746 H   0  0  0  0  0  0  0  0  0  0  0  0
    6.8969   -6.1243   -5.2288 H   0  0  0  0  0  0  0  0  0  0  0  0
    7.7091   -3.9993   -4.3079 H   0  0  0  0  0  0  0  0  0  0  0  0
    5.3337   -8.4009   -9.3532 H   0  0  0  0  0  0  0  0  0  0  0  0
    4.3230  -10.5193  -10.2175 H   0  0  0  0  0  0  0  0  0  0  0  0
    0.6221  -11.0240   -4.6688 H   0  0  0  0  0  0  0  0  0  0  0  0
    1.6369   -8.9079   -3.7993 H   0  0  0  0  0  0  0  0  0  0  0  0
    1.6942  -14.3846   -9.3806 H   0  0  0  0  0  0  0  0  0  0  0  0
    0.7463  -14.5452   -7.8708 H   0  0  0  0  0  0  0  0  0  0  0  0
   -0.7463  -14.5329   -9.8693 H   0  0  0  0  0  0  0  0  0  0  0  0
   -0.1057  -12.9563  -10.3443 H   0  0  0  0  0  0  0  0  0  0  0  0
   -1.0432  -13.1221   -8.8483 H   0  0  0  0  0  0  0  0  0  0  0  0
   -7.9995    2.2709    3.8714 H   0  0  0  0  0  0  0  0  0  0  0  0
  -10.4125    2.0515    4.4984 H   0  0  0  0  0  0  0  0  0  0  0  0
   -9.5571    6.5560    9.3685 H   0  0  0  0  0  0  0  0  0  0  0  0
   -7.1495    6.7898    8.7324 H   0  0  0  0  0  0  0  0  0  0  0  0
  -14.1186    3.7460    6.9572 H   0  0  0  0  0  0  0  0  0  0  0  0
  -13.8827    4.9150    8.2919 H   0  0  0  0  0  0  0  0  0  0  0  0
  -14.7922    2.7533    9.1424 H   0  0  0  0  0  0  0  0  0  0  0  0
  -13.1736    3.0522    9.7847 H   0  0  0  0  0  0  0  0  0  0  0  0
  -13.4064    1.8958    8.4607 H   0  0  0  0  0  0  0  0  0  0  0  0
   -0.9814    4.0814    6.6550 H   0  0  0  0  0  0  0  0  0  0  0  0
   -3.3399    4.1273    7.3086 H   0  0  0  0  0  0  0  0  0  0  0  0
   -4.4067    5.5237    3.4161 H   0  0  0  0  0  0  0  0  0  0  0  0
   -2.0464    5.4558    2.7436 H   0  0  0  0  0  0  0  0  0  0  0  0
  1  2  1  0  0  0  0
  2  3  1  0  0  0  0
  3  4  2  0  0  0  0
  4  5  1  0  0  0  0
  5  1  2  0  0  0  0
  3  6  1  0  0  0  0
  6  7  2  0  0  0  0
  7  8  1  0  0  0  0
  8  9  2  0  0  0  0
  9 10  1  0  0  0  0
 10 11  2  0  0  0  0
 11  6  1  0  0  0  0
  9 12  1  0  0  0  0
 12 13  2  0  0  0  0
 13 14  1  0  0  0  0
 14 15  2  0  0  0  0
 15 10  1  0  0  0  0
  8 16  1  0  0  0  0
 16 17  1  0  0  0  0
 17 18  1  0  0  0  0
 18 12  1  0  0  0  0
 15 19  1  0  0  0  0
 19 20  1  0  0  0  0
 20 21  1  0  0  0  0
 21 11  1  0  0  0  0
 20 22  1  0  0  0  0
 22 23  1  0  0  0  0
 19 24  2  0  0  0  0
 21 25  2  0  0  0  0
 16 26  2  0  0  0  0
 17 27  1  0  0  0  0
 27 28  1  0  0  0  0
 18 29  2  0  0  0  0
 30 31  1  0  0  0  0
 31 32  1  0  0  0  0
 32 33  2  0  0  0  0
 33 34  1  0  0  0  0
 34 30  2  0  0  0  0
 13 32  1  0  0  0  0
  1 35  1  0  0  0  0
 35 36  2  0  0  0  0
 36 37  1  0  0  0  0
 37 38  2  0  0  0  0
 38 39  1  0  0  0  0
 39 40  2  0  0  0  0
 40 35  1  0  0  0  0
 41 42  2  0  0  0  0
 42 43  1  0  0  0  0
 43 44  2  0  0  0  0
 44 45  1  0  0  0  0
 45 46  2  0  0  0  0
 46 41  1  0  0  0  0
 44 47  1  0  0  0  0
 47 48  2  0  0  0  0
 48 49  1  0  0  0  0
 49 50  2  0  0  0  0
 50 45  1  0  0  0  0
 43 51  1  0  0  0  0
 51 52  1  0  0  0  0
 52 53  1  0  0  0  0
 53 47  1  0  0  0  0
 50 54  1  0  0  0  0
 54 55  1  0  0  0  0
 55 56  1  0  0  0  0
 56 46  1  0  0  0  0
 54 57  2  0  0  0  0
 56 58  2  0  0  0  0
 51 59  2  0  0  0  0
 52 60  1  0  0  0  0
 60 61  1  0  0  0  0
 53 62  2  0  0  0  0
 63 64  2  0  0  0  0
 64 65  1  0  0  0  0
 65 66  2  0  0  0  0
 66 67  1  0  0  0  0
 67 68  2  0  0  0  0
 68 63  1  0  0  0  0
 66 69  1  0  0  0  0
 69 70  2  0  0  0  0
 70 71  1  0  0  0  0
 71 72  2  0  0  0  0
 72 67  1  0  0  0  0
 65 73  1  0  0  0  0
 73 74  1  0  0  0  0
 74 75  1  0  0  0  0
 75 69  1  0  0  0  0
 72 76  1  0  0  0  0
 76 77  1  0  0  0  0
 77 78  1  0  0  0  0
 78 68  1  0  0  0  0
 76 79  2  0  0  0  0
 78 80  2  0  0  0  0
 73 81  2  0  0  0  0
 74 82  1  0  0  0  0
 82 83  1  0  0  0  0
 75 84  2  0  0  0  0
 55 38  1  0  0  0  0
 30 85  1  0  0  0  0
 85 86  2  0  0  0  0
 86 87  1  0  0  0  0
 87 88  2  0  0  0  0
 88 89  1  0  0  0  0
 89 90  2  0  0  0  0
 90 85  1  0  0  0  0
 88 77  1  0  0  0  0
  4 91  1  0  0  0  0
  5 92  1  0  0  0  0
  7 93  1  0  0  0  0
 14 94  1  0  0  0  0
 22 95  1  0  0  0  0
 22 96  1  0  0  0  0
 23 97  1  0  0  0  0
 23 98  1  0  0  0  0
 23 99  1  0  0  0  0
 27100  1  0  0  0  0
 27101  1  0  0  0  0
 28102  1  0  0  0  0
 28103  1  0  0  0  0
 28104  1  0  0  0  0
 33105  1  0  0  0  0
 34106  1  0  0  0  0
 36107  1  0  0  0  0
 37108  1  0  0  0  0
 39109  1  0  0  0  0
 40110  1  0  0  0  0
 41111  1  0  0  0  0
 42112  1  0  0  0  0
 48113  1  0  0  0  0
 49114  1  0  0  0  0
 60115  1  0  0  0  0
 60116  1  0  0  0  0
 61117  1  0  0  0  0
 61118  1  0  0  0  0
 61119  1  0  0  0  0
 63120  1  0  0  0  0
 64121  1  0  0  0  0
 70122  1  0  0  0  0
 71123  1  0  0  0  0
 82124  1  0  0  0  0
 82125  1  0  0  0  0
 83126  1  0  0  0  0
 83127  1  0  0  0  0
 83128  1  0  0  0  0
 86129  1  0  0  0  0
 87130  1  0  0  0  0
 89131  1  0  0  0  0
 90132  1  0  0  0  0
M  END
