152
N2200.sdf
C          5.28550       -7.62990        4.05900
C          5.08330       -6.94040        5.24090
C          3.77900       -6.62840        5.66160
C          2.66550       -7.02390        4.88360
C          2.90440       -7.72550        3.68350
C          4.19630       -8.01590        3.28380
C          3.55730       -5.92000        6.86010
C          2.27990       -5.57730        7.22750
C          1.15620       -5.92650        6.44650
C          1.35310       -6.70270        5.29700
C          0.22300       -7.28880        4.55180
N          0.51580       -7.88530        3.33600
C          1.77660       -8.13780        2.82970
C          6.24050       -6.52590        6.05890
N          5.95710       -5.85480        7.23840
C          4.70020       -5.50890        7.70140
C         -0.61780       -8.37890        2.55800
C         -0.96300       -9.81350        2.93500
O          1.92850       -8.67650        1.75350
O         -0.91880       -7.29440        4.96620
C          7.09950       -5.43040        8.04450
C          7.59210       -4.05560        7.61200
O          4.55780       -4.90370        8.74240
O          7.38510       -6.75760        5.73370
C         -0.11330       -5.37200        6.86300
C         -0.53250       -5.15210        8.15790
C         -1.73360       -4.44730        8.24490
C         -2.23540       -4.08680        7.01120
S         -1.22800       -4.68240        5.73260
C         -3.37200       -3.28130        6.71160
C         -4.15490       -2.53910        7.57030
C         -5.10060       -1.75010        6.90730
C         -5.08490       -1.91280        5.54450
S         -3.86780       -3.05080        5.06590
C         -5.75640       -1.14140        4.51830
C         -6.32130       -1.71780        3.37600
C         -6.63290       -0.90800        2.26870
C         -6.43520        0.49170        2.32470
C         -6.02990        1.06700        3.54740
C         -5.69310        0.26110        4.61020
C         -7.08160       -1.47660        1.05760
C         -7.17750       -0.70140       -0.07560
C         -6.84500        0.66500       -0.05880
C         -6.56840        1.27830        1.16670
C         -6.46310        2.74520        1.27220
N         -6.13530        3.25760        2.51820
C         -5.87520        2.52960        3.66340
C         -6.64970       -3.15450        3.33320
N         -7.13820       -3.64690        2.13250
C         -7.35310       -2.92430        0.97440
C         -6.01090        4.71040        2.61150
C         -4.61890        5.16580        2.19390
O         -5.54990        3.07240        4.69810
O         -6.70020        3.49450        0.34700
C         -7.41950       -5.07990        2.08660
C         -6.15320       -5.87320        1.79090
O         -7.74960       -3.45800       -0.04010
O         -6.55840       -3.88370        4.29930
C         -6.62040        1.32840       -1.32820
C         -7.37540        1.35420       -2.47160
C         -6.70850        1.92410       -3.56400
C         -5.41410        2.29350       -3.27350
S         -5.04660        2.00360       -1.60340
C         -4.38680        2.75810       -4.14760
C         -4.47170        3.22140       -5.44230
C         -3.22550        3.48200       -6.01910
C         -2.16740        3.21980       -5.18390
S         -2.73470        2.68350       -3.62940
C         -0.73720        3.35820       -5.36080
C         -0.02350        2.98320       -6.50830
C          1.37110        3.19900       -6.56100
C          2.08020        3.70900       -5.44630
C          1.34430        4.04530       -4.29080
C         -0.01880        3.88450       -4.26880
C          2.11420        2.88850       -7.72060
C          3.46830        3.11920       -7.76700
C          4.18480        3.62070       -6.66310
C          3.48110        3.86380       -5.47620
C          4.17940        4.14370       -4.20710
N          3.40090        4.56820       -3.14070
C          2.02230        4.59950       -3.10450
C         -0.65790        2.23650       -7.61430
N          0.11520        2.00920       -8.74610
C          1.44460        2.33830       -8.91120
C          4.11800        4.99000       -1.94030
C          4.62190        6.42000       -2.08400
O          1.41990        5.02710       -2.14240
O          5.37220        3.97700       -4.05370
C         -0.55050        1.35610       -9.87060
C         -1.28250        2.37260      -10.73670
O          2.01870        2.15190       -9.96380
O         -1.78510        1.79030       -7.56660
C          5.59340        3.88190       -6.85490
C          6.46590        3.13050       -7.61000
C          7.75260        3.66730       -7.67530
C          7.87330        4.86220       -6.99800
S          6.37560        5.30210       -6.24580
C          9.03410        5.68240       -6.87190
C         10.27330        5.49040       -7.43530
C         11.19520        6.49380       -7.09300
C         10.66140        7.44190       -6.27610
S          9.01640        7.12870       -5.90450
H          6.29570       -7.85660        3.75430
H          4.33730       -8.54650        2.35400
H          2.14430       -4.99370        8.12580
H         -0.33450       -8.31990        1.50570
H         -1.46410       -7.71990        2.75850
H         -1.80390      -10.15490        2.33830
H         -0.11320      -10.46590        2.74780
H         -1.23380       -9.86950        3.98660
H          7.88680       -6.17440        7.91230
H          6.77270       -5.40790        9.08520
H          8.43810       -3.76120        8.22630
H          6.80120       -3.31830        7.72930
H          7.90730       -4.07950        6.57150
H         -0.00020       -5.52230        9.01610
H         -2.21770       -4.20430        9.17280
H         -4.02710       -2.54520        8.63720
H         -5.79260       -1.09790        7.40980
H         -5.31420        0.72260        5.51020
H         -7.45060       -1.17520       -1.00700
H         -6.76580        5.14710        1.95530
H         -6.20830        4.98580        3.64850
H         -4.42280        4.87930        1.16330
H         -4.54900        6.24660        2.27550
H         -3.86680        4.71680        2.83840
H         -7.82790       -5.36680        3.05720
H         -8.16220       -5.23830        1.30350
H         -5.73360       -5.56950        0.83450
H         -5.41570       -5.70960        2.57330
H         -6.38860       -6.93270        1.74900
H         -8.38750        0.99230       -2.51190
H         -7.14360        2.02720       -4.54120
H         -5.40590        3.36710       -5.95300
H         -3.10500        3.85640       -7.01870
H         -0.54940        4.17840       -3.37430
H          3.98560        2.91640       -8.69300
H          4.95650        4.30560       -1.79740
H          3.42090        4.91080       -1.10500
H          5.13810        6.71760       -1.17580
H          5.31430        6.49310       -2.91970
H          3.78810        7.09810       -2.25090
H          0.22090        0.84830      -10.45110
H         -1.25380        0.62920       -9.46030
H         -2.04820        2.88050      -10.15490
H         -0.58250        3.10810      -11.12630
H         -1.75810        1.86590      -11.57150
H          6.19040        2.19500       -8.06380
H          8.56690        3.19970       -8.19730
H         10.50930        4.65790       -8.07220
H         12.21330        6.51110       -7.43840
H         11.13730        8.31050       -5.86640
