144
N65-2FIC.mol
O         -1.84920       -9.95540        0.28360
C         -1.75880      -10.53100        1.34820
C         -2.15190      -11.93770        1.58850
C         -1.88810      -12.28370        2.92240
C         -2.19130      -13.55860        3.37530
C         -2.74990      -14.45390        2.47540
F         -3.05360      -15.68760        2.89480
C         -3.00350      -14.10090        1.14970
F         -3.54240      -14.99890        0.31570
C         -2.70430      -12.82890        0.69020
C         -1.30010      -11.12630        3.59750
C         -1.26800      -10.02830        2.64640
C         -0.89660       -8.74950        2.98440
C         -0.79280       -7.57060        2.23200
C         -0.96380       -7.28930        0.88130
C         -0.74300       -5.95350        0.59920
S         -0.81400       -5.01330       -0.86520
C         -0.39260       -5.16760        1.72150
S         -0.33840       -6.12050        3.14700
C         -0.19760       -3.83260        1.39360
C         -0.38660       -3.59750        0.03590
C         -0.17960       -2.21780       -0.25890
C         -0.29140       -1.49230       -1.46990
C         -0.60810       -2.10080       -2.69610
C         -0.67910       -1.34840       -3.83760
C         -0.06360       -0.09200       -1.42080
C         -0.23640        0.67590       -2.59520
C         -0.25800        2.19050       -2.50510
C         -1.70360        2.56660       -2.14950
C         -2.00230        3.43180       -1.10570
C         -3.31400        3.75340       -0.80600
C         -4.36720        3.22740       -1.53940
C         -5.79080        3.53580       -1.17760
C         -6.31580        2.51420       -0.16650
C         -4.06620        2.37080       -2.59020
C         -2.75780        2.04540       -2.89060
C          0.20150        2.86870       -3.78380
C          1.43730        2.51660       -4.31630
C          1.94570        3.18400       -5.41270
C          1.23900        4.22470       -6.00270
C          1.78620        4.94480       -7.20010
C          1.36160        4.24560       -8.49280
C         -0.00030        4.56040       -5.47910
C         -0.51400        3.89670       -4.37990
C         -0.50620        0.03780       -3.78470
C          0.38970        0.50350       -0.20120
C          0.49270       -0.24090        0.96520
C          0.18600       -1.58760        0.93880
C          0.19510       -2.56470        2.09800
C         -0.82800       -2.09010        3.11570
C         -0.45840       -1.17350        4.09190
C         -1.38990       -0.69930        4.99520
C         -2.71260       -1.12040        4.94530
C         -3.71070       -0.64040        5.95860
C         -3.71160       -1.55850        7.18260
C         -3.07710       -2.03140        3.96350
C         -2.14990       -2.50680        3.05440
C          1.55690       -2.78360        2.73240
C          1.63380       -3.48680        3.92890
C          2.85850       -3.74990        4.50950
C          4.03730       -3.32070        3.91140
C          3.95370       -2.62500        2.71350
C          2.72970       -2.36470        2.12260
C          5.36250       -3.56280        4.57350
C          5.67070       -2.44600        5.57310
C          0.84830        1.85100       -0.28420
S          1.84990        2.61150        0.93510
C          0.65480        2.63810       -1.40030
C          1.32990        3.86010       -1.29810
C          2.03440        4.00260       -0.08610
C          2.72450        5.19310        0.01120
C          2.57760        5.98250       -1.13540
C          3.22150        7.21970       -1.26310
C          3.26490        8.09880       -2.31850
C          3.99530        9.35090       -2.34190
C          3.85180        9.91690       -3.68500
C          4.36130       11.07370       -4.25390
C          4.04620       11.34250       -5.57800
C          3.24170       10.48590       -6.32960
F          2.96430       10.78390       -7.60480
C          2.72760        9.32840       -5.76800
F          4.53000       12.45290       -6.14530
C          3.04230        9.06200       -4.45060
C          2.62730        7.90810       -3.62520
O          1.90110        7.00060       -3.98460
C          4.68860        9.93600       -1.31460
C          5.36950       11.16790       -1.42080
N          5.94380       12.16130       -1.43790
C          4.82420        9.42120       -0.00770
N          4.98500        9.08140        1.07770
S          1.53910        5.21590       -2.33500
C         -0.83430      -11.13380        4.88690
C         -0.19920      -10.06740        5.55950
N          0.34070       -9.27040        6.18620
C         -0.90250      -12.25380        5.74380
N         -0.93090      -13.12000        6.49620
H         -2.01800      -13.88350        4.38770
H         -2.89840      -12.54860       -0.33280
H         -0.64670       -8.59720        4.02770
H         -1.23920       -8.03690        0.16080
H         -0.77910       -3.16600       -2.72740
H         -0.88920       -1.81840       -4.78650
H         -1.21470        3.87520       -0.51580
H         -3.51790        4.42970        0.01190
H         -5.85490        4.53590       -0.74460
H         -6.41510        3.50930       -2.07280
H         -6.27270        1.51110       -0.58500
H         -7.34660        2.73680        0.09850
H         -5.71190        2.53230        0.73810
H         -4.86650        1.95290       -3.18420
H         -2.55910        1.37950       -3.71610
H          2.00660        1.71970       -3.85670
H          2.91270        2.90410       -5.80640
H          2.87630        4.97510       -7.14650
H          1.41540        5.97110       -7.20660
H          1.72730        3.22120       -8.50700
H          1.76140        4.76870       -9.35840
H          0.27690        4.22250       -8.57130
H         -0.56620        5.36640       -5.92230
H         -1.47090        4.19390       -3.97780
H         -0.58590        0.61490       -4.69450
H          0.82670        0.23440        1.87540
H          0.56700       -0.83920        4.15380
H         -1.08480        0.01120        5.75010
H         -4.70940       -0.62740        5.51750
H         -3.46120        0.37560        6.27110
H         -3.97200       -2.57430        6.89370
H         -4.43290       -1.21050        7.91810
H         -2.72640       -1.57630        7.64290
H         -4.10110       -2.37150        3.90450
H         -2.46300       -3.20770        2.29410
H          0.72700       -3.82310        4.41070
H          2.89960       -4.30020        5.43810
H          4.85820       -2.28510        2.22950
H          2.69310       -1.83100        1.18410
H          6.15240       -3.60070        3.82080
H          5.34330       -4.51960        5.09890
H          6.63070       -2.62010        6.05320
H          5.70460       -1.48360        5.06700
H          4.90130       -2.40230        6.34060
H          3.32180        5.49390        0.85300
H          3.78760        7.49470       -0.38120
H          4.98800       11.76850       -3.71960
H          2.10530        8.66220       -6.34340
