88
NAI-FN-NAI_BO_.sdf
C         -4.92760       -0.32130        4.96830
C         -4.02950       -1.35480        5.05720
C         -2.91760       -1.20800        4.21790
C         -2.92730       -0.04130        3.49450
S         -4.35640        0.88280        3.85390
C         -1.96300        0.43470        2.52880
C         -1.97960        1.76650        2.10440
C         -1.08420        2.25060        1.16340
C         -0.15230        1.38240        0.62730
C         -0.12640        0.03810        1.04850
C         -1.00870       -0.44180        1.98580
C          0.94150       -0.69030        0.31110
O          1.25130       -1.85300        0.41400
C          1.53470        0.33790       -0.58600
C          0.88110        1.56950       -0.38210
C          1.26680        2.67750       -1.11190
C          2.28680        2.54570       -2.04160
C          2.93460        1.32510       -2.26130
C          2.54480        0.20580       -1.50680
C          3.97780        1.20280       -3.25340
C          4.52970        2.16880       -4.06000
C          5.52270        1.68240       -4.91830
C          5.73430        0.33040       -4.80710
S          4.70160       -0.34410       -3.58550
C          6.74110       -0.44400       -5.50880
C          7.98450        0.13980       -5.69490
C          9.02480       -0.54120       -6.31500
C          8.84510       -1.83590       -6.75850
C          7.58900       -2.45730       -6.61150
C          6.51080       -1.76410       -5.99880
C          7.39950       -3.77240       -7.08480
C          6.16670       -4.38030       -6.97640
C          5.09260       -3.68460       -6.42110
C          5.25760       -2.40740       -5.94870
C          9.96950       -2.54810       -7.38510
N          9.71660       -3.83730       -7.82220
C          8.51290       -4.51080       -7.70680
C         10.82750       -4.56410       -8.42910
C         11.60810       -5.34470       -7.37970
O         11.06610       -2.04500       -7.52660
O          8.39660       -5.65060       -8.10960
C         -6.14410       -0.16590        5.74480
C         -6.10040       -0.50860        7.08680
C         -7.20760       -0.35910        7.91340
C         -8.38960        0.14820        7.41240
C         -8.48360        0.48400        6.04710
C         -7.36520        0.31710        5.18740
C         -9.70010        0.97460        5.52880
C         -9.81610        1.27040        4.18720
C         -8.73380        1.06440        3.33130
C         -7.53960        0.59580        3.81670
C         -9.54180        0.32060        8.31050
N        -10.69480        0.83730        7.74380
C        -10.86550        1.16600        6.41030
C        -11.84730        1.00540        8.62370
C        -12.68430       -0.26600        8.67780
O         -9.50170        0.03460        9.49040
O        -11.92720        1.59450        6.00510
H         -4.18920       -2.21400        5.68400
H         -2.12630       -1.93320        4.16470
H         -2.71550        2.43600        2.52710
H         -1.12440        3.28510        0.85790
H         -0.97400       -1.48000        2.27570
H          0.78440        3.63280       -0.97030
H          2.58070        3.41070       -2.61520
H          3.02860       -0.74950       -1.64960
H          4.23920        3.20330       -4.03780
H          6.04570        2.29960       -5.62710
H          8.15770        1.13720       -5.31980
H          9.99130       -0.07760       -6.44180
H          6.04980       -5.38860       -7.34390
H          4.12300       -4.15590       -6.36940
H          4.40620       -1.88280       -5.54570
H         11.47170       -3.82790       -8.91290
H         10.40600       -5.24360       -9.17190
H         10.95890       -6.06730       -6.89070
H         12.42860       -5.87590       -7.85370
H         12.01470       -4.66630       -6.63300
H         -5.17460       -0.87310        7.50580
H         -7.15590       -0.61960        8.95970
H        -10.75860        1.64420        3.81660
H         -8.84250        1.26980        2.27720
H         -6.72520        0.42320        3.13120
H        -11.46640        1.25120        9.61650
H        -12.43870        1.83380        8.23000
H        -13.53590       -0.11610        9.33530
H        -13.04870       -0.51780        7.68440
H        -12.08770       -1.09120        9.05970
