NBDTP.sdf
  xtb     12202113223D
 energy: -154.598327032531 gnorm: 0.000493643193 xtb: 6.4.1 (unknown)
 88 96  0     0  0            999 V2000
    2.8991   -5.7711   -2.6836 C   0  0  0  0  0  0  0  0  0  0  0  0
    2.1562   -6.9171   -2.5945 C   0  0  0  0  0  0  0  0  0  0  0  0
    0.8613   -7.0624   -1.8957 C   0  0  0  0  0  0  0  0  0  0  0  0
    0.4866   -8.4548   -2.1082 C   0  0  0  0  0  0  0  0  0  0  0  0
    1.4462   -9.1226   -2.8575 C   0  0  0  0  0  0  0  0  0  0  0  0
    2.5173   -8.1984   -3.1799 C   0  0  0  0  0  0  0  0  0  0  0  0
    0.2495   -6.2103   -1.2788 O   0  0  0  0  0  0  0  0  0  0  0  0
    3.6357   -8.5301   -3.8994 C   0  0  0  0  0  0  0  0  0  0  0  0
    3.8342   -9.8360   -4.3956 C   0  0  0  0  0  0  0  0  0  0  0  0
    4.6986   -7.6670   -4.2290 C   0  0  0  0  0  0  0  0  0  0  0  0
    4.0171  -10.8908   -4.8089 N   0  0  0  0  0  0  0  0  0  0  0  0
    5.5999   -7.0225   -4.5331 N   0  0  0  0  0  0  0  0  0  0  0  0
   -0.8233   -9.4629   -1.6768 S   0  0  0  0  0  0  0  0  0  0  0  0
   -0.0825  -10.7817   -2.5049 C   0  0  0  0  0  0  0  0  0  0  0  0
    1.1121  -10.4715   -3.0854 C   0  0  0  0  0  0  0  0  0  0  0  0
   -2.2375    5.7178    1.1302 C   0  0  0  0  0  0  0  0  0  0  0  0
   -3.2623    6.4393    1.6802 C   0  0  0  0  0  0  0  0  0  0  0  0
   -4.4155    5.9596    2.4920 C   0  0  0  0  0  0  0  0  0  0  0  0
   -5.2306    7.1522    2.6956 C   0  0  0  0  0  0  0  0  0  0  0  0
   -4.6517    8.2713    2.1159 C   0  0  0  0  0  0  0  0  0  0  0  0
   -3.4055    7.8784    1.4882 C   0  0  0  0  0  0  0  0  0  0  0  0
   -4.6484    4.8417    2.9058 O   0  0  0  0  0  0  0  0  0  0  0  0
   -2.5534    8.7550    0.8688 C   0  0  0  0  0  0  0  0  0  0  0  0
   -1.3085    8.4571    0.2790 C   0  0  0  0  0  0  0  0  0  0  0  0
   -2.8537   10.1311    0.7748 C   0  0  0  0  0  0  0  0  0  0  0  0
   -3.0740   11.2534    0.6814 N   0  0  0  0  0  0  0  0  0  0  0  0
   -0.2809    8.3094   -0.2130 N   0  0  0  0  0  0  0  0  0  0  0  0
   -6.7096    7.5093    3.4733 S   0  0  0  0  0  0  0  0  0  0  0  0
   -6.5499    9.1646    3.0174 C   0  0  0  0  0  0  0  0  0  0  0  0
   -5.4192    9.4372    2.3057 C   0  0  0  0  0  0  0  0  0  0  0  0
    2.6583   -4.4825   -2.1802 C   0  0  0  0  0  0  0  0  0  0  0  0
    1.2736   -3.9550   -1.2565 S   0  0  0  0  0  0  0  0  0  0  0  0
    1.9186   -2.3636   -1.1692 C   0  0  0  0  0  0  0  0  0  0  0  0
    3.1421   -2.2332   -1.8177 C   0  0  0  0  0  0  0  0  0  0  0  0
    3.5516   -3.4273   -2.3862 C   0  0  0  0  0  0  0  0  0  0  0  0
    1.2747   -1.2359   -0.5747 C   0  0  0  0  0  0  0  0  0  0  0  0
    1.8376    0.0277   -0.8689 C   0  0  0  0  0  0  0  0  0  0  0  0
    2.9397    0.1736   -1.6343 O   0  0  0  0  0  0  0  0  0  0  0  0
    3.8714   -0.9169   -1.7549 C   0  0  0  0  0  0  0  0  0  0  0  0
    4.7579   -0.8968   -0.4871 C   0  0  0  0  0  0  0  0  0  0  0  0
    4.6464   -0.6500   -3.0546 C   0  0  0  0  0  0  0  0  0  0  0  0
    5.3754    0.6884   -3.0649 C   0  0  0  0  0  0  0  0  0  0  0  0
    5.8823   -1.9221   -0.4841 C   0  0  0  0  0  0  0  0  0  0  0  0
    0.1215   -1.3282    0.2004 C   0  0  0  0  0  0  0  0  0  0  0  0
   -0.5014   -0.1887    0.6787 C   0  0  0  0  0  0  0  0  0  0  0  0
    0.0265    1.0770    0.3314 C   0  0  0  0  0  0  0  0  0  0  0  0
    1.1911    1.1688   -0.4283 C   0  0  0  0  0  0  0  0  0  0  0  0
   -1.6342   -0.3414    1.3931 O   0  0  0  0  0  0  0  0  0  0  0  0
   -2.1143    0.7308    2.2244 C   0  0  0  0  0  0  0  0  0  0  0  0
   -1.8246    2.0700    1.6076 C   0  0  0  0  0  0  0  0  0  0  0  0
   -0.7385    2.2060    0.7546 C   0  0  0  0  0  0  0  0  0  0  0  0
   -1.3615    0.6136    3.5731 C   0  0  0  0  0  0  0  0  0  0  0  0
   -3.6196    0.4770    2.3820 C   0  0  0  0  0  0  0  0  0  0  0  0
   -4.3563    0.5462    1.0494 C   0  0  0  0  0  0  0  0  0  0  0  0
   -1.7342    1.6597    4.6137 C   0  0  0  0  0  0  0  0  0  0  0  0
   -2.4844    3.2699    1.8439 C   0  0  0  0  0  0  0  0  0  0  0  0
   -1.9169    4.3481    1.1801 C   0  0  0  0  0  0  0  0  0  0  0  0
   -0.5226    3.8322    0.2410 S   0  0  0  0  0  0  0  0  0  0  0  0
    3.8302   -5.8417   -3.2338 H   0  0  0  0  0  0  0  0  0  0  0  0
   -0.5815  -11.7309   -2.5165 H   0  0  0  0  0  0  0  0  0  0  0  0
    1.7064  -11.1737   -3.6397 H   0  0  0  0  0  0  0  0  0  0  0  0
   -1.5389    6.2881    0.5290 H   0  0  0  0  0  0  0  0  0  0  0  0
   -7.3160    9.8568    3.3076 H   0  0  0  0  0  0  0  0  0  0  0  0
   -5.1638   10.4157    1.9445 H   0  0  0  0  0  0  0  0  0  0  0  0
    4.4620   -3.5654   -2.9415 H   0  0  0  0  0  0  0  0  0  0  0  0
    5.1667    0.1089   -0.3819 H   0  0  0  0  0  0  0  0  0  0  0  0
    4.1018   -1.0762    0.3700 H   0  0  0  0  0  0  0  0  0  0  0  0
    3.9207   -0.6677   -3.8707 H   0  0  0  0  0  0  0  0  0  0  0  0
    5.3565   -1.4595   -3.2170 H   0  0  0  0  0  0  0  0  0  0  0  0
    5.7745    0.8789   -4.0581 H   0  0  0  0  0  0  0  0  0  0  0  0
    6.2030    0.6924   -2.3607 H   0  0  0  0  0  0  0  0  0  0  0  0
    4.6895    1.4899   -2.8067 H   0  0  0  0  0  0  0  0  0  0  0  0
    6.4082   -1.8817    0.4668 H   0  0  0  0  0  0  0  0  0  0  0  0
    5.4907   -2.9285   -0.6130 H   0  0  0  0  0  0  0  0  0  0  0  0
    6.5993   -1.7228   -1.2755 H   0  0  0  0  0  0  0  0  0  0  0  0
   -0.2979   -2.2968    0.4224 H   0  0  0  0  0  0  0  0  0  0  0  0
    1.5879    2.1389   -0.6842 H   0  0  0  0  0  0  0  0  0  0  0  0
   -1.5520   -0.3868    3.9671 H   0  0  0  0  0  0  0  0  0  0  0  0
   -0.2913    0.6858    3.3557 H   0  0  0  0  0  0  0  0  0  0  0  0
   -4.0357    1.2095    3.0713 H   0  0  0  0  0  0  0  0  0  0  0  0
   -3.7428   -0.5175    2.8132 H   0  0  0  0  0  0  0  0  0  0  0  0
   -5.4069    0.3088    1.1938 H   0  0  0  0  0  0  0  0  0  0  0  0
   -3.9319   -0.1677    0.3479 H   0  0  0  0  0  0  0  0  0  0  0  0
   -4.2855    1.5428    0.6193 H   0  0  0  0  0  0  0  0  0  0  0  0
   -2.7745    1.5664    4.9117 H   0  0  0  0  0  0  0  0  0  0  0  0
   -1.5713    2.6652    4.2332 H   0  0  0  0  0  0  0  0  0  0  0  0
   -1.1156    1.5262    5.4979 H   0  0  0  0  0  0  0  0  0  0  0  0
   -3.3506    3.3809    2.4683 H   0  0  0  0  0  0  0  0  0  0  0  0
  1  2  2  0  0  0  0
  2  3  1  0  0  0  0
  3  4  1  0  0  0  0
  4  5  2  0  0  0  0
  5  6  1  0  0  0  0
  6  2  1  0  0  0  0
  3  7  2  0  0  0  0
  6  8  2  0  0  0  0
  8  9  1  0  0  0  0
  8 10  1  0  0  0  0
  9 11  3  0  0  0  0
 10 12  3  0  0  0  0
  4 13  1  0  0  0  0
 13 14  1  0  0  0  0
 14 15  2  0  0  0  0
 15  5  1  0  0  0  0
 16 17  2  0  0  0  0
 17 18  1  0  0  0  0
 18 19  1  0  0  0  0
 19 20  2  0  0  0  0
 20 21  1  0  0  0  0
 21 17  1  0  0  0  0
 18 22  2  0  0  0  0
 21 23  2  0  0  0  0
 23 24  1  0  0  0  0
 23 25  1  0  0  0  0
 25 26  3  0  0  0  0
 24 27  3  0  0  0  0
 19 28  1  0  0  0  0
 28 29  1  0  0  0  0
 29 30  2  0  0  0  0
 30 20  1  0  0  0  0
  1 31  1  0  0  0  0
 31 32  1  0  0  0  0
 32 33  1  0  0  0  0
 33 34  2  0  0  0  0
 34 35  1  0  0  0  0
 35 31  2  0  0  0  0
 33 36  1  0  0  0  0
 36 37  2  0  0  0  0
 37 38  1  0  0  0  0
 38 39  1  0  0  0  0
 39 34  1  0  0  0  0
 39 40  1  0  0  0  0
 39 41  1  0  0  0  0
 41 42  1  0  0  0  0
 40 43  1  0  0  0  0
 36 44  1  0  0  0  0
 44 45  2  0  0  0  0
 45 46  1  0  0  0  0
 46 47  2  0  0  0  0
 47 37  1  0  0  0  0
 45 48  1  0  0  0  0
 48 49  1  0  0  0  0
 49 50  1  0  0  0  0
 50 51  2  0  0  0  0
 51 46  1  0  0  0  0
 49 52  1  0  0  0  0
 49 53  1  0  0  0  0
 53 54  1  0  0  0  0
 52 55  1  0  0  0  0
 50 56  1  0  0  0  0
 56 57  2  0  0  0  0
 57 58  1  0  0  0  0
 58 51  1  0  0  0  0
 57 16  1  0  0  0  0
  1 59  1  0  0  0  0
 14 60  1  0  0  0  0
 15 61  1  0  0  0  0
 16 62  1  0  0  0  0
 29 63  1  0  0  0  0
 30 64  1  0  0  0  0
 35 65  1  0  0  0  0
 40 66  1  0  0  0  0
 40 67  1  0  0  0  0
 41 68  1  0  0  0  0
 41 69  1  0  0  0  0
 42 70  1  0  0  0  0
 42 71  1  0  0  0  0
 42 72  1  0  0  0  0
 43 73  1  0  0  0  0
 43 74  1  0  0  0  0
 43 75  1  0  0  0  0
 44 76  1  0  0  0  0
 47 77  1  0  0  0  0
 52 78  1  0  0  0  0
 52 79  1  0  0  0  0
 53 80  1  0  0  0  0
 53 81  1  0  0  0  0
 54 82  1  0  0  0  0
 54 83  1  0  0  0  0
 54 84  1  0  0  0  0
 55 85  1  0  0  0  0
 55 86  1  0  0  0  0
 55 87  1  0  0  0  0
 56 88  1  0  0  0  0
M  END
