132
NDICz-6.sdf
C          3.55250       -3.65650       -4.73020
C          2.40950       -4.45810       -4.26630
C          2.41010       -5.84840       -4.35390
C          1.42340       -6.58700       -3.72970
C          0.42460       -5.93710       -3.02410
C          0.36490       -4.55240       -2.99530
C          1.35330       -3.81880       -3.61500
C         -3.53320       -8.78680       -2.89400
C         -4.47350       -9.51640       -2.16610
C         -4.40150       -9.57250       -0.78780
C         -3.37440       -8.89190       -0.10460
C         -2.41840       -8.15440       -0.84110
C         -2.51530       -8.11280       -2.24700
C         -3.28420       -8.93590        1.30030
C         -2.26900       -8.26230        1.95120
C         -1.32480       -7.53620        1.22620
C         -1.39020       -7.47820       -0.15300
C         -5.40220      -10.35030       -0.02580
N         -5.26980      -10.34280        1.35330
C         -4.27760       -9.70710        2.07900
C         -0.38040       -6.71500       -0.91050
N         -0.54320       -6.69710       -2.28570
C         -1.53010       -7.34040       -3.02790
O          0.54960       -6.14040       -0.38230
O         -1.55590       -7.24680       -4.23240
O         -6.29750      -10.96140       -0.56610
C         -6.24820      -11.12140        2.11080
C         -5.78950      -12.56440        2.27390
O         -4.23660       -9.78090        3.28790
C         -3.21170       10.39400        1.41900
C         -3.58590       11.73540        1.49820
C         -2.93900       12.59290        2.36690
C         -1.89380       12.11720        3.18280
C         -1.51470       10.75700        3.10440
C         -2.18980        9.90360        2.20880
C         -1.21820       12.97420        4.07360
C         -0.19380       12.48630        4.86180
C          0.18100       11.14480        4.78470
C         -0.46730       10.28410        3.92010
C         -3.34120       14.01290        2.44120
N         -2.62830       14.80980        3.32140
C         -1.60690       14.39720        4.16110
C         -0.05480        8.86790        3.84130
N         -0.75650        8.08160        2.93630
C         -1.80210        8.48180        2.11410
O          0.84310        8.40440        4.50750
O         -2.35440        7.69570        1.37730
O         -4.24090       14.47020        1.77010
C         -3.02460       16.21400        3.40670
C         -4.11130       16.41250        4.45500
O         -1.06590       15.17400        4.91790
C          0.39940        4.05380        2.61480
C          0.58650        4.92860        1.54200
C          0.21270        6.25130        1.65250
C         -0.35610        6.70710        2.83260
C         -0.54490        5.85070        3.90710
C         -0.16510        4.52860        3.80040
C          4.18440       -3.92620       -5.91930
C          4.03010       -2.64030       -3.82020
C          3.68690       -4.84910       -6.86330
C          5.41790       -3.34460       -6.28720
C          4.56430       -1.42450       -4.26270
C          3.83650       -2.92070       -2.40530
C          5.40760       -0.64830       -3.41200
C          5.95020        0.52150       -3.82690
C          5.65530        1.05240       -5.11700
C          4.78170        0.30190       -5.95730
C          4.27240       -0.88580       -5.55210
C          6.18720        2.27040       -5.53460
C          7.01960        3.04450       -4.71150
C          5.91220        2.81550       -6.79840
C          3.99900       -4.23300       -1.91490
C          3.62250       -4.59280       -0.64440
C          3.06080       -3.61560        0.17260
C          2.96020       -2.27210       -0.27550
C          3.34940       -1.92570       -1.55380
N          2.54380       -3.71730        1.42960
C          2.13190       -2.47140        1.84130
C          2.36750       -1.53370        0.80550
C          1.56450       -2.07300        3.04570
C          1.23030       -0.74470        3.19970
C          1.45260        0.19220        2.17680
C          2.02890       -0.20310        0.97080
C          2.42930       -4.93840        2.18270
C          3.69940       -5.23020        2.97960
C          1.08570        1.54060        2.36060
C          0.77390        2.70060        2.48940
N          3.29680       -5.57140       -7.66470
N          6.44270       -2.93420       -6.59940
N          5.68500        3.27410       -7.82730
N          7.69270        3.68110       -4.03120
H          3.21220       -6.36050       -4.86390
H          1.44210       -7.66510       -3.77020
H         -0.43610       -4.05690       -2.46860
H          1.31600       -2.74020       -3.58500
H         -3.58430       -8.73660       -3.97130
H         -5.27010      -10.04670       -2.66570
H         -2.22270       -8.31140        3.02870
H         -0.52880       -7.00890        1.73020
H         -7.19080      -11.08240        1.56260
H         -6.35950      -10.64440        3.08570
H         -5.67010      -13.03370        1.30020
H         -6.53110      -13.12010        2.84010
H         -4.84280      -12.60120        2.80790
H         -3.71150        9.71830        0.74120
H         -4.38290       12.12500        0.88290
H          0.30990       13.16370        5.53480
H          0.98240       10.75800        5.39610
H         -3.38820       16.51000        2.42140
H         -2.13440       16.78820        3.66810
H         -3.75060       16.10430        5.43360
H         -4.38760       17.46190        4.49930
H         -4.99270       15.82950        4.19800
H          1.02680        4.56180        0.62700
H          0.35370        6.93130        0.82600
H         -0.98430        6.22290        4.82000
H         -0.30670        3.85260        4.63030
H          5.66480       -1.04880       -2.44270
H          6.62970        1.06860       -3.18910
H          4.52220        0.70870       -6.92390
H          3.57830       -1.40830       -6.19460
H          4.44810       -4.97420       -2.55910
H          3.74730       -5.60810       -0.30460
H          3.21110       -0.91710       -1.91420
H          1.39040       -2.77450        3.84760
H          0.78770       -0.40500        4.12420
H          2.20310        0.52040        0.18890
H          1.57680       -4.84300        2.85990
H          2.21730       -5.74780        1.47950
H          3.89960       -4.42370        3.68160
H          4.55320       -5.32440        2.31280
H          3.58740       -6.15690        3.53580
