99
NFTI.sdf
C         -7.63940        2.85640       -7.23750
O         -7.91320        2.19250       -8.21580
C         -8.38050        4.03140       -6.71070
C         -9.53110        4.63410       -7.17990
C        -10.02690        5.73130       -6.48540
C         -9.38470        6.20950       -5.35250
C         -8.22630        5.60560       -4.87820
C         -7.73240        4.51460       -5.56650
C         -6.53570        3.68370       -5.28400
O         -5.74700        3.84210       -4.36660
C         -6.50500        2.66060       -6.31960
C         -5.61520        1.63280       -6.48080
C         -4.51520        1.27240       -5.69900
C         -3.69580        0.16260       -5.94960
C         -2.68270       -0.00120       -4.97830
C         -2.67420        0.96720       -3.99330
S         -3.96380        2.10270       -4.25730
C         -1.77870        1.10250       -2.87240
C         -1.64590        2.33760       -2.22520
C         -0.80260        2.48820       -1.14450
C         -0.07670        1.39090       -0.70080
C         -0.19360        0.14700       -1.34770
C         -1.04480       -0.00200       -2.41520
C          0.67770       -0.88820       -0.67500
C          1.89250       -1.27150       -1.55370
C          1.56390       -1.92090       -2.89150
C         -0.11780       -2.12590       -0.23660
C         -1.23570       -1.77980        0.74030
C          1.21540       -0.10460        0.50250
C          0.80740        1.23910        0.43420
C          1.23380        2.15040        1.38980
C          2.04900        1.71300        2.41400
C          2.43810        0.37050        2.50830
C          2.01580       -0.54020        1.52730
C          3.24400       -0.09750        3.60690
C          4.00930        0.61980        4.50600
C          4.66830       -0.17230        5.47410
C          4.39050       -1.54020        5.34110
S          3.32560       -1.79600        3.97470
C          4.87780       -2.53330        6.19350
C          4.64650       -3.88300        6.18750
C          3.83440       -4.66460        5.26600
O          3.22100       -4.26830        4.28810
C          3.89920       -6.06540        5.75170
C          3.29260       -7.19890        5.24650
C          3.51000       -8.40520        5.90140
C          4.31380       -8.47020        7.03010
C          4.92610       -7.33090        7.53940
C          4.71170       -6.13060        6.89090
C          5.22320       -4.77240        7.20940
O          5.95830       -4.45920        8.12260
S          4.39530        2.30350        4.70490
C          5.42790        1.92870        6.06930
C          5.46460        0.60270        6.35390
C          6.10840        3.03920        6.78940
C          5.11450        3.83680        7.63720
C         -3.63790       -0.82950       -6.96050
C         -2.62030       -1.70850       -6.78080
S         -1.67970       -1.37500       -5.34120
C         -2.26640       -2.88520       -7.62040
C         -2.61790       -4.19570       -6.91260
H        -10.02530        4.25560       -8.06160
H        -10.92610        6.21930       -6.83200
H         -9.79220        7.06340       -4.83140
H         -7.72090        5.97040       -3.99700
H         -5.80470        0.99250       -7.33760
H         -2.22020        3.17800       -2.58620
H         -0.71680        3.44250       -0.64730
H         -1.18690       -0.96390       -2.88110
H          2.47170       -0.36270       -1.73830
H          2.51990       -1.94950       -0.97090
H          2.48990       -2.17820       -3.40140
H          1.00550       -1.24180       -3.52970
H          0.98870       -2.83320       -2.75960
H          0.56610       -2.83620        0.23190
H         -0.54980       -2.60250       -1.11730
H         -1.78580       -2.67740        1.01280
H         -1.93050       -1.07170        0.29340
H         -0.83080       -1.33710        1.64750
H          0.92910        3.18480        1.34090
H          2.37160        2.41160        3.17050
H          2.32540       -1.57250        1.59710
H          5.52460       -2.18280        6.99270
H          2.66740       -7.13910        4.36860
H          3.04560       -9.30590        5.52730
H          4.46500       -9.42070        7.52040
H          5.55240       -7.37320        8.41740
H          6.04720        0.19080        7.15810
H          6.88720        2.62130        7.43030
H          6.57930        3.70920        6.06580
H          4.64530        3.19200        8.37670
H          5.62590        4.64470        8.15380
H          4.33780        4.26330        7.00660
H         -4.31730       -0.88080       -7.79220
H         -1.19450       -2.87140       -7.83440
H         -2.80720       -2.81970       -8.56660
H         -3.68420       -4.23800       -6.70280
H         -2.35240       -5.04320       -7.53900
H         -2.07590       -4.27410       -5.97280
