170
NIDT.sdf
C          0.02760       -3.07510       -0.08140
C          1.10560       -3.20420       -0.98770
C          2.39040       -2.89860       -0.60260
C          2.56780       -2.40890        0.68880
C          1.48910       -2.29590        1.60040
C          0.21430       -2.65390        1.23250
C         -1.17270       -3.31890       -0.81900
C         -0.87970       -3.60580       -2.14160
C          0.61000       -3.62680       -2.36200
S         -2.86260       -3.16210       -0.48220
C         -3.20110       -3.42090       -2.17020
C         -2.03250       -3.65550       -2.92200
C          3.70280       -1.79410        1.30710
C          3.36580       -1.31440        2.55960
C          1.95750       -1.70330        2.91810
S          5.27740       -1.30240        0.76870
C          5.44330       -0.33390        2.21220
C          4.33600       -0.45540        3.07470
C          1.16390       -5.00870       -2.65810
C          0.92150       -2.64290       -3.47350
C          1.88260       -2.80850        3.95830
C          1.25770       -0.44080        3.37540
C         -4.94360       -3.37460       -5.41130
C         -6.23180       -2.94530       -5.54470
C          6.60040        2.42810        4.26950
C          6.18970        3.36470        5.17350
C         -6.83060       -2.67830       -6.84690
C         -8.09150       -2.09170       -6.60710
C         -8.39220       -1.98200       -5.24300
C         -7.23210       -2.55760       -4.50470
C          6.88340        4.61860        5.42850
C          6.03000        5.39180        6.24650
C          4.84230        4.72620        6.58320
C          4.91950        3.38620        5.93780
C         -6.43380       -2.81380       -8.16280
C         -7.27610       -2.35830       -9.18910
C         -8.50490       -1.76560       -8.94120
C         -8.93330       -1.62810       -7.60910
C        -10.13770       -1.01890       -7.21760
C        -10.44320       -0.91620       -5.86980
C         -9.58120       -1.39620       -4.86910
C         -9.37730       -1.24870      -10.00330
N        -10.60260       -0.72390       -9.58600
C        -11.01550       -0.48990       -8.27800
C        -11.49280       -0.24640      -10.63960
C        -12.50130       -1.30190      -11.12190
C        -13.45150       -1.73620      -10.00870
C        -11.80720       -2.51730      -11.73160
C          3.91030        5.38030        7.35790
C          4.17870        6.69580        7.77250
C          5.34990        7.35240        7.43020
C          6.31260        6.68980        6.64900
C          7.52850        7.25720        6.22650
C          8.38300        6.49800        5.44170
C          8.07680        5.18980        5.03470
C          7.82040        8.64090        6.62270
N          6.84830        9.26610        7.40570
C          5.63580        8.74110        7.83440
C          7.11520       10.64240        7.81070
C          7.55890       10.75180        9.27480
C          7.79920       12.22130        9.60820
C          8.81870        9.92860        9.52810
C          0.79410       -3.05270       -4.79560
C          1.00630       -2.16180       -5.82930
C          1.34620       -0.83960       -5.57250
C          1.45680       -0.43230       -4.25030
C          1.24250       -1.31930       -3.21060
C          0.43790       -6.15590       -2.37340
C          0.97620       -7.40570       -2.62090
C          2.25110       -7.54200       -3.15200
C          2.97860       -6.39000       -3.42340
C          2.44490       -5.13950       -3.18010
C          2.98900       -3.58040        4.28070
C          2.88460       -4.60140        5.20770
C          1.67600       -4.88110        5.83000
C          0.56900       -4.11150        5.49560
C          0.66850       -3.08850        4.57260
C          0.61980        0.40590        2.48200
C          0.13260        1.62970        2.90800
C          0.27870        2.03610        4.22660
C          0.90350        1.17550        5.12030
C          1.39200       -0.04470        4.70140
O         -9.06550       -1.25240      -11.17630
O        -12.03210        0.12800       -8.03860
O         -7.15620       -2.68540       -3.30050
O          4.09790        2.49410        6.03220
O          8.82890        9.22810        6.28970
O          4.86600        9.41040        8.49220
C          2.84950       -8.89990       -3.38110
C          1.53070        0.13620       -6.69860
C          3.60960       -9.36560       -2.13760
C          0.18700        0.75150       -7.09460
C          1.55980       -6.01790        6.80400
C          1.26070       -7.32510        6.06740
C         -0.14520        3.40330        4.67890
C          1.07380        4.32760        4.73020
C         -4.36550       -3.34990       -2.92450
C         -4.11870       -3.51520       -4.27510
S         -2.40210       -3.82720       -4.59100
C          6.35700        0.62000        2.62620
C          5.93560        1.28920        3.77380
S          4.41540        0.65130        4.38860
H          3.22410       -2.97150       -1.28360
H         -0.62450       -2.55610        1.90380
H         -4.42510       -3.57530       -6.34380
H          7.54870        2.62600        3.77910
H         -5.48440       -3.25620       -8.42510
H         -6.96130       -2.45750      -10.21780
H        -11.37420       -0.44260       -5.59450
H         -9.84900       -1.29250       -3.82860
H        -12.03270        0.61580      -10.24230
H        -10.86490        0.06360      -11.47750
H        -13.08830       -0.80900      -11.90530
H        -12.91920       -2.30250       -9.24650
H        -13.90960       -0.87380       -9.53190
H        -14.23670       -2.37040      -10.41450
H        -11.08980       -2.21400      -12.48940
H        -12.54180       -3.17680      -12.18840
H        -11.27530       -3.08090      -10.96710
H          2.98410        4.90400        7.64140
H          3.45530        7.22750        8.37320
H          9.31360        6.94800        5.12760
H          8.78130        4.65620        4.41430
H          7.89870       11.02470        7.15440
H          6.19580       11.21500        7.66600
H          6.74920       10.37390        9.90720
H          8.07890       12.33050       10.65300
H          6.90050       12.80710        9.43080
H          8.60200       12.62260        8.99320
H          9.16040       10.06820       10.55110
H          9.61300       10.23400        8.85040
H          8.63050        8.86720        9.37610
H          0.53290       -4.07800       -5.01470
H          0.90680       -2.49880       -6.85100
H          1.71340        0.59370       -4.02770
H          1.32810       -0.97600       -2.18990
H         -0.55680       -6.07790       -1.95920
H          0.39280       -8.28840       -2.40040
H          3.97420       -6.47320       -3.83560
H          3.02140       -4.25600       -3.41290
H          3.94230       -3.38270        3.81270
H          3.75920       -5.18680        5.45380
H         -0.38220       -4.31210        5.96790
H         -0.19970       -2.48960        4.33960
H          0.51390        0.11670        1.44580
H         -0.35470        2.28300        2.19780
H          1.03180        1.47280        6.15000
H          1.89240       -0.69200        5.40620
H          2.06040       -9.61880       -3.61040
H          3.53600       -8.86350       -4.22940
H          1.96140       -0.37320       -7.56300
H          2.21480        0.93040       -6.39340
H          4.04490      -10.34830       -2.30340
H          2.93880       -9.42170       -1.28320
H          4.40840       -8.66690       -1.89880
H         -0.25460        1.27190       -6.24760
H          0.31750        1.46040       -7.90880
H         -0.50430       -0.02440       -7.41610
H          2.49310       -6.12490        7.36080
H          0.75810       -5.81480        7.51670
H          1.17520       -8.14870        6.77250
H          2.05670       -7.55250        5.36160
H          0.32780       -7.24230        5.51410
H         -0.89020        3.81570        3.99580
H         -0.59000        3.34090        5.67440
H          1.49110        4.45690        3.73360
H          0.80060        5.30520        5.12150
H          1.84400        3.89450        5.36420
H         -5.34590       -3.16190       -2.52820
H          7.26040        0.87100        2.10010
