124
NITI-SSe.sdf
C         -2.25040       -4.80970        2.44680
C         -1.54040       -3.59900        2.12320
C         -0.40810       -3.62590        1.29140
C          0.20720       -2.44930        0.94790
C         -0.31480       -1.21220        1.39740
C         -1.42100       -1.18090        2.23840
C         -2.02220       -2.36900        2.59200
C          1.40710       -2.22510        0.04490
C          1.40520       -0.72360       -0.02960
C          0.45220       -0.17510        0.77560
C          2.72760       -2.65420        0.72690
C          1.23210       -2.88740       -1.32930
C          2.81970       -4.12470        1.11100
C          0.04070       -2.32390       -2.09530
C          2.13870        0.31370       -0.68950
C          1.58900        1.55040       -0.27030
C          0.42050        1.32390        0.67130
C         -0.93020        1.70100        0.01660
C          0.61850        2.02340        2.02340
C         -1.12140        3.17300       -0.32270
C          1.84290        1.50280        2.76780
C          3.19160        0.28530       -1.59660
C          3.69410        1.47760       -2.07140
C          3.18760        2.70740       -1.63250
C          2.12230        2.73160       -0.71630
C         -1.77090       -6.11530        2.53120
C         -2.81020       -7.02990        2.81080
C         -4.08180       -6.46440        2.94750
S         -3.96080       -4.73030        2.73720
C         -5.21480       -7.23070        3.19680
C         -6.53070       -6.86110        3.36040
C         -7.63620       -7.76010        3.59270
C         -8.84460       -6.93950        3.70920
C         -8.49050       -5.58820        3.55320
C         -7.03130       -5.48910        3.32870
C        -10.16800       -7.28350        3.93140
C        -11.10570       -6.26210        3.99220
C        -10.74410       -4.92490        3.83630
C         -9.42230       -4.57220        3.61340
O         -6.39450       -4.46410        3.15800
C         -7.59430       -9.12970        3.68520
C         -6.43180       -9.92040        3.57110
C         -8.72660       -9.93960        3.91010
N         -9.60970      -10.65120        4.08810
N         -5.52560      -10.62280        3.48760
C          3.71480        3.93790       -2.16490
C          3.74840        5.20220       -1.59240
C          4.21960        6.20660       -2.48580
C          4.61210        5.72300       -3.73510
S          4.36560        3.97660       -3.76890
C          5.21790        6.27850       -4.86120
C          5.31800        7.60430       -5.23960
C          6.15850        8.11300       -6.30300
C          5.86470        9.54090       -6.44930
C          4.89550        9.89720       -5.49610
C          4.50140        8.69570       -4.73380
C          6.36770       10.49870       -7.31380
C          5.88610       11.79560       -7.20020
C          4.92520       12.13940       -6.25130
C          4.41370       11.18550       -5.38510
O          3.58790        8.62930       -3.91590
C          7.11210        7.42700       -7.00890
C          7.46040        6.07370       -6.81320
C          7.90420        7.99810       -8.02740
N          8.57200        8.40090       -8.86960
N          7.81690        4.98750       -6.70250
F        -12.38940       -6.57450        4.20660
F          6.35880       12.73630       -8.02830
F        -11.68220       -3.97090        3.90240
F          4.48920       13.40410       -6.17520
C         -0.48300       -6.73090        2.45460
C         -0.47700       -8.07000        2.63220
Se        -2.21930       -8.78590        2.94270
Se         4.31910        7.86170       -1.67430
C          3.73840        6.98960       -0.07910
C          3.48610        5.67650       -0.27070
C          3.58540        7.75410        1.19270
C          0.71050       -8.97240        2.62430
C          0.53050      -10.13770        1.65410
C          2.89080        9.09360        0.96380
H         -0.07910       -4.56600        0.87960
H         -1.81490       -0.24340        2.60000
H         -2.88750       -2.36370        3.23800
H          3.54680       -2.40680        0.04850
H          2.85370       -2.04910        1.62850
H          1.09350       -3.96080       -1.19430
H          2.14210       -2.73640       -1.91310
H          2.66800       -4.77100        0.25040
H          2.08480       -4.36710        1.87410
H          3.80790       -4.33000        1.51710
H         -0.87510       -2.44090       -1.51970
H         -0.07760       -2.84660       -3.04140
H          0.18310       -1.26590       -2.30420
H         -1.72330        1.38700        0.69840
H         -1.03410        1.11270       -0.89880
H         -0.27150        1.86760        2.63610
H          0.73010        3.09590        1.85770
H         -0.99580        3.80340        0.55360
H         -2.13010        3.32260       -0.70170
H         -0.42460        3.49120       -1.09290
H          1.97250        2.04330        3.70260
H          2.74090        1.63130        2.16690
H          1.73200        0.44520        2.99640
H          3.60940       -0.65220       -1.92980
H          4.50830        1.47570       -2.78160
H          1.71360        3.67950       -0.40750
H         -4.99020       -8.29010        3.26010
H        -10.49970       -8.30080        4.05830
H         -9.13870       -3.53910        3.49170
H          5.65640        5.54740       -5.52930
H          7.10700       10.28420       -8.06780
H          3.66740       11.44710       -4.65220
H          0.42350       -6.17260        2.29750
H          3.16410        5.02410        0.52330
H          4.57570        7.93390        1.62320
H          3.01810        7.15100        1.90600
H          0.86590       -9.37000        3.63230
H          1.59470       -8.39050        2.35380
H          1.40360      -10.78480        1.67110
H         -0.34310      -10.72720        1.93550
H          0.38670       -9.77100        0.64000
H          3.47700        9.70580        0.27600
H          1.90460        8.94070        0.53000
H          2.78200        9.63340        1.90120
