162
NNBDT.sdf
C          0.62130        1.58000       -0.21180
C         -0.22280        0.61680       -0.84260
C         -0.53880       -0.54850       -0.12520
C         -0.02430       -0.65680        1.15370
C          0.82840        0.30200        1.78310
C          1.16220        1.45800        1.05520
C          2.04000        2.55520        1.57610
C          3.43760        2.53940        0.95280
C         -1.35720       -1.67350       -0.68110
C         -0.45260       -2.81710       -1.14630
S         -0.38810       -2.03250        2.18110
C          0.59100       -1.34610        3.41700
C          1.17770       -0.13300        3.09140
C          0.94610       -1.74340        4.72560
C          1.78120       -0.75800        5.26660
C          2.04070        0.34450        4.25330
C          1.52720        1.66130        4.81620
C          3.52680        0.27830        3.95070
C          0.20350        1.70870        5.24140
C         -0.32760        2.86470        5.77800
C          0.44710        4.01010        5.91030
C          1.76300        3.96470        5.47310
C          2.29980        2.80960        4.93230
C          4.45130        0.66330        4.91650
C          5.80750        0.55310        4.67980
C          6.28490        0.03010        3.48460
C          5.36110       -0.39260        2.54050
C          4.00110       -0.27610        2.76970
C         -0.13660        5.27760        6.46290
C         -0.72160        6.13290        5.33720
C          7.75800       -0.03660        3.20650
C          8.23190        1.26160        2.54930
S          0.63420       -3.04390        5.79010
C          1.63500       -2.26810        7.01190
C          2.16320       -1.04990        6.55350
C          1.92110       -2.75090        8.29330
C          1.53680       -3.91230        8.91880
C          0.68010       -4.94930        8.33630
C          0.55320       -6.00060        9.35760
C          1.29590       -5.61860       10.51120
C          1.91440       -4.31980       10.25640
O          0.16850       -4.95160        7.22850
C          2.70870       -3.63780       11.14490
C          3.32150       -2.38910       10.91860
C          3.03000       -4.10370       12.43630
N          3.85910       -1.37790       10.81950
N          3.33230       -4.41850       13.49870
C         -0.13630       -7.17600        9.29570
C         -0.11410       -8.04570       10.40970
C          0.62630       -7.67320       11.56780
C          1.32970       -6.44610       11.60130
C         -0.80390       -9.27340       10.40590
C         -0.76570      -10.10070       11.49580
C         -0.03610       -9.73550       12.63640
C          0.64420       -8.54840       12.67220
S          0.90850        2.99430       -1.21200
C         -0.07610        2.30340       -2.44210
C         -0.61700        1.06630       -2.13120
C         -0.44030        2.68100       -3.75280
C         -1.23380        1.67130       -4.30750
C         -1.47720        0.57340       -3.28570
C         -2.96220        0.58270       -2.95770
C         -0.95390       -0.74020       -3.84700
C         -3.43530        0.88120       -1.68720
C         -4.79450        0.90770       -1.42930
C         -5.71950        0.64560       -2.42910
C         -5.24370        0.36580       -3.70390
C         -3.88830        0.33780       -3.96750
C         -1.74620       -1.86040       -4.04820
C         -1.20360       -3.01460       -4.58450
C          0.13750       -3.08490       -4.93160
C          0.92890       -1.96180       -4.72550
C          0.39150       -0.80600       -4.19460
C         -7.19360        0.71940       -2.15630
C         -7.71210        2.13660       -2.40930
C          0.73100       -4.35890       -5.45800
C          1.23840       -5.22450       -4.30260
S         -0.12970        3.95590       -4.84080
C         -1.04840        3.11320       -6.09710
C         -1.56970        1.91020       -5.62490
C         -1.11490        3.75390       -7.34370
C         -1.62230        3.34940       -8.55360
C         -2.17970        2.03200       -8.93120
C         -2.31050        2.05780      -10.39890
C         -1.93540        3.33920      -10.88800
C         -1.56820        4.17400       -9.74920
O         -2.48240        1.09430       -8.21780
C         -1.28310        5.51440       -9.82340
C         -1.01590        6.37410       -8.73770
C         -1.25720        6.24830      -11.02750
N         -0.80770        7.15460       -7.92020
N         -1.21350        6.90770      -11.96690
C         -2.70990        1.05300      -11.23120
C         -2.74530        1.28690      -12.62410
C         -2.36610        2.56550      -13.12390
C         -1.96260        3.58830      -12.23430
C         -3.14140        0.28790      -13.53460
C         -3.16270        0.53620      -14.88020
C         -2.78950        1.79510      -15.37370
C         -2.40010        2.78720      -14.51550
H          2.12780        2.47720        2.65420
H          1.56510        3.51360        1.34390
H          3.95730        1.61890        1.20300
H          3.38410        2.62810       -0.12920
H          4.01640        3.37580        1.33650
H         -2.02660       -2.04520        0.09970
H         -1.96480       -1.32850       -1.51270
H          0.11590       -3.22090       -0.31230
H         -1.05400       -3.61520       -1.57290
H          0.24270       -2.46730       -1.90510
H         -0.41670        0.82800        5.15330
H         -1.35750        2.87580        6.10480
H          2.38410        4.84490        5.55820
H          3.32670        2.81750        4.59810
H          4.11030        1.04970        5.86490
H          6.50670        0.86790        5.44110
H          5.70620       -0.82360        1.61120
H          3.30950       -0.62880        2.01910
H         -0.92390        5.03990        7.18100
H          0.63830        5.84630        6.98070
H         -1.14510        7.05070        5.73820
H          0.05180        6.39230        4.61760
H         -1.50470        5.58750        4.81510
H          8.30530       -0.18930        4.13870
H          7.97250       -0.87590        2.54180
H          8.04010        2.10880        3.20400
H          7.70320        1.42670        1.61300
H          9.29860        1.21660        2.34330
H          2.79280       -0.44200        7.17770
H          2.55880       -2.08350        8.86040
H         -0.69120       -7.44050        8.40780
H          1.87950       -6.19520       12.49430
H         -1.36390       -9.54930        9.52430
H         -1.29720      -11.04060       11.48430
H         -0.01540      -10.39950       13.48760
H          1.20730       -8.26260       13.54850
H         -2.74840        1.09510       -0.88280
H         -5.13760        1.13670       -0.43050
H         -5.94310        0.16780       -4.50350
H         -3.55010        0.12010       -4.96830
H         -2.79270       -1.84790       -3.78320
H         -1.83880       -3.87590       -4.73540
H          1.97720       -1.99150       -4.98680
H          1.02470        0.05760       -4.04610
H         -7.39250        0.44310       -1.11880
H         -7.72580        0.02080       -2.80500
H         -8.78010        2.19210       -2.21200
H         -7.53360        2.42590       -3.44250
H         -7.20150        2.84700       -1.76290
H          1.56100       -4.13220       -6.13000
H         -0.02240       -4.91430       -6.01990
H          1.66990       -6.14850       -4.68000
H          0.42200       -5.47180       -3.62770
H          1.99860       -4.69180       -3.73560
H         -2.14130        1.26250       -6.26240
H         -0.64410        4.73040       -7.33790
H         -2.99090        0.08980      -10.83170
H         -1.67780        4.54290      -12.64670
H         -3.42750       -0.67980      -13.14840
H         -3.46670       -0.23570      -15.57150
H         -2.81180        1.97510      -16.43810
H         -2.11260        3.75850      -14.89070
