152
NOBDT.mol
O         -4.56960        1.97500       -7.06680
C         -4.26690        2.47530       -8.13640
C         -2.99180        3.09260       -8.50850
C         -1.87970        3.18460       -7.70320
C         -1.66910        2.75830       -6.38970
C         -0.42820        2.92720       -5.74900
C         -0.41620        2.43270       -4.46790
C         -1.65330        1.86920       -4.11340
S         -2.83560        1.95870       -5.34260
C         -1.52800        1.31130       -2.82390
C         -0.24250        1.49050       -2.34460
C          0.57870        2.30490       -3.32480
C          1.80360        1.53550       -3.79020
C          1.61470        0.25930       -4.30900
C          2.68480       -0.48120       -4.77280
C          3.97550        0.03110       -4.73130
C          5.13610       -0.74960       -5.27690
C          5.38100       -0.38550       -6.74270
C          4.15940        1.30400       -4.20860
C          3.09080        2.04790       -3.74070
C          0.87960        3.70150       -2.80590
C          1.44950        4.63880       -3.66210
C          1.71300        5.92440       -3.23170
C          1.41140        6.31840       -1.93420
C          1.65340        7.72920       -1.48220
C          0.44100        8.60630       -1.80200
C          0.83180        5.38580       -1.08690
C          0.56560        4.09690       -1.51430
C         -0.03800        0.88140       -1.08620
C         -1.22880        0.25660       -0.60940
S         -2.55990        0.44520       -1.75240
C         -1.27240       -0.39530        0.61380
O         -2.32040       -1.00600        1.21170
C         -3.42270       -1.48920        0.46800
C         -3.04710       -2.63240       -0.46630
C         -0.08450       -0.38240        1.38130
C          1.11200        0.22470        0.89630
S          2.43030        0.07140        2.06010
C          1.39640       -0.79240        3.13240
C          0.10200       -0.93940        2.66590
C         -0.74940       -1.67030        3.68460
C         -1.78380       -0.76630        4.33410
C         -2.50890       -1.23320        5.42600
C         -3.43800       -0.42890        6.05650
C         -3.67020        0.86950        5.62120
C         -4.64530        1.75900        6.33650
C         -3.94620        2.51330        7.46950
C         -2.93630        1.33690        4.54110
C         -2.00370        0.53480        3.90730
C         -1.31710       -2.95370        3.10100
C         -2.66170       -3.28690        3.15150
C         -3.10600       -4.48770        2.62660
C         -2.22620       -5.38250        2.03290
C         -2.71020       -6.70230        1.50620
C         -2.68570       -7.75810        2.61330
C         -0.88050       -5.04110        1.97780
C         -0.43240       -3.84520        2.50400
C          0.30650       -2.00420        4.72620
C          1.54390       -1.43650        4.37930
S          2.79590       -1.76940        5.49330
C          1.66830       -2.71120        6.46180
C          1.94970       -3.39620        7.64620
C          3.12460       -3.52710        8.35000
C          4.41420       -2.94250        7.97460
C          5.37590       -3.37630        9.00600
C          4.70930       -4.17020        9.95580
C          3.29870       -4.27800        9.57400
C          2.34630       -4.97200       10.27650
C          2.60140       -5.68240       11.46840
N          2.73380       -6.28180       12.43860
C          0.98370       -5.08540        9.93130
N         -0.13770       -5.22810        9.72480
C          5.41160       -4.69740       11.02610
C          6.76740       -4.40550       11.10120
F          7.46810       -4.90810       12.13110
C          7.43460       -3.62440       10.17010
C          6.72580       -3.09870        9.10110
O          4.66160       -2.24040        7.00940
C          0.38200       -2.72350        5.89340
C          1.16430        0.84850       -0.34140
O          2.20360        1.48650       -0.92570
C          3.54320        1.20790       -0.56570
C          3.96830       -0.20860       -0.93120
C         -3.09130        3.56640       -9.87170
C         -2.13690        4.22640      -10.60340
C         -0.84720        4.57750      -10.15380
N          0.21800        4.90170       -9.86970
C         -2.31780        4.66000      -11.93370
N         -2.39310        5.03940      -13.01450
C         -4.42980        3.22060      -10.35820
C         -5.13220        2.57220       -9.32730
C         -6.42840        2.12410       -9.49250
C         -7.04530        2.32450      -10.71760
C         -6.34350        2.96430      -11.72770
F         -6.95430        3.14950      -12.90960
C         -5.04070        3.42380      -11.58390
H         -1.00610        3.65380       -8.13930
H          0.40100        3.38330       -6.25900
H          0.61840       -0.15850       -4.35230
H          2.51590       -1.47150       -5.17160
H          6.03520       -0.53010       -4.69710
H          4.93260       -1.81960       -5.20060
H          6.21990       -0.95170       -7.14030
H          5.60150        0.67530       -6.83740
H          4.49880       -0.60540       -7.33960
H          5.15620        1.71940       -4.16090
H          3.26830        3.02840       -3.32740
H          1.69840        4.36070       -4.67450
H          2.16020        6.63250       -3.91460
H          2.53290        8.13450       -1.98660
H          1.83700        7.74730       -0.40610
H          0.61380        9.62880       -1.47450
H          0.24990        8.61180       -2.87270
H         -0.44480        8.22480       -1.29900
H          0.58240        5.66880       -0.07400
H          0.11060        3.40360       -0.82520
H         -4.10950       -1.84860        1.23800
H         -3.91520       -0.67940       -0.08080
H         -2.56800       -3.42790        0.09900
H         -2.36470       -2.29540       -1.24230
H         -3.94420       -3.02140       -0.93850
H         -2.35280       -2.23860        5.78520
H         -3.99140       -0.81650        6.90000
H         -5.07360        2.47840        5.63570
H         -5.45800        1.15980        6.75190
H         -3.13960        3.12670        7.07410
H         -4.65090        3.15810        7.98920
H         -3.52260        1.81260        8.18550
H         -3.09380        2.34580        4.18660
H         -1.45080        0.93800        3.07400
H         -3.37270       -2.60630        3.59300
H         -4.15820       -4.73060        2.67480
H         -2.07270       -7.02950        0.68230
H         -3.73010       -6.59960        1.12970
H         -3.03610       -8.71520        2.23430
H         -3.32580       -7.45550        3.43880
H         -1.67450       -7.88380        2.99380
H         -0.17610       -5.71900        1.51700
H          0.61960       -3.60120        2.45220
H          1.08440       -3.90460        8.05390
H          4.95940       -5.31220       11.78620
H          8.49000       -3.44030       10.29310
H          7.20680       -2.48610        8.35470
H         -0.42140       -3.27100        6.35210
H          3.71680        1.40780        0.49710
H          4.11830        1.93100       -1.14890
H          3.39650       -0.94460       -0.37180
H          3.81120       -0.37830       -1.99350
H          5.02130       -0.33970       -0.70110
H         -6.93840        1.63020       -8.68030
H         -8.05520        1.99440      -10.90200
H         -4.55700        3.91200      -12.41330
