104
NOCIC.sdf
C          9.03370       -6.99700        1.46560
O          7.99190       -6.90030        2.08260
C         10.00440       -8.10380        1.61600
C          9.89560       -9.22380        2.41610
C         10.93400      -10.13990        2.38210
C         12.04390       -9.92380        1.56490
C         12.15360       -8.79560        0.76550
C         11.11780       -7.87440        0.79400
C         10.92310       -6.60670        0.08970
C         11.86170       -6.01370       -0.71440
C         13.12320       -6.57850       -1.00250
N         14.16110       -6.97990       -1.28310
C         11.75110       -4.75790       -1.35000
N         11.76430       -3.74420       -1.89030
C          9.60900       -6.09890        0.44600
C          9.03310       -5.01010       -0.16690
C         -9.54070        3.76420        0.99970
O         -8.50110        3.19600        1.28010
C        -10.79790        3.71050        1.77550
C        -11.05320        3.02950        2.94860
C        -12.32480        3.13650        3.48900
C        -13.30110        3.90810        2.85910
C        -13.04290        4.59210        1.67980
C        -11.77370        4.49040        1.13270
C        -11.18820        5.07510       -0.07630
C        -11.85450        5.88950       -0.95570
C        -11.31320        6.45950       -2.12700
N        -10.95380        6.96380       -3.09470
C        -13.20400        6.27540       -0.80940
N        -14.29470        6.62760       -0.74970
C         -9.81290        4.62820       -0.14980
C         -8.90930        4.96440       -1.13220
C         -7.57230        4.59900       -1.30490
S         -6.62470        3.53790       -0.26700
C         -5.27690        3.74690       -1.29320
C         -5.52600        4.59380       -2.38920
C         -6.81240        5.07120       -2.39160
C         -3.94290        3.29110       -1.37840
C         -3.33520        3.84230       -2.51170
C         -4.28850        4.75710       -3.24350
S         -2.91460        2.22400       -0.51480
C         -1.65830        2.50300       -1.68910
C         -2.03580        3.38300       -2.68900
C         -0.42840        1.78960       -1.50870
N         -0.41850        0.94680       -0.46960
N          0.59560        0.21280       -0.20260
C          1.69840        0.25980       -0.96150
C          1.78960        1.14280       -2.05600
C          0.70240        1.92800       -2.33850
C          2.74990       -0.64510       -0.59560
S          4.25130       -0.72340       -1.48770
C          4.79200       -1.98910       -0.46280
C          3.85860       -2.32400        0.51870
C          2.70270       -1.55870        0.44190
C          5.91730       -2.82820       -0.33010
C          5.70060       -3.71860        0.73870
C          4.36230       -3.45350        1.38950
S          7.42360       -3.05260       -1.09380
C          7.79700       -4.37780        0.01860
C          6.76040       -4.58030        0.93080
C          3.37150       -4.63940        1.31040
C          3.99270       -6.02890        1.38990
C          4.53140       -2.90220        2.82310
C          5.03790       -3.90070        3.85390
C         -3.85030        6.23690       -3.17120
C         -2.49900        6.54120       -3.80340
C         -4.52530        4.30280       -4.69270
C         -5.06760        2.88110       -4.78230
F        -14.52060        3.99430        3.40240
F        -12.61880        2.49360        4.62570
F         10.87100      -11.24320        3.13770
F         13.03030      -10.82740        1.54670
H          9.03430       -9.38500        3.04460
H         13.03180       -8.67960        0.15240
H          9.61960       -4.55950       -0.95870
H        -10.29440        2.43450        3.43130
H        -13.83330        5.17400        1.23520
H         -9.27010        5.62380       -1.91230
H         -7.23440        5.73080       -3.12920
H         -1.39420        3.64990       -3.50900
H          2.69400        1.18690       -2.64510
H          0.70750        2.62620       -3.16080
H          1.84210       -1.63420        1.07980
H          6.82160       -5.34980        1.67660
H          2.63870       -4.51760        2.10960
H          2.83240       -4.56680        0.36230
H          4.58130       -6.16110        2.29120
H          3.19890       -6.77290        1.38870
H          4.63210       -6.21700        0.53120
H          5.22330       -2.05690        2.77490
H          3.56160       -2.51550        3.14420
H          4.32840       -4.71000        3.99830
H          5.99700       -4.31700        3.56050
H          5.16700       -3.39370        4.80780
H         -4.62190        6.83580       -3.65890
H         -3.82000        6.52790       -2.11840
H         -2.48420        6.27610       -4.85700
H         -1.70390        6.00570       -3.29200
H         -2.29520        7.60630       -3.72180
H         -3.58280        4.35850       -5.23820
H         -5.23090        4.99180       -5.16060
H         -6.02450        2.79840       -4.27260
H         -5.20900        2.60240       -5.82360
H         -4.37560        2.17490       -4.32880
