144
NTIC-Me.sdf
C          2.93300        3.01770       -5.40090
C          4.29950        2.92730       -5.30380
C          5.04230        2.14880       -4.30440
C          6.46130        2.48510       -4.49890
C          6.58580        3.38030       -5.57650
C          5.25410        3.64680       -6.12240
O          4.58870        1.37780       -3.47570
C          4.99360        4.42610       -7.22040
C          5.98450        5.09200       -7.97140
C          3.72140        4.67250       -7.77660
N          6.73650        5.65800       -8.62940
N          2.72780        4.92000       -8.29820
C          7.56490        2.05890       -3.78790
C          8.81220        2.53990       -4.15760
C          8.95760        3.42950       -5.21770
C          7.83560        3.85150       -5.93370
C         -3.11760       -2.16510        4.14680
C         -3.95750       -2.28490        5.26040
C         -5.13550       -1.64880        5.56390
C         -5.81630       -0.65200        4.72750
C         -6.95510       -0.16440        5.52130
C         -6.99070       -0.84200        6.75250
C         -5.88320       -1.79800        6.79580
O         -5.50990       -0.29070        3.60380
C         -5.63300       -2.66830        7.82590
C         -4.58260       -3.60760        7.87960
C         -6.41500       -2.75600        8.99640
N         -3.75860       -4.39840        8.00760
N         -7.00280       -2.88050        9.97500
C         -7.88750        0.80460        5.20740
C         -8.86660        1.10240        6.14210
C         -8.91740        0.44680        7.36980
C         -7.97340       -0.53360        7.67620
C         -1.88070       -2.82400        4.07790
C         -1.17280       -2.50220        2.94260
C         -1.86800       -1.62570        2.10400
S         -3.39380       -1.16920        2.72500
C          0.16200       -2.85460        2.33700
C          0.17310       -1.93400        1.12920
C         -1.05070       -1.27320        0.98620
C          1.22340       -1.68780        0.25140
C          1.04300       -0.78680       -0.77160
C         -0.19780       -0.15490       -0.97900
C         -1.29440       -0.40990       -0.10670
C         -0.43140        0.73740       -2.05070
C         -1.70490        1.25760       -2.29820
C         -2.77290        0.95760       -1.45840
C         -2.55600        0.16210       -0.35830
C          0.46030        1.29010       -3.02100
C         -0.24810        2.11240       -3.90260
C         -1.71470        2.10850       -3.55680
S          2.14600        1.29570       -3.30350
C          1.92430        2.43160       -4.62680
C          0.56910        2.74560       -4.81090
C          0.08950       -4.32640        1.95920
C          1.35920       -2.55920        3.21500
C          2.56920       -3.20000        2.97780
C          3.68090       -2.90560        3.74350
C          3.61710       -1.96250        4.76110
C          2.40820       -1.31920        4.98840
C          1.29370       -1.60670        4.22200
C         -0.19190       -4.74320        0.66680
C         -0.30810       -6.09140        0.37730
C         -0.15890       -7.05210        1.36720
C          0.11810       -6.62800        2.66110
C          0.23690       -5.28420        2.95580
C         -0.24710       -8.51510        1.04100
C          1.13390       -9.06670        0.68090
C          4.81310       -1.68490        5.62510
C          4.84290       -2.64270        6.81800
C         -2.56370        1.35710       -4.57130
C         -2.18580        3.53480       -3.36850
C         -2.25590        4.12220       -2.11390
C         -2.66110        5.43830       -1.98010
C         -2.99160        6.20190       -3.09090
C         -2.89950        5.61450       -4.34670
C         -2.49810        4.30050       -4.48600
C         -3.93820        1.55440       -4.61040
C         -4.72540        0.83640       -5.49040
C         -4.16580       -0.10350       -6.34620
C         -2.79270       -0.30170       -6.29790
C         -2.00060        0.41350       -5.41910
C         -5.01610       -0.85290       -7.33090
C         -5.09780       -0.09230       -8.65600
C         -3.48640        7.61110       -2.93740
C         -5.00850        7.62630       -2.78090
C         -9.96380        0.80700        8.37620
C         10.30440        3.95980       -5.59480
H          2.54370        3.67510       -6.16930
H          7.44690        1.37090       -2.96490
H          9.68880        2.22120       -3.61270
H          7.96530        4.54280       -6.75070
H         -3.57090       -2.97040        6.00510
H         -7.84290        1.31120        4.25550
H         -9.60560        1.85830        5.91920
H         -8.02410       -1.03190        8.63070
H         -1.54290       -3.47930        4.86090
H          2.17100       -2.18670        0.38430
H          1.85640       -0.56390       -1.44570
H         -3.75290        1.36250       -1.65860
H         -3.36600       -0.05190        0.32280
H          0.24200        3.42740       -5.57560
H          2.63790       -3.94310        2.19620
H          4.61350       -3.41520        3.54660
H          2.33730       -0.57970        5.77340
H          0.36580       -1.08690        4.41190
H         -0.32210       -4.01660       -0.12180
H         -0.52530       -6.39870       -0.63600
H          0.23500       -7.35890        3.44850
H          0.45340       -4.97260        3.96720
H         -0.64010       -9.06250        1.90000
H         -0.92580       -8.66640        0.19930
H          1.07080      -10.12590        0.44300
H          1.82150       -8.93770        1.51380
H          1.53810       -8.54020       -0.18090
H          5.72770       -1.80870        5.04170
H          4.77640       -0.65650        5.98980
H          4.89310       -3.67350        6.47430
H          5.70840       -2.44300        7.44550
H          3.94370       -2.52650        7.41880
H         -1.99630        3.55110       -1.23450
H         -2.71780        5.87840       -0.99460
H         -3.14340        6.19380       -5.22580
H         -2.43660        3.85810       -5.46990
H         -4.39510        2.28290       -3.95650
H         -5.79270        1.00560       -5.50930
H         -2.33550       -1.02920       -6.95340
H         -0.93580        0.23380       -5.39720
H         -6.02240       -0.98290       -6.92770
H         -4.58920       -1.84180       -7.51010
H         -5.53430        0.89190       -8.50090
H         -5.71190       -0.63640       -9.36990
H         -4.10450        0.03730       -9.07960
H         -3.02970        8.07130       -2.05890
H         -3.20920        8.19880       -3.81480
H         -5.37030        8.64600       -2.67130
H         -5.48260        7.18130       -3.65300
H         -5.30400        7.05620       -1.90290
H        -10.19670       -0.04150        9.01460
H         -9.59840        1.61420        9.01210
H        -10.87350        1.14930        7.88880
H         10.44720        3.90810       -6.67220
H         10.38480        5.00690       -5.30240
H         11.09840        3.40380       -5.10360
