138
NTIC.sdf
C          6.61930        0.50600       -1.46770
C          7.06520        1.75260       -1.10290
C          6.23830        2.83890       -0.56620
C          7.16090        3.95330       -0.28260
C          8.46810        3.57680       -0.63680
C          8.43970        2.20930       -1.15860
O          5.03260        2.83830       -0.38600
C          9.53370        1.51560       -1.60840
C         10.84720        2.03060       -1.62590
C          9.53010        0.20050       -2.11800
N         11.93930        2.38210       -1.67040
N          9.62150       -0.86190       -2.54600
C          6.87860        5.19720        0.24540
C          7.92920        6.08660        0.42370
C          9.22220        5.72460        0.07630
C          9.50900        4.47330       -0.45540
C         -5.35190       -1.82060        1.30640
C         -6.40980       -2.68440        1.63140
C         -7.62580       -2.46350        2.22750
C         -8.22120       -1.18420        2.67290
C         -9.55470       -1.52620        3.20460
C         -9.76770       -2.90990        3.10350
C         -8.57760       -3.52440        2.51580
O         -7.75440       -0.06310        2.62750
C         -8.41860       -4.87220        2.31850
C         -9.39520       -5.84030        2.63750
C         -7.28310       -5.52530        1.79360
N        -10.13470       -6.68840        2.86600
N         -6.41160       -6.15430        1.38630
C        -10.50630       -0.67770        3.73550
C        -11.70220       -1.22730        4.17400
C        -11.92410       -2.59320        4.07380
C        -10.96800       -3.44840        3.54150
C         -5.15760       -0.45100        1.46310
C         -3.90690       -0.04670        1.03640
C         -3.12120       -1.08510        0.53310
S         -3.93090       -2.58700        0.58150
C         -3.15820        1.25640        0.93900
C         -1.81050        0.77380        0.43540
C         -1.82800       -0.59890        0.16920
C         -0.64690        1.51710        0.26610
C          0.49210        0.88690       -0.17570
C          0.49400       -0.48520       -0.49130
C         -0.68830       -1.26500       -0.33790
C          1.64150       -1.15520       -0.97500
C          1.59300       -2.50100       -1.34950
C          0.42440       -3.24090       -1.20160
C         -0.69390       -2.62870       -0.68750
C          2.98370       -0.70060       -1.16070
C          3.77780       -1.74800       -1.63760
C          2.93940       -2.98040       -1.86190
S          3.86200        0.74100       -0.89250
C          5.33680       -0.05300       -1.42620
C          5.09490       -1.38370       -1.80010
C         -2.97370        1.98480        2.25460
C         -3.90700        2.11440       -0.07010
C         -3.48660        2.24740       -1.38470
C         -4.22460        3.00150       -2.28030
C         -5.39990        3.62780       -1.89080
C         -5.81960        3.48290       -0.57400
C         -5.08730        2.73350        0.32510
C         -2.69710        3.34650        2.25880
C         -2.48460        4.01470        3.44900
C         -2.54050        3.34360        4.66380
C         -2.80740        1.98160        4.65290
C         -3.01810        1.30700        3.46410
C         -2.26450        4.06700        5.95000
C         -0.76270        4.07650        6.24270
C         -6.17340        4.48150       -2.85380
C         -5.68270        5.92960       -2.79580
C          2.95090       -3.26200       -3.35530
C          3.36970       -4.18850       -1.05430
C          2.98710       -5.46400       -1.45100
C          3.33440       -6.56700       -0.69510
C          4.06520       -6.42750        0.47790
C          4.43610       -5.15010        0.87480
C          4.08810       -4.04230        0.12390
C          4.05640       -3.89130       -3.91580
C          4.11960       -4.11850       -5.27640
C          3.08550       -3.72000       -6.11470
C          1.99030       -3.08090       -5.55110
C          1.92180       -2.84970       -4.18860
C          3.17680       -3.92740       -7.59880
C          3.86650       -2.73370       -8.26270
C          4.48470       -7.63390        1.26670
C          5.80830       -8.18570        0.73280
H          7.36610       -0.18680       -1.83680
H          5.86450        5.45620        0.50850
H          7.74050        7.06680        0.83520
H         10.02830        6.42810        0.22110
H         10.52420        4.22210       -0.71430
H         -6.20210       -3.71350        1.36320
H        -10.30880        0.38140        3.80060
H        -12.46560       -0.59050        4.59500
H        -12.86100       -3.00570        4.41710
H        -11.17300       -4.50400        3.47730
H         -5.91010        0.18750        1.88610
H         -0.64020        2.57240        0.49070
H          1.40710        1.44690       -0.29690
H          0.40240       -4.28330       -1.47970
H         -1.60470       -3.19360       -0.55580
H          5.88180       -2.02570       -2.15410
H         -2.57920        1.76450       -1.71680
H         -3.88110        3.09850       -3.30050
H         -6.73480        3.95740       -0.25030
H         -5.42940        2.63140        1.34420
H         -2.66240        3.89000        1.32540
H         -2.27640        5.07520        3.43480
H         -2.85430        1.43980        5.58680
H         -3.22370        0.24650        3.48140
H         -2.62360        5.09590        5.88050
H         -2.78900        3.57650        6.77220
H         -0.38860        3.05890        6.33130
H         -0.22330        4.56880        5.43650
H         -0.55840        4.60450        7.17120
H         -6.05000        4.10010       -3.86940
H         -7.23570        4.45140       -2.60370
H         -4.62760        5.98190       -3.05530
H         -6.24280        6.54990       -3.49150
H         -5.80850        6.33130       -1.79280
H          2.42450       -5.59620       -2.36410
H          3.03090       -7.55210       -1.01990
H          5.00170       -5.01800        1.78620
H          4.38100       -3.05750        0.45790
H          4.86640       -4.21490       -3.27840
H          4.98430       -4.61370       -5.69460
H          1.17620       -2.75900       -6.18490
H          1.05850       -2.34780       -3.77650
H          2.17580       -4.04400       -8.01910
H          3.74530       -4.83480       -7.81180
H          4.87070       -2.60730       -7.86420
H          3.30680       -1.82030       -8.07370
H          3.93530       -2.88330       -9.33760
H          4.60380       -7.36650        2.31840
H          3.71770       -8.40770        1.19510
H          6.58950       -7.43260        0.80760
H          5.70590       -8.46920       -0.31240
H          6.11320       -9.06070        1.30190
