NTIC.sdf
  xtb     12202113423D
 energy: -219.723762991342 gnorm: 0.000627093020 xtb: 6.4.1 (unknown)
138151  0     0  0            999 V2000
    6.6193    0.5060   -1.4677 C   0  0  0  0  0  0  0  0  0  0  0  0
    7.0652    1.7526   -1.1029 C   0  0  0  0  0  0  0  0  0  0  0  0
    6.2383    2.8389   -0.5662 C   0  0  0  0  0  0  0  0  0  0  0  0
    7.1609    3.9533   -0.2826 C   0  0  0  0  0  0  0  0  0  0  0  0
    8.4681    3.5768   -0.6368 C   0  0  0  0  0  0  0  0  0  0  0  0
    8.4397    2.2093   -1.1586 C   0  0  0  0  0  0  0  0  0  0  0  0
    5.0326    2.8383   -0.3860 O   0  0  0  0  0  0  0  0  0  0  0  0
    9.5337    1.5156   -1.6084 C   0  0  0  0  0  0  0  0  0  0  0  0
   10.8472    2.0306   -1.6259 C   0  0  0  0  0  0  0  0  0  0  0  0
    9.5301    0.2005   -2.1180 C   0  0  0  0  0  0  0  0  0  0  0  0
   11.9393    2.3821   -1.6704 N   0  0  0  0  0  0  0  0  0  0  0  0
    9.6215   -0.8619   -2.5460 N   0  0  0  0  0  0  0  0  0  0  0  0
    6.8786    5.1972    0.2454 C   0  0  0  0  0  0  0  0  0  0  0  0
    7.9292    6.0866    0.4237 C   0  0  0  0  0  0  0  0  0  0  0  0
    9.2222    5.7246    0.0763 C   0  0  0  0  0  0  0  0  0  0  0  0
    9.5090    4.4733   -0.4554 C   0  0  0  0  0  0  0  0  0  0  0  0
   -5.3519   -1.8206    1.3064 C   0  0  0  0  0  0  0  0  0  0  0  0
   -6.4098   -2.6844    1.6314 C   0  0  0  0  0  0  0  0  0  0  0  0
   -7.6258   -2.4635    2.2275 C   0  0  0  0  0  0  0  0  0  0  0  0
   -8.2212   -1.1842    2.6729 C   0  0  0  0  0  0  0  0  0  0  0  0
   -9.5547   -1.5262    3.2046 C   0  0  0  0  0  0  0  0  0  0  0  0
   -9.7677   -2.9099    3.1035 C   0  0  0  0  0  0  0  0  0  0  0  0
   -8.5776   -3.5244    2.5158 C   0  0  0  0  0  0  0  0  0  0  0  0
   -7.7544   -0.0631    2.6275 O   0  0  0  0  0  0  0  0  0  0  0  0
   -8.4186   -4.8722    2.3185 C   0  0  0  0  0  0  0  0  0  0  0  0
   -9.3952   -5.8403    2.6375 C   0  0  0  0  0  0  0  0  0  0  0  0
   -7.2831   -5.5253    1.7936 C   0  0  0  0  0  0  0  0  0  0  0  0
  -10.1347   -6.6884    2.8660 N   0  0  0  0  0  0  0  0  0  0  0  0
   -6.4116   -6.1543    1.3863 N   0  0  0  0  0  0  0  0  0  0  0  0
  -10.5063   -0.6777    3.7355 C   0  0  0  0  0  0  0  0  0  0  0  0
  -11.7022   -1.2273    4.1740 C   0  0  0  0  0  0  0  0  0  0  0  0
  -11.9241   -2.5932    4.0738 C   0  0  0  0  0  0  0  0  0  0  0  0
  -10.9680   -3.4484    3.5415 C   0  0  0  0  0  0  0  0  0  0  0  0
   -5.1576   -0.4510    1.4631 C   0  0  0  0  0  0  0  0  0  0  0  0
   -3.9069   -0.0467    1.0364 C   0  0  0  0  0  0  0  0  0  0  0  0
   -3.1212   -1.0851    0.5331 C   0  0  0  0  0  0  0  0  0  0  0  0
   -3.9309   -2.5870    0.5815 S   0  0  0  0  0  0  0  0  0  0  0  0
   -3.1582    1.2564    0.9390 C   0  0  0  0  0  0  0  0  0  0  0  0
   -1.8105    0.7738    0.4354 C   0  0  0  0  0  0  0  0  0  0  0  0
   -1.8280   -0.5989    0.1692 C   0  0  0  0  0  0  0  0  0  0  0  0
   -0.6469    1.5171    0.2661 C   0  0  0  0  0  0  0  0  0  0  0  0
    0.4921    0.8869   -0.1757 C   0  0  0  0  0  0  0  0  0  0  0  0
    0.4940   -0.4852   -0.4913 C   0  0  0  0  0  0  0  0  0  0  0  0
   -0.6883   -1.2650   -0.3379 C   0  0  0  0  0  0  0  0  0  0  0  0
    1.6415   -1.1552   -0.9750 C   0  0  0  0  0  0  0  0  0  0  0  0
    1.5930   -2.5010   -1.3495 C   0  0  0  0  0  0  0  0  0  0  0  0
    0.4244   -3.2409   -1.2016 C   0  0  0  0  0  0  0  0  0  0  0  0
   -0.6939   -2.6287   -0.6875 C   0  0  0  0  0  0  0  0  0  0  0  0
    2.9837   -0.7006   -1.1607 C   0  0  0  0  0  0  0  0  0  0  0  0
    3.7778   -1.7480   -1.6376 C   0  0  0  0  0  0  0  0  0  0  0  0
    2.9394   -2.9804   -1.8619 C   0  0  0  0  0  0  0  0  0  0  0  0
    3.8620    0.7410   -0.8925 S   0  0  0  0  0  0  0  0  0  0  0  0
    5.3368   -0.0530   -1.4262 C   0  0  0  0  0  0  0  0  0  0  0  0
    5.0949   -1.3837   -1.8001 C   0  0  0  0  0  0  0  0  0  0  0  0
   -2.9737    1.9848    2.2546 C   0  0  0  0  0  0  0  0  0  0  0  0
   -3.9070    2.1144   -0.0701 C   0  0  0  0  0  0  0  0  0  0  0  0
   -3.4866    2.2474   -1.3847 C   0  0  0  0  0  0  0  0  0  0  0  0
   -4.2246    3.0015   -2.2803 C   0  0  0  0  0  0  0  0  0  0  0  0
   -5.3999    3.6278   -1.8908 C   0  0  0  0  0  0  0  0  0  0  0  0
   -5.8196    3.4829   -0.5740 C   0  0  0  0  0  0  0  0  0  0  0  0
   -5.0873    2.7335    0.3251 C   0  0  0  0  0  0  0  0  0  0  0  0
   -2.6971    3.3465    2.2588 C   0  0  0  0  0  0  0  0  0  0  0  0
   -2.4846    4.0147    3.4490 C   0  0  0  0  0  0  0  0  0  0  0  0
   -2.5405    3.3436    4.6638 C   0  0  0  0  0  0  0  0  0  0  0  0
   -2.8074    1.9816    4.6529 C   0  0  0  0  0  0  0  0  0  0  0  0
   -3.0181    1.3070    3.4641 C   0  0  0  0  0  0  0  0  0  0  0  0
   -2.2645    4.0670    5.9500 C   0  0  0  0  0  0  0  0  0  0  0  0
   -0.7627    4.0765    6.2427 C   0  0  0  0  0  0  0  0  0  0  0  0
   -6.1734    4.4815   -2.8538 C   0  0  0  0  0  0  0  0  0  0  0  0
   -5.6827    5.9296   -2.7958 C   0  0  0  0  0  0  0  0  0  0  0  0
    2.9509   -3.2620   -3.3553 C   0  0  0  0  0  0  0  0  0  0  0  0
    3.3697   -4.1885   -1.0543 C   0  0  0  0  0  0  0  0  0  0  0  0
    2.9871   -5.4640   -1.4510 C   0  0  0  0  0  0  0  0  0  0  0  0
    3.3344   -6.5670   -0.6951 C   0  0  0  0  0  0  0  0  0  0  0  0
    4.0652   -6.4275    0.4779 C   0  0  0  0  0  0  0  0  0  0  0  0
    4.4361   -5.1501    0.8748 C   0  0  0  0  0  0  0  0  0  0  0  0
    4.0881   -4.0423    0.1239 C   0  0  0  0  0  0  0  0  0  0  0  0
    4.0564   -3.8913   -3.9158 C   0  0  0  0  0  0  0  0  0  0  0  0
    4.1196   -4.1185   -5.2764 C   0  0  0  0  0  0  0  0  0  0  0  0
    3.0855   -3.7200   -6.1147 C   0  0  0  0  0  0  0  0  0  0  0  0
    1.9903   -3.0809   -5.5511 C   0  0  0  0  0  0  0  0  0  0  0  0
    1.9218   -2.8497   -4.1886 C   0  0  0  0  0  0  0  0  0  0  0  0
    3.1768   -3.9274   -7.5988 C   0  0  0  0  0  0  0  0  0  0  0  0
    3.8665   -2.7337   -8.2627 C   0  0  0  0  0  0  0  0  0  0  0  0
    4.4847   -7.6339    1.2667 C   0  0  0  0  0  0  0  0  0  0  0  0
    5.8083   -8.1857    0.7328 C   0  0  0  0  0  0  0  0  0  0  0  0
    7.3661   -0.1868   -1.8368 H   0  0  0  0  0  0  0  0  0  0  0  0
    5.8645    5.4562    0.5085 H   0  0  0  0  0  0  0  0  0  0  0  0
    7.7405    7.0668    0.8352 H   0  0  0  0  0  0  0  0  0  0  0  0
   10.0283    6.4281    0.2211 H   0  0  0  0  0  0  0  0  0  0  0  0
   10.5242    4.2221   -0.7143 H   0  0  0  0  0  0  0  0  0  0  0  0
   -6.2021   -3.7135    1.3632 H   0  0  0  0  0  0  0  0  0  0  0  0
  -10.3088    0.3814    3.8006 H   0  0  0  0  0  0  0  0  0  0  0  0
  -12.4656   -0.5905    4.5950 H   0  0  0  0  0  0  0  0  0  0  0  0
  -12.8610   -3.0057    4.4171 H   0  0  0  0  0  0  0  0  0  0  0  0
  -11.1730   -4.5040    3.4773 H   0  0  0  0  0  0  0  0  0  0  0  0
   -5.9101    0.1875    1.8861 H   0  0  0  0  0  0  0  0  0  0  0  0
   -0.6402    2.5724    0.4907 H   0  0  0  0  0  0  0  0  0  0  0  0
    1.4071    1.4469   -0.2969 H   0  0  0  0  0  0  0  0  0  0  0  0
    0.4024   -4.2833   -1.4797 H   0  0  0  0  0  0  0  0  0  0  0  0
   -1.6047   -3.1936   -0.5558 H   0  0  0  0  0  0  0  0  0  0  0  0
    5.8818   -2.0257   -2.1541 H   0  0  0  0  0  0  0  0  0  0  0  0
   -2.5792    1.7645   -1.7168 H   0  0  0  0  0  0  0  0  0  0  0  0
   -3.8811    3.0985   -3.3005 H   0  0  0  0  0  0  0  0  0  0  0  0
   -6.7348    3.9574   -0.2503 H   0  0  0  0  0  0  0  0  0  0  0  0
   -5.4294    2.6314    1.3442 H   0  0  0  0  0  0  0  0  0  0  0  0
   -2.6624    3.8900    1.3254 H   0  0  0  0  0  0  0  0  0  0  0  0
   -2.2764    5.0752    3.4348 H   0  0  0  0  0  0  0  0  0  0  0  0
   -2.8543    1.4398    5.5868 H   0  0  0  0  0  0  0  0  0  0  0  0
   -3.2237    0.2465    3.4814 H   0  0  0  0  0  0  0  0  0  0  0  0
   -2.6236    5.0959    5.8805 H   0  0  0  0  0  0  0  0  0  0  0  0
   -2.7890    3.5765    6.7722 H   0  0  0  0  0  0  0  0  0  0  0  0
   -0.3886    3.0589    6.3313 H   0  0  0  0  0  0  0  0  0  0  0  0
   -0.2233    4.5688    5.4365 H   0  0  0  0  0  0  0  0  0  0  0  0
   -0.5584    4.6045    7.1712 H   0  0  0  0  0  0  0  0  0  0  0  0
   -6.0500    4.1001   -3.8694 H   0  0  0  0  0  0  0  0  0  0  0  0
   -7.2357    4.4514   -2.6037 H   0  0  0  0  0  0  0  0  0  0  0  0
   -4.6276    5.9819   -3.0553 H   0  0  0  0  0  0  0  0  0  0  0  0
   -6.2428    6.5499   -3.4915 H   0  0  0  0  0  0  0  0  0  0  0  0
   -5.8085    6.3313   -1.7928 H   0  0  0  0  0  0  0  0  0  0  0  0
    2.4245   -5.5962   -2.3641 H   0  0  0  0  0  0  0  0  0  0  0  0
    3.0309   -7.5521   -1.0199 H   0  0  0  0  0  0  0  0  0  0  0  0
    5.0017   -5.0180    1.7862 H   0  0  0  0  0  0  0  0  0  0  0  0
    4.3810   -3.0575    0.4579 H   0  0  0  0  0  0  0  0  0  0  0  0
    4.8664   -4.2149   -3.2784 H   0  0  0  0  0  0  0  0  0  0  0  0
    4.9843   -4.6137   -5.6946 H   0  0  0  0  0  0  0  0  0  0  0  0
    1.1762   -2.7590   -6.1849 H   0  0  0  0  0  0  0  0  0  0  0  0
    1.0585   -2.3478   -3.7765 H   0  0  0  0  0  0  0  0  0  0  0  0
    2.1758   -4.0440   -8.0191 H   0  0  0  0  0  0  0  0  0  0  0  0
    3.7453   -4.8348   -7.8118 H   0  0  0  0  0  0  0  0  0  0  0  0
    4.8707   -2.6073   -7.8642 H   0  0  0  0  0  0  0  0  0  0  0  0
    3.3068   -1.8203   -8.0737 H   0  0  0  0  0  0  0  0  0  0  0  0
    3.9353   -2.8833   -9.3376 H   0  0  0  0  0  0  0  0  0  0  0  0
    4.6038   -7.3665    2.3184 H   0  0  0  0  0  0  0  0  0  0  0  0
    3.7177   -8.4077    1.1951 H   0  0  0  0  0  0  0  0  0  0  0  0
    6.5895   -7.4326    0.8076 H   0  0  0  0  0  0  0  0  0  0  0  0
    5.7059   -8.4692   -0.3124 H   0  0  0  0  0  0  0  0  0  0  0  0
    6.1132   -9.0607    1.3019 H   0  0  0  0  0  0  0  0  0  0  0  0
  1  2  2  0  0  0  0
  2  3  1  0  0  0  0
  3  4  1  0  0  0  0
  4  5  2  0  0  0  0
  5  6  1  0  0  0  0
  6  2  1  0  0  0  0
  3  7  2  0  0  0  0
  6  8  2  0  0  0  0
  8  9  1  0  0  0  0
  8 10  1  0  0  0  0
  9 11  3  0  0  0  0
 10 12  3  0  0  0  0
  4 13  1  0  0  0  0
 13 14  2  0  0  0  0
 14 15  1  0  0  0  0
 15 16  2  0  0  0  0
 16  5  1  0  0  0  0
 17 18  1  0  0  0  0
 18 19  2  0  0  0  0
 19 20  1  0  0  0  0
 20 21  1  0  0  0  0
 21 22  2  0  0  0  0
 22 23  1  0  0  0  0
 23 19  1  0  0  0  0
 20 24  2  0  0  0  0
 23 25  2  0  0  0  0
 25 26  1  0  0  0  0
 25 27  1  0  0  0  0
 26 28  3  0  0  0  0
 27 29  3  0  0  0  0
 21 30  1  0  0  0  0
 30 31  2  0  0  0  0
 32 33  2  0  0  0  0
 33 22  1  0  0  0  0
 32 31  1  0  0  0  0
 17 34  2  0  0  0  0
 34 35  1  0  0  0  0
 35 36  2  0  0  0  0
 36 37  1  0  0  0  0
 37 17  1  0  0  0  0
 35 38  1  0  0  0  0
 38 39  1  0  0  0  0
 39 40  2  0  0  0  0
 40 36  1  0  0  0  0
 39 41  1  0  0  0  0
 41 42  2  0  0  0  0
 42 43  1  0  0  0  0
 43 44  2  0  0  0  0
 44 40  1  0  0  0  0
 43 45  1  0  0  0  0
 45 46  2  0  0  0  0
 46 47  1  0  0  0  0
 47 48  2  0  0  0  0
 48 44  1  0  0  0  0
 45 49  1  0  0  0  0
 49 50  2  0  0  0  0
 50 51  1  0  0  0  0
 51 46  1  0  0  0  0
 49 52  1  0  0  0  0
 52 53  1  0  0  0  0
 53 54  2  0  0  0  0
 54 50  1  0  0  0  0
  1 53  1  0  0  0  0
 38 55  1  0  0  0  0
 38 56  1  0  0  0  0
 56 57  2  0  0  0  0
 57 58  1  0  0  0  0
 58 59  2  0  0  0  0
 59 60  1  0  0  0  0
 60 61  2  0  0  0  0
 61 56  1  0  0  0  0
 55 62  2  0  0  0  0
 62 63  1  0  0  0  0
 63 64  2  0  0  0  0
 64 65  1  0  0  0  0
 65 66  2  0  0  0  0
 66 55  1  0  0  0  0
 64 67  1  0  0  0  0
 67 68  1  0  0  0  0
 59 69  1  0  0  0  0
 69 70  1  0  0  0  0
 51 71  1  0  0  0  0
 51 72  1  0  0  0  0
 72 73  2  0  0  0  0
 73 74  1  0  0  0  0
 74 75  2  0  0  0  0
 75 76  1  0  0  0  0
 76 77  2  0  0  0  0
 77 72  1  0  0  0  0
 71 78  2  0  0  0  0
 78 79  1  0  0  0  0
 79 80  2  0  0  0  0
 80 81  1  0  0  0  0
 81 82  2  0  0  0  0
 82 71  1  0  0  0  0
 80 83  1  0  0  0  0
 83 84  1  0  0  0  0
 75 85  1  0  0  0  0
 85 86  1  0  0  0  0
  1 87  1  0  0  0  0
 13 88  1  0  0  0  0
 14 89  1  0  0  0  0
 15 90  1  0  0  0  0
 16 91  1  0  0  0  0
 18 92  1  0  0  0  0
 30 93  1  0  0  0  0
 31 94  1  0  0  0  0
 32 95  1  0  0  0  0
 33 96  1  0  0  0  0
 34 97  1  0  0  0  0
 41 98  1  0  0  0  0
 42 99  1  0  0  0  0
 47100  1  0  0  0  0
 48101  1  0  0  0  0
 54102  1  0  0  0  0
 57103  1  0  0  0  0
 58104  1  0  0  0  0
 60105  1  0  0  0  0
 61106  1  0  0  0  0
 62107  1  0  0  0  0
 63108  1  0  0  0  0
 65109  1  0  0  0  0
 66110  1  0  0  0  0
 67111  1  0  0  0  0
 67112  1  0  0  0  0
 68113  1  0  0  0  0
 68114  1  0  0  0  0
 68115  1  0  0  0  0
 69116  1  0  0  0  0
 69117  1  0  0  0  0
 70118  1  0  0  0  0
 70119  1  0  0  0  0
 70120  1  0  0  0  0
 73121  1  0  0  0  0
 74122  1  0  0  0  0
 76123  1  0  0  0  0
 77124  1  0  0  0  0
 78125  1  0  0  0  0
 79126  1  0  0  0  0
 81127  1  0  0  0  0
 82128  1  0  0  0  0
 83129  1  0  0  0  0
 83130  1  0  0  0  0
 84131  1  0  0  0  0
 84132  1  0  0  0  0
 84133  1  0  0  0  0
 85134  1  0  0  0  0
 85135  1  0  0  0  0
 86136  1  0  0  0  0
 86137  1  0  0  0  0
 86138  1  0  0  0  0
M  END
