114
NTz-Teh-FA.sdf
C          2.64180       -6.87230        1.72440
C          1.57490       -6.19710        2.44590
C          2.72300       -6.68990        0.35100
C          3.72930       -7.24240       -0.44960
C          4.70120       -8.00070        0.15720
C          4.63280       -8.18480        1.55620
C          3.64390       -7.64520        2.38110
C          5.73200       -8.94190        2.02410
C          5.84030       -9.17330        3.37310
C          4.86560       -8.62300        4.22500
C          3.80630       -7.87580        3.76570
C          5.90830       -8.67670       -0.28730
C          6.53920       -9.25590        0.85150
C          6.46790       -8.77200       -1.55340
C          7.66620       -9.45360       -1.64840
C          8.28580      -10.02830       -0.53120
C          7.73830       -9.94440        0.73660
C          8.52650       -9.70030       -2.82760
N          9.61860      -10.40890       -2.34780
C          9.54890      -10.65490       -0.98310
O          8.36870       -9.36770       -3.97610
C         10.70510      -10.86050       -3.18980
C         10.33030      -12.12930       -3.94730
O         10.38240      -11.25050       -0.34660
S          1.36560       -4.50230        2.12420
C         -0.00790       -4.42040        3.19020
C         -0.26000       -5.64910        3.74370
C          0.63050       -6.66210        3.32990
C          0.44230       -8.09790        3.71380
C         -0.81280       -8.66530        3.04800
C         -0.73070       -3.18480        3.31000
C         -1.97260       -3.08430        4.00560
C         -2.73420       -1.86170        3.98010
C         -2.28230       -0.71530        3.26540
C         -1.01700       -0.84260        2.65740
C         -0.28280       -2.03970        2.68900
C         -3.07340        0.44330        3.12210
C         -2.66950        1.52860        2.37200
C         -1.36480        1.45720        1.79990
C         -0.54540        0.29210        1.94410
N         -0.76590        2.39820        1.07930
S          0.68990        1.87050        0.62980
N          0.62280        0.41960        1.32460
N         -2.58340       -4.03100        4.70990
S         -3.97110       -3.44610        5.28670
N         -3.86730       -1.96440        4.66440
C         -3.50040        2.66270        2.07720
C         -4.76500        2.96660        2.52310
C         -5.32390        4.11430        1.93130
C         -4.48170        4.68000        1.00000
S         -2.97120        3.82310        0.90160
C         -6.70030        4.60190        2.26530
C         -6.73710        5.25020        3.65040
C         -4.66830        5.83270        0.13680
C         -5.10020        7.04800        0.64770
C         -5.19900        8.22060       -0.11460
C         -4.83940        8.17690       -1.44080
C         -4.42780        6.93520       -1.97660
C         -4.33980        5.74650       -1.25200
C         -4.10390        7.05330       -3.34740
C         -3.70750        5.93100       -4.03140
C         -3.66030        4.71260       -3.33360
C         -3.96390        4.60590       -1.99650
C         -4.75180        9.14040       -2.52790
C         -4.29620        8.45400       -3.69110
C         -5.01380       10.50340       -2.55400
C         -4.79860       11.15300       -3.75570
C         -4.34180       10.47770       -4.89520
C         -4.08590        9.11930       -4.88950
C         -4.95830       12.58240       -4.10730
N         -4.57670       12.68280       -5.43820
C         -4.19690       11.46580       -5.98680
O         -5.32550       13.50600       -3.42390
C         -4.59450       13.92070       -6.18690
C         -5.82770       14.01170       -7.07870
O         -3.82200       11.30690       -7.12220
H          1.96290       -6.08630       -0.12500
H          3.72880       -7.05660       -1.51300
H          6.65640       -9.74390        3.79050
H          4.96650       -8.78590        5.28850
H          3.10580       -7.44740        4.46660
H          6.00520       -8.33130       -2.42260
H          8.23300      -10.38680        1.58720
H         10.93750      -10.05720       -3.89440
H         11.56200      -11.04020       -2.53620
H         11.16330      -12.44660       -4.56820
H          9.46950      -11.94160       -4.58480
H         10.08790      -12.92790       -3.24970
H         -1.07520       -5.81180        4.42520
H          0.33800       -8.17190        4.79920
H          1.30680       -8.68800        3.40790
H         -0.71840       -8.61620        1.96520
H         -1.69350       -8.09980        3.34240
H         -0.95410       -9.70420        3.33600
H          0.66040       -2.04720        2.16270
H         -4.04350        0.43570        3.59310
H         -5.28960        2.37590        3.25290
H         -7.03100        5.31780        1.51110
H         -7.38900        3.75340        2.25390
H         -6.05570        6.09680        3.69860
H         -6.44060        4.53500        4.41390
H         -7.74120        5.60160        3.87590
H         -5.33350        7.10610        1.70030
H         -5.53010        9.13410        0.35660
H         -3.44830        5.96260       -5.07910
H         -3.37490        3.82230       -3.87530
H         -3.92340        3.63780       -1.52260
H         -5.36020       11.04040       -1.68460
H         -3.73390        8.61380       -5.77520
H         -4.58400       14.73420       -5.45760
H         -3.68730       13.95670       -6.79630
H         -5.83230       13.19070       -7.79180
H         -5.81800       14.95040       -7.62550
H         -6.73300       13.96450       -6.47760
