156
NTz-NP.sdf
C         -3.35700       -7.32190       -3.45150
S         -4.80690       -6.98700       -2.53690
C         -4.45230       -8.29930       -1.44980
C         -3.35370       -9.01060       -1.88020
C         -2.72440       -8.46750       -3.01180
C         -1.44700       -8.98260       -3.59570
C         -0.24750       -8.49450       -2.78030
C         -5.07630       -8.26130       -0.15620
C         -6.16540       -7.36410        0.05710
C         -6.46970       -6.85950        1.36300
C         -5.67110       -7.23740        2.47730
C         -4.79200       -8.32230        2.26630
C         -4.51020       -8.81430        0.97660
C         -5.59460       -6.43180        3.62610
C         -4.68540       -6.66250        4.63580
C         -3.98600       -7.90530        4.58950
C         -4.03660       -8.72470        3.40580
N         -3.17740       -8.41410        5.51030
S         -2.55300       -9.79420        4.95600
N         -3.26250       -9.79630        3.50840
N         -6.95160       -6.84050       -0.87470
S         -7.98840       -5.82340       -0.17480
N         -7.46650       -5.98400        1.34160
C         -4.26160       -5.61290        5.52350
C         -3.55100       -5.67200        6.69690
C         -3.03960       -4.43430        7.11970
C         -3.34000       -3.41620        6.23380
S         -4.34690       -3.97840        4.92440
C         -2.16780       -4.24680        8.31940
C         -0.70540       -4.53200        7.97000
C         -2.89660       -6.28750       -4.25580
C         -2.78770       -2.14740        6.14920
C         -2.57350       -5.19540       -4.68020
C         -2.22090       -1.10930        5.87360
C         -2.27140       -3.83580       -4.85140
C         -3.24950       -2.96920       -5.31780
C         -3.09710       -1.59380       -5.18980
C         -1.98440       -1.06470       -4.56160
C         -0.94040       -1.91530       -4.14450
C         -1.04880       -3.31520       -4.32940
C          0.20660       -1.38400       -3.51940
C          1.24400       -2.21810       -3.15760
C          1.15860       -3.59280       -3.38930
C          0.02660       -4.13570       -3.94370
C         -1.92540        0.37510       -4.27690
N         -0.84710        0.80190       -3.50670
C          0.27070        0.05060       -3.17600
O         -2.77230        1.15860       -4.65280
O          1.21480        0.54440       -2.59760
C         -0.92280        2.15440       -3.03110
C         -0.01050        3.11130       -3.45360
C         -0.18670        4.40950       -3.02590
C         -1.25690        4.74900       -2.18660
C         -2.13610        3.77920       -1.73690
C         -1.96170        2.47670       -2.16750
C         -1.24390        6.18790       -1.98270
C         -0.16940        6.72820       -2.70450
C          0.05400        8.08840       -2.70940
C         -0.80290        8.91040       -1.98930
C         -1.86180        8.37620       -1.27170
C         -2.09310        7.00990       -1.26140
C          0.62150        5.63440       -3.38160
C          2.04070        5.54530       -2.78550
C          0.70480        5.83810       -4.90390
C         -0.66740        5.90550       -5.56370
C          2.03970        5.51820       -1.26240
C         -1.42150       -0.02630        5.48520
C         -0.45310        0.48140        6.33970
C          0.45830        1.43090        5.89480
C          0.42690        1.88270        4.58780
C         -0.57510        1.42370        3.70740
C         -1.52920        0.47530        4.15140
C         -0.62710        1.88750        2.37620
C         -1.61940        1.44810        1.52470
C         -2.57300        0.53150        1.97200
C         -2.52460        0.04440        3.25480
C          1.47530        2.79490        4.10910
N          1.40350        3.15240        2.76920
C          0.40380        2.81040        1.87080
O          2.37980        3.19410        4.81320
O          0.41100        3.24280        0.73750
C          2.50670        3.91120        2.24980
C          3.39600        3.26160        1.40150
C          4.48400        3.95870        0.92080
C          4.66430        5.30150        1.29500
C          3.76950        5.93990        2.13720
C          2.68040        5.23440        2.61820
C          5.86910        5.80420        0.65790
C          6.42850        4.76940       -0.10260
C          7.59140        4.98040       -0.81320
C          8.19090        6.23160       -0.76240
C          7.63500        7.25580       -0.01140
C          6.46820        7.05220        0.70660
C          5.59670        3.50310        0.00220
C          5.10660        3.16350       -1.42480
C          6.49790        2.40710        0.62280
C          5.81070        1.28230        1.38730
C          3.99940        2.12790       -1.56020
H         -2.98220       -9.88190       -1.37010
H         -1.35060       -8.63460       -4.62610
H         -1.46310      -10.07450       -3.59930
H          0.67950       -8.85580       -3.21880
H         -0.31070       -8.85410       -1.75580
H         -0.22390       -7.40700       -2.75890
H         -3.72170       -9.54530        0.89160
H         -6.20040       -5.53770        3.64260
H         -3.38270       -6.59690        7.21820
H         -2.49190       -4.92690        9.10950
H         -2.25880       -3.22100        8.68230
H         -0.07700       -4.40730        8.84820
H         -0.36370       -3.84690        7.19690
H         -0.59460       -5.55020        7.60390
H         -4.15780       -3.37530       -5.73690
H         -3.86890       -0.91890       -5.52810
H          2.11360       -1.78660       -2.68510
H          1.98440       -4.23030       -3.11120
H         -0.05480       -5.20150       -4.10200
H          0.79830        2.83440       -4.11240
H         -2.95200        4.03130       -1.07610
H         -2.64920        1.70130       -1.85940
H          0.87980        8.51470       -3.26090
H         -0.64160        9.97890       -1.98690
H         -2.51410        9.03460       -0.71580
H         -2.91970        6.59710       -0.70210
H          2.62020        6.40500       -3.13280
H          2.51900        4.64030       -3.16520
H          1.27830        5.01590       -5.33750
H          1.24890        6.76400       -5.10400
H         -0.56250        6.06340       -6.63500
H         -1.21750        4.98120       -5.40290
H         -1.24950        6.72590       -5.14930
H          3.05780        5.44610       -0.88940
H          1.47350        4.67020       -0.88660
H          1.59820        6.42730       -0.86000
H         -0.39320        0.10750        7.35110
H          1.22630        1.80940        6.55250
H         -1.63100        1.82440        0.51230
H         -3.34740        0.19720        1.29780
H         -3.25260       -0.67730        3.59660
H          3.21110        2.23230        1.14230
H          3.91670        6.97170        2.41740
H          1.97020        5.70240        3.28250
H          8.03610        4.19030       -1.40050
H          9.10240        6.40910       -1.31460
H          8.11860        8.22170        0.01380
H          6.03620        7.84980        1.29240
H          4.75850        4.09540       -1.87870
H          5.97740        2.83210       -1.99720
H          7.10120        1.97710       -0.18010
H          7.18440        2.90240        1.31570
H          6.56590        0.58020        1.73760
H          5.28340        1.67030        2.25480
H          5.10910        0.73730        0.76330
H          4.28400        1.17500       -1.12460
H          3.07650        2.46810       -1.10190
H          3.79300        1.95680       -2.61440
