118
o-4TBC-4F.sdf
C         -2.44760        0.86890        0.18160
C         -2.53510        0.12560        1.34090
C         -1.54840       -0.86160        1.46090
C         -0.69470       -0.88530        0.36640
S         -1.10660        0.33280       -0.79120
C         -1.38120       -1.67340        2.67240
C          0.42150       -1.74110        0.12450
C         -0.13160       -1.71550        3.31260
C          0.01070       -2.43170        4.49480
C         -1.07610       -3.09620        5.02840
C         -2.31310       -3.06110        4.41460
C         -2.47620       -2.34410        3.23460
O          0.85810       -1.00690        2.71090
C          2.17990       -1.05740        3.21060
C          2.41070       -0.09990        4.37570
O         -3.65370       -2.25350        2.55640
C         -4.80310       -2.85750        3.12180
S          1.86760       -1.09090       -0.57070
C          2.67860       -2.62410       -0.42810
C          1.83450       -3.57390        0.11100
C          0.55700       -3.09050        0.41820
C         -0.53910       -3.93100        0.91090
C         -1.77370       -3.92120        0.24310
C         -2.81110       -4.71780        0.71400
C         -2.60640       -5.52830        1.81420
C         -1.38670       -5.57330        2.46230
C         -0.34230       -4.77480        2.01170
O          0.89420       -4.73380        2.57700
O         -1.82470       -3.14720       -0.87310
C          1.18220       -5.60270        3.65520
C          2.63840       -5.39490        4.04110
C         -3.01300       -3.08590       -1.63810
C         -4.03140       -2.11170       -1.05110
C          4.02630       -2.77410       -0.83930
C          4.80150       -3.93070       -0.76400
C          6.07670       -3.74430       -1.24790
C          6.33010       -2.44600       -1.70960
S          4.90770       -1.44890       -1.51640
C         -5.99640       -2.55390        2.22910
C          7.56790       -2.07280       -2.24130
C          7.99300       -0.86630       -2.74790
C          9.30710       -0.58840       -3.28820
C          9.30960        0.80620       -3.73640
C          8.05000        1.36860       -3.47110
C          7.18370        0.35070       -2.83930
O          6.03460        0.51580       -2.47370
C         10.37670       -1.44230       -3.37480
C         11.63090       -1.08740       -3.91530
C         10.40030       -2.78440       -2.94130
N         10.50960       -3.88010       -2.61280
N         12.67390       -0.86650       -4.34080
C         10.29510        1.57670       -4.33300
C          9.99130        2.89320       -4.64860
C          8.73720        3.44160       -4.38060
C          7.74630        2.67820       -3.78420
F          8.48890        4.71730       -4.70200
F         10.92990        3.65280       -5.22510
C         -3.27710        1.94280       -0.22940
C         -4.34850        2.49610        0.46630
C         -4.94630        3.55890       -0.18480
C         -4.36210        3.86170       -1.41080
S         -3.03530        2.75550       -1.73330
C         -4.63720        4.81910       -2.39810
C         -5.49600        5.89180       -2.41310
C         -5.66040        6.76390       -3.56250
C         -6.42140        7.93520       -3.12850
C         -6.80070        7.74930       -1.79050
C         -6.28360        6.45160       -1.29750
O         -6.48570        5.99580       -0.19120
C         -5.25730        6.52660       -4.85080
C         -4.62470        5.35460       -5.31890
C         -5.46940        7.42290       -5.92020
N         -5.60690        8.10830       -6.83060
N         -4.13280        4.43130       -5.79300
C         -6.78760        9.09440       -3.79470
C         -7.52710       10.03890       -3.09840
C         -7.90280        9.84280       -1.76940
C         -7.54070        8.68660       -1.09770
F         -8.61800       10.78190       -1.13670
F         -7.88560       11.16790       -3.72110
H         -3.27860        0.29790        2.09640
H          0.95660       -2.47580        5.00820
H         -0.96070       -3.64620        5.95110
H         -3.13610       -3.59280        4.86170
H          2.44700       -2.08670        3.47650
H          2.80040       -0.75280        2.36190
H          3.45530       -0.13230        4.67300
H          1.79100       -0.35890        5.23040
H          2.16300        0.91320        4.06930
H         -4.65540       -3.94260        3.19960
H         -4.97860       -2.45090        4.12740
H          2.12150       -4.59710        0.26660
H         -3.77550       -4.71950        0.23400
H         -3.41510       -6.15000        2.17020
H         -1.26350       -6.22240        3.31320
H          0.52670       -5.37590        4.50640
H          1.01940       -6.64600        3.35150
H          2.79870       -4.36990        4.36360
H          3.28280       -5.59140        3.18860
H          2.90510       -6.06680        4.85170
H         -2.68550       -2.74260       -2.62340
H         -3.44470       -4.08700       -1.75280
H         -5.00880       -2.27740       -1.49610
H         -4.09380       -2.24140        0.02650
H         -3.73060       -1.08680       -1.24850
H          4.43510       -4.86190       -0.37210
H          6.82930       -4.51280       -1.28080
H         -6.90570       -2.91180        2.70360
H         -6.07840       -1.48260        2.06700
H         -5.88740       -3.04300        1.26580
H          8.28700       -2.88310       -2.24910
H         11.27930        1.20310       -4.56230
H          6.77460        3.09650       -3.57550
H         -4.66830        2.12780        1.42380
H         -5.77860        4.11440        0.20550
H         -4.03520        4.68990       -3.29020
H         -6.52100        9.29640       -4.81890
H         -7.82700        8.52940       -0.07000
