119
o-IO1.sdf
C        -10.27940        1.97450        2.87140
O         -9.17460        2.26600        2.44590
C        -11.46070        2.86350        2.90490
C        -11.56270        4.17420        2.48540
C        -12.79100        4.80050        2.62820
C        -13.87580        4.11860        3.17710
C        -13.77220        2.79990        3.59750
C        -12.54790        2.16680        3.45840
C        -12.11230        0.80950        3.79850
C        -12.91680       -0.15940        4.34480
C        -14.27930        0.02800        4.65810
N        -15.38970        0.11220        4.93720
C        -12.52090       -1.47270        4.67080
N        -12.28400       -2.55840        4.96370
C        -10.71500        0.70450        3.44580
F        -12.93570        6.07300        2.23580
F        -15.05030        4.74760        3.30510
C          6.56930        2.28090       -6.40420
O          5.60530        2.16900       -5.66870
C          6.59620        2.98960       -7.70170
C          5.56260        3.63790       -8.34710
C          5.83840        4.22450       -9.57190
C          7.11880        4.15530      -10.12000
C          8.15740        3.50490       -9.46920
C          7.88990        2.91490       -8.24410
C          8.74460        2.16250       -7.32250
C         10.07940        1.91330       -7.51550
C         10.92200        1.20250       -6.63560
N         11.67750        0.64000       -5.97770
C         10.81030        2.34750       -8.64160
N         11.46280        2.66790       -9.53000
C          7.92070        1.75690       -6.20400
F          4.86580        4.86220      -10.23580
F          7.35680        4.72850      -11.30550
C         -9.91500       -0.40330        3.63370
C         -8.56670       -0.60280        3.34050
C         -7.91570       -1.81060        3.62950
C         -6.57990       -1.82500        3.27640
C         -6.16740       -0.61150        2.69200
S         -7.46140        0.53270        2.60170
C         -4.87050       -0.33010        2.22550
S         -3.58220       -1.50680        2.39370
C         -2.49750       -0.42490        1.62260
C         -3.10060        0.77150        1.25000
C         -4.43970        0.83410        1.59830
C         -1.12930       -0.44300        1.21720
C         -0.87630        0.77960        0.54810
C         -2.09450        1.68310        0.59650
C         -0.15450       -1.42880        1.35930
C          1.07990       -1.18750        0.80290
C          1.30150       -0.00620        0.05370
C          0.33440        0.98880       -0.07080
C          2.31890       -2.06430        0.81030
C          3.21920       -1.29250       -0.11900
C          2.60970       -0.11050       -0.51120
C          4.49490       -1.45250       -0.64580
C          4.85760       -0.40290       -1.47550
S          3.58920        0.80960       -1.57480
C          6.03170       -0.21850       -2.25500
S          5.92600        0.79210       -3.66160
C          7.60190        0.50340       -4.04580
C          8.17290       -0.33210       -3.08110
C          7.31530       -0.75250       -2.08020
C          8.32460        0.97810       -5.14370
O         -5.67590       -2.81430        3.41420
C         -6.11240       -4.04610        3.96610
C         -4.92390       -4.99180        3.97420
C         -2.54480        2.14660       -0.79540
C         -2.88720        0.97980       -1.71450
C         -1.87460        2.87760        1.55570
C         -0.75770        3.83710        1.16860
C          2.03600       -3.48320        0.29600
C          1.48930       -3.48850       -1.12700
C          2.99880       -2.08230        2.19970
C          2.16850       -2.66860        3.33330
C          7.77730       -1.59500       -0.93070
C          7.73180       -0.82180        0.38780
H        -10.72060        4.69770        2.06180
H        -14.64160        2.31960        4.01520
H          4.57420        3.68750       -7.91910
H          9.12740        3.48000       -9.93750
H        -10.38480       -1.26750        4.08650
H         -8.44050       -2.63000        4.08710
H         -5.10610        1.65750        1.41370
H         -0.39010       -2.34880        1.87100
H          0.54110        1.87210       -0.65480
H          5.11640       -2.31060       -0.47460
H          9.20960       -0.61910       -3.13130
H          9.35610        0.64780       -5.14730
H         -6.48370       -3.88310        4.98650
H         -6.92800       -4.45600        3.35590
H         -5.21760       -5.94900        4.39440
H         -4.11910       -4.57000        4.56980
H         -4.56210       -5.14090        2.96060
H         -1.74790        2.73540       -1.25040
H         -3.41960        2.78990       -0.68180
H         -2.02730        0.32510       -1.83940
H         -3.70810        0.39450       -1.30640
H         -3.18340        1.34960       -2.69310
H         -2.81660        3.42700        1.61740
H         -1.66140        2.47430        2.54920
H         -0.92960        4.27270        0.18830
H          0.20490        3.33300        1.16850
H         -0.71460        4.64720        1.89320
H          2.96280       -4.05980        0.33300
H          1.31290       -3.96330        0.95580
H          1.28300       -4.50780       -1.44460
H          0.56600       -2.91620       -1.18400
H          2.20580       -3.05220       -1.81930
H          3.26390       -1.05320        2.45590
H          3.92800       -2.64910        2.10460
H          1.88360       -3.69660        3.12680
H          2.75550       -2.65980        4.24910
H          1.27160       -2.07910        3.50160
H          7.16950       -2.49810       -0.85330
H          8.80420       -1.90830       -1.12650
H          8.09970       -1.44380        1.20010
H          6.71660       -0.51070        0.62040
H          8.35680        0.06560        0.32230
