150
O-NTNC.sdf
C          0.55360       -6.12070       -2.00370
C         -0.06840       -6.96900       -2.88260
C         -1.04210       -6.62850       -3.94500
C         -1.69980       -7.90030       -4.29970
C         -1.09270       -8.96820       -3.58220
C         -0.02420       -8.41510       -2.75890
O         -1.29280       -5.54400       -4.43140
C          0.89840       -9.15010       -2.05870
C          2.00090       -8.62130       -1.35560
C          0.89380      -10.55820       -1.99120
N          2.93400       -8.27350       -0.78280
N          0.94030      -11.70130       -1.89090
C         -2.74140       -8.10600       -5.15660
C         -3.23990       -9.41670       -5.33150
C         -2.64140      -10.49090       -4.61260
C         -1.55800      -10.24660       -3.73690
C          1.05500        4.89300        3.68770
C          0.80590        6.21280        4.08070
C          0.28940        7.27410        3.37780
C         -0.13830        7.24540        1.97530
C         -0.68800        8.57900        1.68520
C         -0.58220        9.38910        2.85140
C          0.03850        8.59800        3.91110
O         -0.06260        6.31110        1.19420
C          0.32410        9.05880        5.17230
C          0.93620        8.32140        6.20590
C          0.04360       10.36700        5.61750
N          1.43010        7.79710        7.10170
N         -0.15770       11.41260        6.04800
C         -1.23340        9.04580        0.52520
C         -1.71230       10.37460        0.47640
C         -1.61250       11.19240        1.63800
C         -1.03940       10.67930        2.82530
C          1.53290        3.92930        4.58900
C          1.66510        2.68640        4.01380
C          1.31600        2.67910        2.65950
S          0.80160        4.20640        2.08920
C          2.10700        1.31290        4.44910
C          1.89280        0.52930        3.16650
C          1.44200        1.35610        2.13360
C          2.04810       -0.83900        2.96990
C          1.75050       -1.37530        1.74000
C          1.31250       -0.56680        0.67390
C          1.16480        0.83950        0.84660
C          0.99020       -1.08860       -0.60000
C          0.60460       -0.25410       -1.65330
C          0.48830        1.11950       -1.46640
C          0.75350        1.65210       -0.22710
C          0.92170       -2.43330       -1.07760
C          0.47120       -2.45890       -2.39740
C          0.31050       -1.05170       -2.91090
S          1.16850       -4.00220       -0.44980
C          0.60700       -4.71730       -1.96540
C          0.29930       -3.73560       -2.90190
C         -2.28880       10.91320       -0.69020
C         -2.74840       12.20230       -0.71270
C         -2.65090       13.00850        0.43070
C         -2.09540       12.51520        1.58010
C         -4.31950       -9.69020       -6.19380
C         -4.79150      -10.96630       -6.34120
C         -4.20260      -12.02500       -5.63420
C         -3.15150      -11.79300       -4.78930
C          1.34810       -0.85880       -4.00590
C         -1.08330       -0.71390       -3.40120
C         -2.19120       -1.42120       -2.95770
C         -3.46000       -1.07410       -3.38420
C         -3.65530       -0.01180       -4.25580
C         -2.54370        0.70130       -4.68600
C         -1.27370        0.35780       -4.26480
C         -5.03620        0.39180       -4.68590
C         -5.58470        1.48410       -3.76560
C          1.11170       -1.41410       -5.25820
C          2.04730       -1.29180       -6.26640
C          3.24300       -0.61680       -6.05230
C          3.47810       -0.07610       -4.79620
C          2.54550       -0.19640       -3.78090
C          4.27690       -0.52070       -7.13690
C          5.23470       -1.71200       -7.06940
C          3.56030        1.40950        4.87690
C          1.23740        0.69520        5.52790
C         -0.08130        1.09320        5.69740
C         -0.87940        0.48800        6.65050
C         -0.38640       -0.53290        7.45160
C          0.92920       -0.93810        7.26720
C          1.73170       -0.33550        6.31750
C         -1.26770       -1.21940        8.45470
C         -1.97200       -2.41740        7.81440
C          4.60040        1.06120        4.02840
C          5.91430        1.20140        4.43940
C          6.22140        1.69650        5.69870
C          5.17500        2.05890        6.53830
C          3.86210        1.92050        6.13390
C          7.64790        1.88670        6.12660
C          8.12520        3.29880        5.78110
H          1.04220       -6.59010       -1.15660
H         -3.18380       -7.27810       -5.69070
H         -1.13090      -11.07960       -3.20150
H          1.05120        6.39360        5.12040
H         -1.30100        8.40920       -0.34460
H         -0.98080       11.32560        3.68620
H          1.74630        4.16890        5.61550
H          2.38900       -1.46850        3.77740
H          1.85580       -2.43730        1.57520
H          0.17970        1.75360       -2.28310
H          0.65020        2.71400       -0.06210
H         -0.05160       -3.97240       -3.88810
H         -2.36140       10.28720       -1.56780
H         -3.18950       12.60720       -1.61130
H         -3.01820       14.02330        0.39680
H         -2.01790       13.13230        2.46330
H         -4.76910       -8.87060       -6.73540
H         -5.62110      -11.16680       -7.00280
H         -4.58640      -13.02610       -5.76210
H         -2.69400      -12.60500       -4.24330
H         -2.06550       -2.25390       -2.28140
H         -4.31090       -1.64210       -3.03610
H         -2.67330        1.53330       -5.36370
H         -0.42100        0.91740       -4.62240
H         -5.00970        0.76620       -5.71140
H         -5.70140       -0.47330       -4.65500
H         -5.62410        1.12800       -2.73850
H         -4.94460        2.36290       -3.79740
H         -6.58730        1.77280       -4.07260
H          0.18450       -1.93580       -5.44420
H          1.84590       -1.72530       -7.23560
H          4.40310        0.44980       -4.60640
H          2.75490        0.23330       -2.81220
H          4.84590        0.40470       -7.02550
H          3.78880       -0.50670       -8.11350
H          5.98350       -1.64350       -7.85510
H          4.68780       -2.64440       -7.19040
H          5.74130       -1.73610       -6.10720
H         -0.48920        1.88330        5.08370
H         -1.90170        0.81640        6.77410
H          1.33230       -1.73410        7.87710
H          2.75550       -0.66000        6.19820
H         -2.01710       -0.51970        8.83000
H         -0.66820       -1.56430        9.29950
H         -2.58590       -2.09230        6.97730
H         -2.60950       -2.91670        8.54020
H         -1.24080       -3.13240        7.44370
H          4.38850        0.67460        3.04210
H          6.71280        0.91790        3.76830
H          5.39160        2.45200        7.52120
H          3.06100        2.19880        6.80330
H          8.28630        1.15760        5.62380
H          7.73460        1.73210        7.20400
H          7.50790        4.04040        6.28300
H          9.15800        3.43810        6.09190
H          8.05860        3.46850        4.70870
