158
ORCN.sdf
C          1.08520       -1.23620       -1.13240
C          0.82030       -1.43550        0.24360
C         -0.47570       -1.60000        0.72680
C         -1.50240       -1.49930       -0.18160
C         -1.24060       -1.25980       -1.55220
C          0.05870       -1.14460       -2.04200
C          2.57720       -1.07310       -1.37970
C          3.10560       -1.09770        0.03300
C          2.07220       -1.35080        0.92350
C          4.33760       -0.92210        0.65030
C          4.24350       -1.01870        2.03090
S          2.60510       -1.37630        2.55400
C         -2.99780       -1.59870        0.07430
C         -3.54290       -1.26850       -1.29140
C         -2.50410       -1.11470       -2.20100
C         -4.79270       -1.02840       -1.84310
C         -4.70940       -0.70080       -3.18900
S         -3.05770       -0.71020       -3.77530
C         -3.54300       -0.59710        1.07130
C         -3.28170       -3.03040        0.49900
C          3.20220       -2.24310       -2.11870
C          2.81040        0.23780       -2.10340
C          6.55160       -0.38710        5.09610
C          6.85700       -0.23840        6.45850
C          7.96790        0.25980        7.08280
C         -9.21380        0.81830       -5.38960
C        -10.31200        1.01240       -4.59810
C        -10.44110        0.81460       -3.17600
N        -11.69820        1.20660       -2.73110
C        -12.55510        1.66030       -3.68190
S        -11.81530        1.63050       -5.26520
C          9.19740        0.82630        6.56180
N         10.01720        1.26060        7.60040
C          9.54730        1.08510        8.86170
S          7.98030        0.31850        8.84390
C         11.26840        1.91740        7.27080
O          9.53830        0.94200        5.39960
C         10.14510        1.41650       10.05360
C         11.39470        2.03350       10.22550
C          9.47580        1.13330       11.26200
C          2.52780       -3.44000       -2.30830
C          3.14810       -4.49780       -2.94940
C          4.45280       -4.39060       -3.40960
C          5.12800       -3.19360       -3.20470
C          4.51370       -2.13430       -2.56650
C          3.01050        1.41870       -1.40240
C          3.17550        2.61520       -2.07550
C          3.13270        2.66670       -3.46210
C          2.92040        1.48430       -4.15890
C          2.75800        0.28550       -3.49100
C         -4.82450       -0.77800        1.57920
C         -5.36940        0.14090        2.45400
C         -4.65430        1.26780        2.84070
C         -3.38100        1.45030        2.32040
C         -2.83180        0.53510        1.43970
C         -3.60980       -4.00670       -0.43080
C         -3.81590       -5.31480       -0.03230
C         -3.68920       -5.68480        1.29930
C         -3.35270       -4.70550        2.22520
C         -3.14760       -3.39680        1.83260
O         -9.59380        0.37770       -2.41580
C        -12.01590        1.06380       -1.32240
C        -13.84080        2.11920       -3.52730
C        -14.56290        2.20460       -2.32610
C        -14.55410        2.56460       -4.65900
N         12.40380        2.54050       10.43800
N          8.93830        0.91320       12.25140
N        -15.13890        2.93350       -5.57460
N        -15.21310        2.29780       -1.38320
C         -5.23010        2.23580        3.83360
C         -3.95850       -7.09630        1.73510
C          3.36140        3.95940       -4.19110
C          5.13720       -5.55590       -4.06430
C          5.84970       -6.41380       -3.01670
C          4.85290        4.15880       -4.46820
C         -5.43160       -7.26770        2.11160
C         -4.92980        1.77740        5.26220
C         11.12220        3.43460        7.27670
C        -12.76580       -0.23340       -1.04470
C          7.29560       -0.17660        3.94570
C          6.58780       -0.40230        2.76740
C          5.25700       -0.79570        2.99170
S          4.93150       -0.90880        4.68640
C         -5.77130       -0.32980       -4.03940
S         -7.38060       -0.07870       -3.45610
C         -7.92360        0.39350       -5.04570
C         -6.87590        0.33280       -5.96760
C         -5.66720       -0.05840       -5.41210
O          7.04470       -0.28740        1.50080
C          8.34690        0.24230        1.29800
O         -4.46530       -0.19770       -6.00930
C         -4.36310        0.11550       -7.38710
C         -2.91310       -0.08090       -7.79530
C          8.40900        1.74970        1.51350
H         -0.65480       -1.76440        1.77800
H          0.23860       -0.96620       -3.09090
H          5.26380       -0.71180        0.15190
H         -5.73140       -1.06800       -1.32100
H          6.06190       -0.55210        7.12600
H         -9.34330        1.05290       -6.44030
H         12.03960        1.59680        7.97250
H         11.52830        1.57560        6.26500
H          1.51200       -3.55010       -1.95790
H          2.60580       -5.42130       -3.09460
H          6.14650       -3.09020       -3.55130
H          5.05070       -1.20800       -2.42230
H          3.04040        1.40540       -0.32260
H          3.33540        3.52440       -1.51320
H          2.87940        1.50220       -5.23890
H          2.60060       -0.62400       -4.05280
H         -5.39370       -1.65020        1.29190
H         -6.36640       -0.01640        2.84030
H         -2.80970        2.32330        2.60270
H         -1.84310        0.70630        1.03970
H         -3.70920       -3.74700       -1.47450
H         -4.07600       -6.06030       -0.77050
H         -3.24660       -4.97170        3.26730
H         -2.89320       -2.65010        2.57060
H        -11.05410        1.05290       -0.80190
H        -12.59620        1.92790       -0.99520
H         -4.80190        3.22770        3.67620
H         -6.31140        2.30460        3.69830
H         -3.71150       -7.78690        0.92620
H         -3.33590       -7.34300        2.59740
H          2.81750        3.95230       -5.13780
H          2.99240        4.79360       -3.59100
H          5.86790       -5.19580       -4.79140
H          4.40320       -6.16850       -4.59160
H          6.59280       -5.82280       -2.48580
H          5.13490       -6.79480       -2.29070
H          6.34850       -7.25670       -3.48940
H          5.02110        5.09530       -4.99480
H          5.41110        4.17980       -3.53490
H          5.23640        3.34340       -5.07760
H         -5.69340       -6.59910        2.92860
H         -5.62880       -8.29090        2.42280
H         -6.06860       -7.03390        1.26140
H         -3.85550        1.71680        5.42180
H         -5.35800        0.79380        5.44170
H         -5.34930        2.47570        5.98270
H         10.84420        3.79720        8.26350
H         10.36500        3.74120        6.55840
H         12.07000        3.88770        7.00230
H        -13.72150       -0.25190       -1.56300
H        -12.16970       -1.08570       -1.36320
H        -12.95470       -0.31670        0.02130
H          8.31960        0.13960        4.00040
H         -7.02140        0.58650       -7.00220
H          9.07190       -0.27180        1.93860
H          8.56890        0.00210        0.25470
H         -4.67350        1.15570       -7.55560
H         -5.02040       -0.54620       -7.96760
H         -2.27280        0.57360       -7.21050
H         -2.79190        0.14600       -8.85040
H         -2.61340       -1.10890       -7.61210
H          7.65950        2.24360        0.89930
H          8.22950        2.00190        2.55540
H          9.39290        2.11390        1.23270
