152
P_NDI2OD-2FT_.sdf
C          8.78150       -2.50900        2.92310
C          8.59570       -1.53330        1.96170
C          7.92100       -0.34240        2.28560
C          7.41820       -0.14400        3.59340
C          7.61670       -1.16130        4.54970
C          8.29550       -2.31800        4.21420
C          7.72010        0.65880        1.31490
C          7.09210        1.83080        1.65970
C          6.63690        2.06960        2.97210
C          6.74880        1.05440        3.92700
C          6.07840        1.14930        5.24210
N          6.33100        0.12820        6.14500
C          7.10500       -0.99540        5.92230
C          9.10390       -1.74390        0.59000
N          8.88050       -0.72030       -0.31680
C          8.20880        0.46310       -0.06690
C          5.71900        0.25710        7.46610
C          6.60110        1.07310        8.40150
O          7.31790       -1.79960        6.80410
O          5.30520        2.03740        5.53310
C          9.36660       -0.92690       -1.67960
C          8.30760       -1.60180       -2.54100
O          8.04780        1.29090       -0.93680
O          9.69030       -2.75240        0.26220
C          6.11890        3.39270        3.26180
C          6.45230        4.23040        4.29590
C          5.83960        5.47850        4.17770
C          5.02820        5.62780        3.06830
S          5.04950        4.16810        2.13580
C          4.27640        6.77160        2.68050
C          3.42200        6.90010        1.60090
C          2.82070        8.15200        1.47130
C          3.21340        9.01810        2.46120
S          4.34140        8.26930        3.54800
F          6.02800        6.46780        5.06100
F          3.20560        5.89650        0.74020
C          2.90820       10.42780        2.58930
C          1.62980       10.96730        2.40480
C          1.46770       12.36670        2.34650
C          2.56600       13.23790        2.54920
C          3.82120       12.66740        2.84810
C          3.97840       11.30220        2.85460
C          0.20590       12.93970        2.08050
C          0.07800       14.30070        1.93550
C          1.17830       15.16830        2.06150
C          2.41400       14.63540        2.44570
C          3.53110       15.50780        2.86820
N          4.73790       14.88550        3.14990
C          4.99020       13.52850        3.11020
C          0.42410       10.11120        2.39530
N         -0.77900       10.72950        2.09200
C         -0.98290       12.08310        1.90710
C          5.85520       15.75640        3.50950
C          6.58160       16.25530        2.26760
O          6.10160       13.08460        3.30130
O          3.41860       16.70560        3.01980
C         -1.96260        9.87330        2.04040
C         -2.61920        9.76300        3.40990
O         -2.07540       12.52710        1.62820
O          0.44330        8.93030        2.67090
C          0.98250       16.56160        1.71900
C          1.75460       17.33820        0.89160
C          1.19700       18.59980        0.68590
C          0.00210       18.82410        1.34480
S         -0.44630       17.40410        2.22990
C         -0.78750       20.00750        1.33320
C         -1.94210       20.27350        2.04530
C         -2.48870       21.54000        1.83040
C         -1.75410       22.27240        0.93300
S         -0.38690       21.37610        0.34960
F          1.76390       19.52600       -0.09880
F         -2.49460       19.37290        2.86880
C         -2.04740       23.57280        0.36250
C         -2.42810       24.69110        1.11150
C         -2.83000       25.86930        0.44850
C         -2.79180       25.96340       -0.96450
C         -2.32760       24.84670       -1.69070
C         -1.97550       23.69000       -1.03740
C         -3.27270       26.99450        1.17600
C         -3.71530       28.11660        0.51780
C         -3.73010       28.20180       -0.88720
C         -3.20170       27.13840       -1.62900
C         -2.93420       27.26220       -3.07880
N         -2.51860       26.11510       -3.73900
C         -2.25240       24.88950       -3.16310
C         -2.29650       24.71220        2.58460
N         -2.79170       25.82800        3.24080
C         -3.29880       26.96960        2.65100
C         -2.35080       26.21620       -5.18730
C         -3.66810       25.95930       -5.90700
O         -1.95580       23.92420       -3.83330
O         -3.01870       28.30880       -3.68540
C         -2.69840       25.82810        4.69960
C         -1.37690       26.42590        5.16360
O         -3.72640       27.88890        3.31460
O         -1.75770       23.82920        3.21760
C         -4.33130       29.37710       -1.48110
C         -5.22610       29.45080       -2.51820
C         -5.64990       30.75940       -2.75510
C         -5.10020       31.71180       -1.91890
S         -4.04110       30.94280       -0.78560
C         -5.31520       33.12090       -1.93040
C         -4.77220       34.07020       -1.09210
C         -5.17560       35.38910       -1.35820
C         -6.03500       35.44130       -2.41110
S         -6.35830       33.89670       -3.08380
F         -6.53220       31.07250       -3.71480
F         -3.92550       33.75510       -0.10060
H          9.30520       -3.41320        2.65300
H          8.43620       -3.06940        4.97660
H          6.96820        2.59380        0.90470
H          5.58140       -0.75150        7.85840
H          4.75200        0.74510        7.33310
H          7.57060        0.59460        8.51790
H          6.12800        1.14540        9.37650
H          6.74130        2.07700        8.00780
H         10.25960       -1.55060       -1.61570
H          9.61950        0.05330       -2.08690
H          8.04880       -2.57360       -2.12710
H          8.69190       -1.74220       -3.54720
H          7.41400       -0.98420       -2.59120
H          7.11250        3.97160        5.10180
H          2.14070        8.40010        0.67860
H          4.96290       10.90000        3.04660
H         -0.89490       14.70260        1.69100
H          6.53090       15.17260        4.13600
H          5.44760       16.59620        4.07470
H          6.96650       15.41560        1.69370
H          7.41410       16.88750        2.56240
H          5.90690       16.83740        1.64420
H         -1.64150        8.88970        1.69440
H         -2.65210       10.32010        1.32220
H         -1.92420        9.33000        4.12540
H         -3.49520        9.12440        3.34340
H         -2.92830       10.74540        3.75930
H          2.67550       17.01940        0.44110
H         -3.38370       21.88580        2.31190
H         -1.65300       22.84540       -1.62930
H         -4.07860       28.94660        1.10700
H         -1.60750       25.47310       -5.47920
H         -1.98620       27.22100       -5.40670
H         -4.04280       24.96790       -5.66330
H         -3.51500       26.02040       -6.98050
H         -4.40720       26.70300       -5.61830
H         -2.78400       24.79320        5.03410
H         -3.53600       26.41760        5.07600
H         -0.54460       25.84390        4.77510
H         -1.33380       26.41590        6.24880
H         -1.28750       27.45370        4.81960
H         -5.57440       28.60860       -3.08540
H         -4.83830       36.23670       -0.79180
H         -6.50220       36.30660       -2.83580
