58
P(NDI2OD-T2).sdf
C          5.67300       -2.62430        7.15200
C          4.45700       -1.92150        6.66780
S          3.96860       -2.04640        5.01080
C          2.59490       -1.01030        5.28620
C          2.54880       -0.60890        6.59900
C          3.60120       -1.12670        7.37230
C          1.69720       -0.67470        4.23070
C          0.57100        0.11900        4.29940
C         -0.07110        0.27510        3.07120
C          0.54210       -0.39590        2.04060
S          1.93700       -1.26050        2.61790
C          0.11580       -0.54580        0.66930
C         -0.43180        0.48870       -0.10240
C         -0.32610        1.90240        0.30850
O          0.35290        2.28440        1.23900
N         -1.01250        2.83240       -0.46290
C         -0.98340        4.21660        0.00200
C         -2.08300        4.47250        1.02430
C         -1.71260        2.57560       -1.62390
O         -2.33300        3.44840       -2.19550
C         -1.62310        1.19570       -2.12900
C         -0.98670        0.19470       -1.36760
C         -0.93460       -1.11320       -1.90780
C         -0.28920       -2.11410       -1.15070
C          0.21290       -1.82840        0.09530
C         -0.17330       -3.48860       -1.66910
O          0.36860       -4.38100       -1.05130
N         -0.72340       -3.70800       -2.91560
C         -0.63520       -5.06700       -3.44400
C         -1.85480       -5.88860       -3.04690
C         -1.39690       -2.77820       -3.69650
O         -1.86280       -3.12350       -4.76350
C         -1.49590       -1.40220       -3.17100
C         -2.12940       -0.39500       -3.90270
C         -2.17960        0.89210       -3.35190
C         -2.75030       -0.62150       -5.23670
H          5.61440       -3.69020        6.93400
H          5.77910       -2.48830        8.22570
H          6.56370       -2.23370        6.65930
H          1.78480        0.03650        6.99200
H          3.72340       -0.91790        8.42040
H          0.22780        0.57340        5.21050
H         -0.97010        0.84940        2.94160
H         -1.12250        4.85410       -0.87230
H         -0.00240        4.39380        0.44640
H         -1.94190        3.83690        1.89550
H         -3.05780        4.26910        0.58680
H         -2.05200        5.51070        1.34200
H          0.67520       -2.62910        0.65520
H         -0.56430       -4.99410       -4.53040
H          0.27290       -5.51320       -3.03570
H         -1.76280       -6.89500       -3.44480
H         -1.93190       -5.94600       -1.96360
H         -2.75910       -5.43570       -3.44670
H         -2.66700        1.69020       -3.89320
H         -3.52770       -1.38090       -5.17070
H         -2.01240       -1.00220       -5.94090
H         -3.17670        0.30120       -5.62130
