236
PF2-DTSi.sdf
C          3.27740       -0.50420        3.34300
C          1.94680       -0.98560        3.38550
C          1.65300       -2.23790        2.89640
C          2.70520       -2.98350        2.36840
C          4.03040       -2.48970        2.29170
C          4.32790       -1.25120        2.81260
C          2.71960       -4.29650        1.80990
C          3.99340       -4.63410        1.36100
C          4.95060       -3.49570        1.61580
C          3.25180        0.82710        3.86040
C          1.95350        1.20890        4.17730
C          1.00070        0.06470        3.94220
S          1.57410       -5.53310        1.54540
C          2.80680       -6.52240        0.76740
C          4.04010       -5.87940        0.75260
S          4.39840        2.06120        4.16170
C          3.10490        3.14910        4.65970
C          1.87090        2.51440        4.64200
C          6.07740       -3.88930        2.59000
C          5.45470       -2.99430        0.24500
C          6.41620       -1.81400        0.27640
C          7.05420       -4.93010        2.05850
C         -0.05490        0.38190        2.86320
C          0.40030       -0.33050        5.30830
C         -1.00940        1.52060        3.19750
C         -0.48480       -1.56920        5.30310
C          3.44120        4.48830        4.95970
C          2.35730       -7.75000        0.24770
C          3.03840       -8.81190       -0.27880
C          2.66490        5.58810        4.72260
C          1.49240        5.60920        3.81850
C          1.42710        7.00010        3.32730
C          2.33320        7.80820        4.03900
C          3.06060        6.96510        4.97400
C          4.49350       -9.07980       -0.26600
C          4.62850      -10.51510       -0.58910
C          3.36500      -11.06300       -0.87100
C          2.36850      -10.00080       -0.78010
C          0.68780        7.48270        2.27890
C          0.85100        8.81930        1.88170
C          1.69500        9.64220        2.64210
C          2.42810        9.15550        3.71150
C          5.77540      -11.28420       -0.62540
C          5.65290      -12.62960       -0.94210
C          4.40730      -13.17960       -1.21000
C          3.25250      -12.40890       -1.18080
O          0.76630        4.69780        3.48310
O          5.40740       -8.31510       -0.02890
C          1.06970      -10.08430       -1.20210
C          3.93240        7.38260        5.94550
C          4.26540        8.73380        6.16480
C          4.55470        6.51220        6.86390
C          0.47080      -11.26650       -1.68500
C          0.17490       -8.99820       -1.29610
N          4.56770        9.82140        6.37490
N          5.06990        5.85000        7.64780
N         -0.58900       -8.16020       -1.48060
N         -0.07180      -12.19420       -2.08830
C          0.24090        9.25530        0.65100
C          0.09560       10.50960        0.09200
C         -0.42410       10.49020       -1.20760
C         -0.65860        9.19100       -1.63120
S         -0.29730        8.00800       -0.45090
Si        -0.80900       11.63620       -2.67490
C         -1.22430       10.13150       -3.76140
C         -1.06460        9.00330       -2.97020
C         -1.52840        9.78140       -5.08530
C         -1.56550        8.42060       -5.29960
S         -1.26760        7.53540       -3.82150
C          0.76530       12.51550       -3.29840
C         -2.28660       12.79440       -2.36130
C         -2.69270       13.56670       -3.61130
C          1.94600       11.56380       -3.46990
C         -1.13740       -3.32120       -3.51840
C         -0.39250       -2.14640       -3.24650
C         -0.24680       -1.17810       -4.20880
C         -0.87810       -1.39300       -5.43210
C         -1.59400       -2.57860       -5.72350
C         -1.72530       -3.55560       -4.76130
C         -1.07110       -0.49700       -6.52380
C         -1.90000       -1.07370       -7.48690
C         -2.20410       -2.50570       -7.11490
C         -1.20260       -4.06210       -2.29580
C         -0.55870       -3.36400       -1.27510
C          0.08790       -2.12060       -1.80890
S         -0.68600        1.13300       -6.83130
C         -1.70370        1.10120       -8.26800
C         -2.23520       -0.18180       -8.48360
S         -1.90390       -5.51800       -1.74760
C         -1.39330       -5.15890       -0.10320
C         -0.68180       -3.96420       -0.03870
C         -1.44930       -3.41390       -8.11410
C         -3.71120       -2.79590       -7.10880
C         -4.48660       -1.83950       -6.20970
C         -1.47420       -4.90160       -7.79030
C         -0.37850       -0.86120       -1.05920
C          1.62500       -2.22720       -1.72260
C         -1.89380       -0.70580       -1.04140
C          2.17360       -3.50020       -2.35620
C         -1.69930       -6.08260        0.91480
C         -2.08130        2.21540       -9.03470
C         -1.86870        3.55020       -8.78430
C         -1.82490       -5.84610        2.25800
C         -1.99010       -4.53400        2.92070
C         -2.68980       -4.82920        4.18840
C         -2.77380       -6.22230        4.37180
C         -2.14770       -6.87200        3.23550
C         -1.10470        4.07520       -7.65200
C         -1.49090        5.48600       -7.52670
C         -2.30420        5.85620       -8.61100
C         -2.49240        4.67950       -9.45860
C         -3.21260       -3.93870        5.09280
C         -3.84990       -4.43050        6.24340
C         -3.91820       -5.82080        6.42530
C         -3.39220       -6.71600        5.51340
C         -1.20950        6.33120       -6.48800
C         -1.76500        7.61830       -6.48440
C         -2.52210        8.01670       -7.59320
C         -2.79320        7.15700       -8.64960
O         -1.65080       -3.42910        2.54410
O         -0.30550        3.49110       -6.94140
C         -3.13860        4.66700      -10.66820
C         -1.81480       -8.20000        3.14470
C         -2.15630       -9.16160        4.11680
C         -0.99940       -8.74200        2.13550
C         -3.69830        5.81740      -11.26010
C         -3.30180        3.53010      -11.48460
N         -2.41890       -9.98460        4.87290
N         -0.27560       -9.23980        1.39420
N         -3.46720        2.64400      -12.19680
N         -4.16830        6.72560      -11.78220
C         -4.42610       -3.52590        7.20040
C         -4.46740       -2.14630        7.15730
C         -5.12850       -1.56710        8.23860
C         -5.59900       -2.52360        9.12820
S         -5.22820       -4.12590        8.63670
Si        -5.63160        0.14560        8.86320
C         -6.45300       -0.66610       10.35830
C         -6.29990       -2.03940       10.26360
C         -7.16280       -0.30510       11.51560
C         -7.52930       -1.38090       12.26640
S         -7.02110       -2.87900       11.58480
C         -4.13610        1.24470        9.30250
C         -6.88470        1.00410        7.70820
C         -6.24870        1.47670        6.40500
C         -4.55670        2.57170        9.92490
H          0.65040       -2.63630        2.90130
H          5.32770       -0.84630        2.81470
H          4.90310       -6.33230        0.30200
H          0.97810        2.99310        4.99370
H          5.60640       -4.27420        3.49860
H          6.62410       -2.98620        2.86640
H          4.57740       -2.71660       -0.34550
H          5.93360       -3.83600       -0.25780
H          6.75420       -1.60160       -0.73580
H          7.29060       -2.02830        0.88440
H          5.92870       -0.92210        0.65960
H          7.57610       -4.57030        1.17610
H          6.54450       -5.85610        1.80950
H          7.79690       -5.14910        2.82270
H         -0.62560       -0.52710        2.66630
H          0.48300        0.63710        1.94590
H         -0.17110        0.52310        5.67670
H          1.22910       -0.49060        6.00350
H         -0.47740        2.46230        3.29480
H         -1.55780        1.32400        4.11490
H         -1.73260        1.62630        2.39150
H          0.10090       -2.46740        5.12760
H         -0.97240       -1.67200        6.27110
H         -1.24880       -1.50180        4.53460
H          4.45670        4.64880        5.30480
H          1.28320       -7.87860        0.32550
H          0.01790        6.82100        1.75040
H          1.81190       10.67690        2.35870
H          3.09260        9.81520        4.24660
H          6.73390      -10.83740       -0.40960
H          6.53190      -13.25550       -0.97780
H          4.33070      -14.23020       -1.44690
H          2.29600      -12.86100       -1.38700
H          0.36050       11.41300        0.61220
H         -1.67650       10.49650       -5.87540
H          0.55700       13.00090       -4.25200
H          1.04030       13.30770       -2.60140
H         -2.03170       13.50160       -1.57220
H         -3.14010       12.21920       -2.00160
H         -3.54570       14.21030       -3.40580
H         -2.96690       12.88400       -4.41140
H         -1.87340       14.19030       -3.95970
H          2.19340       11.08560       -2.52510
H          1.70820       10.78440       -4.19010
H          2.82450       12.09950       -3.82320
H          0.28780       -0.25830       -4.02790
H         -2.30020       -4.45410       -4.92380
H         -2.87470       -0.39270       -9.32280
H         -0.27660       -3.57470        0.87320
H         -1.88370       -3.25160       -9.10300
H         -0.40900       -3.08000       -8.15060
H         -4.08470       -2.71760       -8.13180
H         -3.87710       -3.81740       -6.76620
H         -4.13110       -1.90440       -5.18360
H         -5.54480       -2.08920       -6.22360
H         -4.37270       -0.81180       -6.54720
H         -2.49020       -5.28580       -7.76350
H         -0.99640       -5.09910       -6.83460
H         -0.93020       -5.44540       -8.55920
H          0.07380        0.01470       -1.52820
H         -0.01250       -0.92070       -0.03240
H          2.05960       -1.35690       -2.21850
H          1.91180       -2.19370       -0.66830
H         -2.29040       -0.66120       -2.05360
H         -2.35750       -1.54180       -0.52330
H         -2.16610        0.21090       -0.52410
H          1.81180       -4.38240       -1.83230
H          1.87230       -3.57190       -3.39890
H          3.26050       -3.50280       -2.31340
H         -1.91720       -7.08610        0.56230
H         -2.71650        1.96510       -9.87670
H         -3.13400       -2.88150        4.90400
H         -4.40780       -6.20230        7.30950
H         -3.48010       -7.77580        5.69030
H         -0.58280        5.98580       -5.67980
H         -2.94240        9.01110       -7.60920
H         -3.40650        7.50260       -9.46640
H         -4.03180       -1.56860        6.36240
H         -7.39760        0.70900       11.78600
H         -8.07420       -1.39130       13.19000
H         -3.47440        0.71910        9.99220
H         -3.55380        1.44150        8.40180
H         -7.32380        1.85920        8.22270
H         -7.70630        0.32390        7.47950
H         -6.98770        1.96110        5.76940
H         -5.45130        2.18930        6.60070
H         -5.82880        0.63670        5.85750
H         -5.18540        3.13610        9.24070
H         -5.11630        2.40420       10.84160
H         -3.68560        3.17880       10.16410
