250
PF3-DTCO.sdf
C         -0.14920        3.25450       -0.05460
C         -0.16370        4.48700       -0.74230
C         -0.24990        4.50610       -2.11580
C         -0.41170        3.28160       -2.76270
C         -0.47720        2.05410       -2.06000
C         -0.28750        2.02920       -0.69920
C         -0.60030        2.97090       -4.14570
C         -0.77870        1.60590       -4.32540
C         -0.84720        0.91210       -2.98850
C         -0.09650        3.55650        1.33680
C         -0.16280        4.92550        1.55580
C         -0.16470        5.65470        0.23370
S         -0.75390        3.91380       -5.58750
C         -1.09650        2.45750       -6.47800
C         -1.05780        1.30800       -5.65830
S         -0.06310        2.58140        2.75850
C         -0.18150        4.02850        3.71010
C         -0.22700        5.20150        2.92380
C         -2.05950        0.13970       -9.17310
C         -2.49770        0.54060      -10.40720
C         -2.78480        1.90730      -10.89080
C         -3.55100        1.73380      -12.14020
C         -3.62400        0.36950      -12.46550
C         -2.91230       -0.39190      -11.44280
C         -4.13900        2.69960      -12.93330
C         -4.80130        2.29170      -14.08140
C         -4.87490        0.94640      -14.41050
C         -4.29500       -0.02860      -13.61050
O         -2.46080        2.97290      -10.40130
C         -2.63880       -1.73250      -11.50470
C         -1.83010       -2.45290      -10.59900
C         -3.09440       -2.58320      -12.53400
N         -3.44580       -3.33350      -13.32880
N         -1.16250       -3.10850       -9.93330
C         -0.92310        6.18910        6.58430
C         -1.23290        5.63170        7.79740
C         -1.00960        4.23990        8.24700
C         -1.87830        4.06260        9.42470
C         -2.49170        5.28380        9.75260
C         -1.99300        6.30830        8.84170
C         -2.16510        2.89450       10.08520
C         -3.15390        2.90170       11.07820
C         -3.76870        4.11750       11.40530
C         -3.43680        5.30400       10.77150
O         -0.26060        3.40030        7.79060
C         -2.20800        7.65550        8.97840
C         -1.68220        8.66080        8.14130
C         -2.96100        8.21860       10.02950
N         -1.28920        9.53660        7.51040
N         -3.56400        8.73260       10.86040
C         -1.43960        2.21260       -7.79890
C         -1.66970        0.86530       -8.03410
S         -1.41500       -0.10010       -6.57410
C         -0.31920        4.22940        5.07260
C         -0.51130        5.56420        5.39040
S         -0.42340        6.58060        3.94160
C         -2.34930        0.57140       -2.78650
C          0.07810       -0.29640       -2.79780
C          1.08620        6.53560        0.07790
C         -1.46700        6.45180       -0.00780
C         -1.61620        7.73590        0.79690
C          2.38200        5.76850        0.31340
C         -0.27270       -1.52380       -3.63060
C         -2.70190       -0.08000       -1.45690
C         -3.55630        1.64180       11.65710
S         -2.41720        0.32070       11.68610
C         -3.64700       -0.75670       12.22320
C         -4.87160       -0.13350       12.37130
C         -4.80270        1.23620       12.07770
C         -3.56700       -2.16780       12.29290
C         -4.74980       -2.89240       12.26330
O         -5.96280       -2.32470       12.36040
C         -6.05930       -0.95430       12.81690
S         -2.18640       -3.17910       12.10650
C         -3.20740       -4.57450       11.87580
C         -4.53720       -4.25940       11.99660
C         -6.07570       -0.95120       14.36400
C         -7.37440       -0.43280       12.22110
C         -7.34500       -0.38420       10.69740
C         -7.20150       -1.77970       14.97080
C          4.18680       -5.31500        0.66610
C          5.33800       -4.85290        1.34920
C          5.71830       -5.44640        2.53020
C          4.85550       -6.39220        3.07830
C          3.66000       -6.79630        2.43580
C          3.34250       -6.28870        1.19710
C          4.83860       -6.95630        4.39090
C          3.64130       -7.61360        4.61530
C          2.83800       -7.69200        3.34490
C          4.03960       -4.50290       -0.50040
C          5.00260       -3.50660       -0.51820
C          5.96260       -3.66870        0.63040
S          5.84830       -6.81200        5.78950
C          4.59290       -7.56570        6.73480
C          3.47730       -7.94690        5.95860
S          2.86740       -4.38760       -1.76840
C          3.61170       -2.90300       -2.29190
C          4.72860       -2.55950       -1.50170
C          2.60730       -8.05610        9.70480
C          1.30690       -8.00290       10.12770
C          0.10740       -8.25480        9.30980
C         -1.00530       -7.61090       10.02700
C         -0.50730       -7.01130       11.20050
C          0.88030       -7.42910       11.38850
C         -2.31720       -7.40970        9.63350
C         -3.08850       -6.50120       10.33730
C         -2.54520       -5.77200       11.40250
C         -1.26240       -6.07810       11.87700
O          0.06230       -8.82930        8.23670
C          1.59830       -7.30170       12.54540
C          1.06760       -6.73680       13.72450
C          2.91990       -7.76230       12.72150
N          3.99120       -8.12230       12.92350
N          0.67680       -6.29500       14.70890
C          3.82250        0.49150       -3.63520
C          3.00210        0.90440       -4.64990
C          2.45340        0.10340       -5.76870
C          2.11430        1.09530       -6.81470
C          2.30440        2.39790       -6.31200
C          2.72990        2.30060       -4.93230
C          1.68080        0.87060       -8.09800
C          1.43080        1.97080       -8.93550
C          1.64380        3.26490       -8.43090
C          2.06830        3.48940       -7.13660
O          2.32530       -1.09870       -5.84970
C          2.71000        3.30080       -3.99170
C          2.88660        3.06530       -2.61490
C          2.39270        4.64360       -4.26850
N          2.96190        2.92140       -1.47710
N          2.14240        5.75230       -4.43350
C          4.40180       -7.72530        8.09340
C          3.11040       -8.15800        8.39670
S          2.17290       -8.49670        6.94640
C          3.24860       -1.93940       -3.22070
C          4.02730       -0.79780       -3.11240
S          5.30120       -0.98660       -1.90330
C          2.84870       -9.16940        2.88690
C          1.40700       -7.17140        3.54350
C          7.37500       -4.05240        0.14840
C          5.91510       -2.36950        1.46350
C          6.83240       -2.30550        2.67680
C          8.07730       -2.98190       -0.67570
C          1.36950       -5.75180        4.09780
C          2.24240       -9.42890        1.51470
C          0.95640        1.77020      -10.27570
S          0.79460        0.15600      -10.93100
C          0.19740        0.79080      -12.41520
C          0.13540        2.17460      -12.41030
C          0.56280        2.71730      -11.19730
C         -0.32140        0.08670      -13.53020
C         -1.07030        0.79460      -14.45670
O         -1.28350        2.12220      -14.37760
C         -0.29460        2.89980      -13.66330
S         -0.27600       -1.60160      -13.90560
C         -1.28400       -1.34390      -15.27310
C         -1.62950       -0.04000      -15.44880
C         -0.96240        4.23820      -13.31820
C          0.92390        3.05230      -14.60450
C          2.06920        3.87610      -14.03260
C         -1.62990        4.91070      -14.51160
H         -0.21810        5.42140       -2.68730
H         -0.27270        1.11450       -0.12780
H         -2.04960       -0.93170       -9.00520
H         -4.08440        3.74100      -12.65600
H         -5.26550        3.02560      -14.72290
H         -5.39760        0.64540      -15.30620
H         -4.37600       -1.06730      -13.88550
H         -1.12680        7.24740        6.46870
H         -1.66850        1.97920        9.79970
H         -4.51880        4.13090       12.18150
H         -3.93190        6.21680       11.06120
H         -1.54320        2.96280       -8.56050
H         -0.29670        3.44420        5.80410
H         -2.91260        1.50410       -2.88050
H         -2.66000       -0.07950       -3.60570
H          0.05830       -0.56460       -1.74030
H          1.09790        0.02170       -3.02670
H          1.02830        7.35740        0.79260
H          1.08660        6.95300       -0.93060
H         -2.30720        5.78770        0.21310
H         -1.51420        6.69780       -1.07020
H         -0.89090        8.48220        0.48580
H         -1.49440        7.55450        1.86030
H         -2.61030        8.14640        0.63500
H          2.44910        4.89860       -0.33570
H          2.44940        5.42940        1.34480
H          3.23370        6.41360        0.11190
H          0.31810       -2.37270       -3.29450
H         -1.31940       -1.79240       -3.52670
H         -0.06210       -1.36010       -4.68370
H         -2.47670        0.58450       -0.62730
H         -2.16750       -1.01500       -1.31610
H         -3.76840       -0.29420       -1.43740
H         -5.64250        1.90550       12.12430
H         -5.33530       -4.97220       11.90260
H         -5.11540       -1.35160       14.70060
H         -6.14140        0.08430       14.70270
H         -7.57930        0.55620       12.63180
H         -8.17060       -1.10790       12.53300
H         -8.30950       -0.05630       10.31790
H         -6.58100        0.30100       10.33740
H         -7.13500       -1.37380       10.29930
H         -7.22500       -2.76820       14.51850
H         -8.16640       -1.30300       14.82150
H         -7.03970       -1.89240       16.04000
H          6.61290       -5.16400        3.06160
H          2.44210       -6.56540        0.67100
H          3.36990       -7.81680       10.43760
H         -2.70400       -7.91070        8.75950
H         -4.09350       -6.28020       10.01170
H         -0.86780       -5.53910       12.72430
H          4.38660        1.26640       -3.12600
H          1.53120       -0.13920       -8.45180
H          1.47000        4.11460       -9.07070
H          2.22190        4.49750       -6.78520
H          5.12320       -7.47340        8.84960
H          2.44850       -2.03180       -3.92930
H          2.30880       -9.74970        3.63850
H          3.88650       -9.51270        2.88220
H          0.88260       -7.19380        2.58820
H          0.89160       -7.84240        4.23420
H          7.98010       -4.29940        1.02170
H          7.28280       -4.96190       -0.45150
H          6.15650       -1.54320        0.79140
H          4.88250       -2.22800        1.79410
H          7.86780       -2.49110        2.40550
H          6.53150       -3.02030        3.43690
H          6.77210       -1.31080        3.11310
H          7.50660       -2.74030       -1.56810
H          9.05350       -3.34660       -0.98730
H          8.22320       -2.07100       -0.10230
H          1.84560       -5.70370        5.07440
H          1.88360       -5.06240        3.43120
H          0.33900       -5.42270        4.20630
H          1.20250       -9.11680        1.47440
H          2.28140      -10.49480        1.30200
H          2.79930       -8.90920        0.73970
H          0.56740        3.77120      -10.99430
H         -1.56040       -2.18570      -15.87520
H         -2.25160        0.32410      -16.24430
H         -0.20710        4.90180      -12.89850
H         -1.70560        4.04940      -12.54280
H          0.57460        3.49270      -15.53950
H          1.28620        2.04550      -14.83150
H          2.91770        3.83900      -14.71160
H          1.78360        4.91700      -13.90750
H          2.38570        3.48170      -13.06960
H         -0.89430        5.22460      -15.24780
H         -2.32760        4.22640      -14.98580
H         -2.17330        5.79170      -14.17840
