PF3-DTCO.sdf
  xtb     12222117063D
 energy: -419.433757727122 gnorm: 0.000852494340 xtb: 6.4.1 (unknown)
250277  0     0  0            999 V2000
   -0.1492    3.2545   -0.0546 C   0  0  0  0  0  0  0  0  0  0  0  0
   -0.1637    4.4870   -0.7423 C   0  0  0  0  0  0  0  0  0  0  0  0
   -0.2499    4.5061   -2.1158 C   0  0  0  0  0  0  0  0  0  0  0  0
   -0.4117    3.2816   -2.7627 C   0  0  0  0  0  0  0  0  0  0  0  0
   -0.4772    2.0541   -2.0600 C   0  0  0  0  0  0  0  0  0  0  0  0
   -0.2875    2.0292   -0.6992 C   0  0  0  0  0  0  0  0  0  0  0  0
   -0.6003    2.9709   -4.1457 C   0  0  0  0  0  0  0  0  0  0  0  0
   -0.7787    1.6059   -4.3254 C   0  0  0  0  0  0  0  0  0  0  0  0
   -0.8472    0.9121   -2.9885 C   0  0  0  0  0  0  0  0  0  0  0  0
   -0.0965    3.5565    1.3368 C   0  0  0  0  0  0  0  0  0  0  0  0
   -0.1628    4.9255    1.5558 C   0  0  0  0  0  0  0  0  0  0  0  0
   -0.1647    5.6547    0.2337 C   0  0  0  0  0  0  0  0  0  0  0  0
   -0.7539    3.9138   -5.5875 S   0  0  0  0  0  0  0  0  0  0  0  0
   -1.0965    2.4575   -6.4780 C   0  0  0  0  0  0  0  0  0  0  0  0
   -1.0578    1.3080   -5.6583 C   0  0  0  0  0  0  0  0  0  0  0  0
   -0.0631    2.5814    2.7585 S   0  0  0  0  0  0  0  0  0  0  0  0
   -0.1815    4.0285    3.7101 C   0  0  0  0  0  0  0  0  0  0  0  0
   -0.2270    5.2015    2.9238 C   0  0  0  0  0  0  0  0  0  0  0  0
   -2.0595    0.1397   -9.1731 C   0  0  0  0  0  0  0  0  0  0  0  0
   -2.4977    0.5406  -10.4072 C   0  0  0  0  0  0  0  0  0  0  0  0
   -2.7848    1.9073  -10.8908 C   0  0  0  0  0  0  0  0  0  0  0  0
   -3.5510    1.7338  -12.1402 C   0  0  0  0  0  0  0  0  0  0  0  0
   -3.6240    0.3695  -12.4655 C   0  0  0  0  0  0  0  0  0  0  0  0
   -2.9123   -0.3919  -11.4428 C   0  0  0  0  0  0  0  0  0  0  0  0
   -4.1390    2.6996  -12.9333 C   0  0  0  0  0  0  0  0  0  0  0  0
   -4.8013    2.2917  -14.0814 C   0  0  0  0  0  0  0  0  0  0  0  0
   -4.8749    0.9464  -14.4105 C   0  0  0  0  0  0  0  0  0  0  0  0
   -4.2950   -0.0286  -13.6105 C   0  0  0  0  0  0  0  0  0  0  0  0
   -2.4608    2.9729  -10.4013 O   0  0  0  0  0  0  0  0  0  0  0  0
   -2.6388   -1.7325  -11.5047 C   0  0  0  0  0  0  0  0  0  0  0  0
   -1.8301   -2.4529  -10.5990 C   0  0  0  0  0  0  0  0  0  0  0  0
   -3.0944   -2.5832  -12.5340 C   0  0  0  0  0  0  0  0  0  0  0  0
   -3.4458   -3.3335  -13.3288 N   0  0  0  0  0  0  0  0  0  0  0  0
   -1.1625   -3.1085   -9.9333 N   0  0  0  0  0  0  0  0  0  0  0  0
   -0.9231    6.1891    6.5843 C   0  0  0  0  0  0  0  0  0  0  0  0
   -1.2329    5.6317    7.7974 C   0  0  0  0  0  0  0  0  0  0  0  0
   -1.0096    4.2399    8.2470 C   0  0  0  0  0  0  0  0  0  0  0  0
   -1.8783    4.0626    9.4247 C   0  0  0  0  0  0  0  0  0  0  0  0
   -2.4917    5.2838    9.7526 C   0  0  0  0  0  0  0  0  0  0  0  0
   -1.9930    6.3083    8.8417 C   0  0  0  0  0  0  0  0  0  0  0  0
   -2.1651    2.8945   10.0852 C   0  0  0  0  0  0  0  0  0  0  0  0
   -3.1539    2.9017   11.0782 C   0  0  0  0  0  0  0  0  0  0  0  0
   -3.7687    4.1175   11.4053 C   0  0  0  0  0  0  0  0  0  0  0  0
   -3.4368    5.3040   10.7715 C   0  0  0  0  0  0  0  0  0  0  0  0
   -0.2606    3.4003    7.7906 O   0  0  0  0  0  0  0  0  0  0  0  0
   -2.2080    7.6555    8.9784 C   0  0  0  0  0  0  0  0  0  0  0  0
   -1.6822    8.6608    8.1413 C   0  0  0  0  0  0  0  0  0  0  0  0
   -2.9610    8.2186   10.0295 C   0  0  0  0  0  0  0  0  0  0  0  0
   -1.2892    9.5366    7.5104 N   0  0  0  0  0  0  0  0  0  0  0  0
   -3.5640    8.7326   10.8604 N   0  0  0  0  0  0  0  0  0  0  0  0
   -1.4396    2.2126   -7.7989 C   0  0  0  0  0  0  0  0  0  0  0  0
   -1.6697    0.8653   -8.0341 C   0  0  0  0  0  0  0  0  0  0  0  0
   -1.4150   -0.1001   -6.5741 S   0  0  0  0  0  0  0  0  0  0  0  0
   -0.3192    4.2294    5.0726 C   0  0  0  0  0  0  0  0  0  0  0  0
   -0.5113    5.5642    5.3904 C   0  0  0  0  0  0  0  0  0  0  0  0
   -0.4234    6.5806    3.9416 S   0  0  0  0  0  0  0  0  0  0  0  0
   -2.3493    0.5714   -2.7865 C   0  0  0  0  0  0  0  0  0  0  0  0
    0.0781   -0.2964   -2.7978 C   0  0  0  0  0  0  0  0  0  0  0  0
    1.0862    6.5356    0.0779 C   0  0  0  0  0  0  0  0  0  0  0  0
   -1.4670    6.4518   -0.0078 C   0  0  0  0  0  0  0  0  0  0  0  0
   -1.6162    7.7359    0.7969 C   0  0  0  0  0  0  0  0  0  0  0  0
    2.3820    5.7685    0.3134 C   0  0  0  0  0  0  0  0  0  0  0  0
   -0.2727   -1.5238   -3.6306 C   0  0  0  0  0  0  0  0  0  0  0  0
   -2.7019   -0.0800   -1.4569 C   0  0  0  0  0  0  0  0  0  0  0  0
   -3.5563    1.6418   11.6571 C   0  0  0  0  0  0  0  0  0  0  0  0
   -2.4172    0.3207   11.6861 S   0  0  0  0  0  0  0  0  0  0  0  0
   -3.6470   -0.7567   12.2232 C   0  0  0  0  0  0  0  0  0  0  0  0
   -4.8716   -0.1335   12.3713 C   0  0  0  0  0  0  0  0  0  0  0  0
   -4.8027    1.2362   12.0777 C   0  0  0  0  0  0  0  0  0  0  0  0
   -3.5670   -2.1678   12.2929 C   0  0  0  0  0  0  0  0  0  0  0  0
   -4.7498   -2.8924   12.2633 C   0  0  0  0  0  0  0  0  0  0  0  0
   -5.9628   -2.3247   12.3604 O   0  0  0  0  0  0  0  0  0  0  0  0
   -6.0593   -0.9543   12.8169 C   0  0  0  0  0  0  0  0  0  0  0  0
   -2.1864   -3.1791   12.1065 S   0  0  0  0  0  0  0  0  0  0  0  0
   -3.2074   -4.5745   11.8758 C   0  0  0  0  0  0  0  0  0  0  0  0
   -4.5372   -4.2594   11.9966 C   0  0  0  0  0  0  0  0  0  0  0  0
   -6.0757   -0.9512   14.3640 C   0  0  0  0  0  0  0  0  0  0  0  0
   -7.3744   -0.4328   12.2211 C   0  0  0  0  0  0  0  0  0  0  0  0
   -7.3450   -0.3842   10.6974 C   0  0  0  0  0  0  0  0  0  0  0  0
   -7.2015   -1.7797   14.9708 C   0  0  0  0  0  0  0  0  0  0  0  0
    4.1868   -5.3150    0.6661 C   0  0  0  0  0  0  0  0  0  0  0  0
    5.3380   -4.8529    1.3492 C   0  0  0  0  0  0  0  0  0  0  0  0
    5.7183   -5.4464    2.5302 C   0  0  0  0  0  0  0  0  0  0  0  0
    4.8555   -6.3922    3.0783 C   0  0  0  0  0  0  0  0  0  0  0  0
    3.6600   -6.7963    2.4358 C   0  0  0  0  0  0  0  0  0  0  0  0
    3.3425   -6.2887    1.1971 C   0  0  0  0  0  0  0  0  0  0  0  0
    4.8386   -6.9563    4.3909 C   0  0  0  0  0  0  0  0  0  0  0  0
    3.6413   -7.6136    4.6153 C   0  0  0  0  0  0  0  0  0  0  0  0
    2.8380   -7.6920    3.3449 C   0  0  0  0  0  0  0  0  0  0  0  0
    4.0396   -4.5029   -0.5004 C   0  0  0  0  0  0  0  0  0  0  0  0
    5.0026   -3.5066   -0.5182 C   0  0  0  0  0  0  0  0  0  0  0  0
    5.9626   -3.6687    0.6304 C   0  0  0  0  0  0  0  0  0  0  0  0
    5.8483   -6.8120    5.7895 S   0  0  0  0  0  0  0  0  0  0  0  0
    4.5929   -7.5657    6.7348 C   0  0  0  0  0  0  0  0  0  0  0  0
    3.4773   -7.9469    5.9586 C   0  0  0  0  0  0  0  0  0  0  0  0
    2.8674   -4.3876   -1.7684 S   0  0  0  0  0  0  0  0  0  0  0  0
    3.6117   -2.9030   -2.2919 C   0  0  0  0  0  0  0  0  0  0  0  0
    4.7286   -2.5595   -1.5017 C   0  0  0  0  0  0  0  0  0  0  0  0
    2.6073   -8.0561    9.7048 C   0  0  0  0  0  0  0  0  0  0  0  0
    1.3069   -8.0029   10.1277 C   0  0  0  0  0  0  0  0  0  0  0  0
    0.1074   -8.2548    9.3098 C   0  0  0  0  0  0  0  0  0  0  0  0
   -1.0053   -7.6109   10.0270 C   0  0  0  0  0  0  0  0  0  0  0  0
   -0.5073   -7.0113   11.2005 C   0  0  0  0  0  0  0  0  0  0  0  0
    0.8803   -7.4291   11.3885 C   0  0  0  0  0  0  0  0  0  0  0  0
   -2.3172   -7.4097    9.6335 C   0  0  0  0  0  0  0  0  0  0  0  0
   -3.0885   -6.5012   10.3373 C   0  0  0  0  0  0  0  0  0  0  0  0
   -2.5452   -5.7720   11.4025 C   0  0  0  0  0  0  0  0  0  0  0  0
   -1.2624   -6.0781   11.8770 C   0  0  0  0  0  0  0  0  0  0  0  0
    0.0623   -8.8293    8.2367 O   0  0  0  0  0  0  0  0  0  0  0  0
    1.5983   -7.3017   12.5454 C   0  0  0  0  0  0  0  0  0  0  0  0
    1.0676   -6.7368   13.7245 C   0  0  0  0  0  0  0  0  0  0  0  0
    2.9199   -7.7623   12.7215 C   0  0  0  0  0  0  0  0  0  0  0  0
    3.9912   -8.1223   12.9235 N   0  0  0  0  0  0  0  0  0  0  0  0
    0.6768   -6.2950   14.7089 N   0  0  0  0  0  0  0  0  0  0  0  0
    3.8225    0.4915   -3.6352 C   0  0  0  0  0  0  0  0  0  0  0  0
    3.0021    0.9044   -4.6499 C   0  0  0  0  0  0  0  0  0  0  0  0
    2.4534    0.1034   -5.7687 C   0  0  0  0  0  0  0  0  0  0  0  0
    2.1143    1.0953   -6.8147 C   0  0  0  0  0  0  0  0  0  0  0  0
    2.3044    2.3979   -6.3120 C   0  0  0  0  0  0  0  0  0  0  0  0
    2.7299    2.3006   -4.9323 C   0  0  0  0  0  0  0  0  0  0  0  0
    1.6808    0.8706   -8.0980 C   0  0  0  0  0  0  0  0  0  0  0  0
    1.4308    1.9708   -8.9355 C   0  0  0  0  0  0  0  0  0  0  0  0
    1.6438    3.2649   -8.4309 C   0  0  0  0  0  0  0  0  0  0  0  0
    2.0683    3.4894   -7.1366 C   0  0  0  0  0  0  0  0  0  0  0  0
    2.3253   -1.0987   -5.8497 O   0  0  0  0  0  0  0  0  0  0  0  0
    2.7100    3.3008   -3.9917 C   0  0  0  0  0  0  0  0  0  0  0  0
    2.8866    3.0653   -2.6149 C   0  0  0  0  0  0  0  0  0  0  0  0
    2.3927    4.6436   -4.2685 C   0  0  0  0  0  0  0  0  0  0  0  0
    2.9619    2.9214   -1.4771 N   0  0  0  0  0  0  0  0  0  0  0  0
    2.1424    5.7523   -4.4335 N   0  0  0  0  0  0  0  0  0  0  0  0
    4.4018   -7.7253    8.0934 C   0  0  0  0  0  0  0  0  0  0  0  0
    3.1104   -8.1580    8.3967 C   0  0  0  0  0  0  0  0  0  0  0  0
    2.1729   -8.4967    6.9464 S   0  0  0  0  0  0  0  0  0  0  0  0
    3.2486   -1.9394   -3.2207 C   0  0  0  0  0  0  0  0  0  0  0  0
    4.0273   -0.7978   -3.1124 C   0  0  0  0  0  0  0  0  0  0  0  0
    5.3012   -0.9866   -1.9033 S   0  0  0  0  0  0  0  0  0  0  0  0
    2.8487   -9.1694    2.8869 C   0  0  0  0  0  0  0  0  0  0  0  0
    1.4070   -7.1714    3.5435 C   0  0  0  0  0  0  0  0  0  0  0  0
    7.3750   -4.0524    0.1484 C   0  0  0  0  0  0  0  0  0  0  0  0
    5.9151   -2.3695    1.4635 C   0  0  0  0  0  0  0  0  0  0  0  0
    6.8324   -2.3055    2.6768 C   0  0  0  0  0  0  0  0  0  0  0  0
    8.0773   -2.9819   -0.6757 C   0  0  0  0  0  0  0  0  0  0  0  0
    1.3695   -5.7518    4.0978 C   0  0  0  0  0  0  0  0  0  0  0  0
    2.2424   -9.4289    1.5147 C   0  0  0  0  0  0  0  0  0  0  0  0
    0.9564    1.7702  -10.2757 C   0  0  0  0  0  0  0  0  0  0  0  0
    0.7946    0.1560  -10.9310 S   0  0  0  0  0  0  0  0  0  0  0  0
    0.1974    0.7908  -12.4152 C   0  0  0  0  0  0  0  0  0  0  0  0
    0.1354    2.1746  -12.4103 C   0  0  0  0  0  0  0  0  0  0  0  0
    0.5628    2.7173  -11.1973 C   0  0  0  0  0  0  0  0  0  0  0  0
   -0.3214    0.0867  -13.5302 C   0  0  0  0  0  0  0  0  0  0  0  0
   -1.0703    0.7946  -14.4567 C   0  0  0  0  0  0  0  0  0  0  0  0
   -1.2835    2.1222  -14.3776 O   0  0  0  0  0  0  0  0  0  0  0  0
   -0.2946    2.8998  -13.6633 C   0  0  0  0  0  0  0  0  0  0  0  0
   -0.2760   -1.6016  -13.9056 S   0  0  0  0  0  0  0  0  0  0  0  0
   -1.2840   -1.3439  -15.2731 C   0  0  0  0  0  0  0  0  0  0  0  0
   -1.6295   -0.0400  -15.4488 C   0  0  0  0  0  0  0  0  0  0  0  0
   -0.9624    4.2382  -13.3182 C   0  0  0  0  0  0  0  0  0  0  0  0
    0.9239    3.0523  -14.6045 C   0  0  0  0  0  0  0  0  0  0  0  0
    2.0692    3.8761  -14.0326 C   0  0  0  0  0  0  0  0  0  0  0  0
   -1.6299    4.9107  -14.5116 C   0  0  0  0  0  0  0  0  0  0  0  0
   -0.2181    5.4214   -2.6873 H   0  0  0  0  0  0  0  0  0  0  0  0
   -0.2727    1.1145   -0.1278 H   0  0  0  0  0  0  0  0  0  0  0  0
   -2.0496   -0.9317   -9.0052 H   0  0  0  0  0  0  0  0  0  0  0  0
   -4.0844    3.7410  -12.6560 H   0  0  0  0  0  0  0  0  0  0  0  0
   -5.2655    3.0256  -14.7229 H   0  0  0  0  0  0  0  0  0  0  0  0
   -5.3976    0.6454  -15.3062 H   0  0  0  0  0  0  0  0  0  0  0  0
   -4.3760   -1.0673  -13.8855 H   0  0  0  0  0  0  0  0  0  0  0  0
   -1.1268    7.2474    6.4687 H   0  0  0  0  0  0  0  0  0  0  0  0
   -1.6685    1.9792    9.7997 H   0  0  0  0  0  0  0  0  0  0  0  0
   -4.5188    4.1309   12.1815 H   0  0  0  0  0  0  0  0  0  0  0  0
   -3.9319    6.2168   11.0612 H   0  0  0  0  0  0  0  0  0  0  0  0
   -1.5432    2.9628   -8.5605 H   0  0  0  0  0  0  0  0  0  0  0  0
   -0.2967    3.4442    5.8041 H   0  0  0  0  0  0  0  0  0  0  0  0
   -2.9126    1.5041   -2.8805 H   0  0  0  0  0  0  0  0  0  0  0  0
   -2.6600   -0.0795   -3.6057 H   0  0  0  0  0  0  0  0  0  0  0  0
    0.0583   -0.5646   -1.7403 H   0  0  0  0  0  0  0  0  0  0  0  0
    1.0979    0.0217   -3.0267 H   0  0  0  0  0  0  0  0  0  0  0  0
    1.0283    7.3574    0.7926 H   0  0  0  0  0  0  0  0  0  0  0  0
    1.0866    6.9530   -0.9306 H   0  0  0  0  0  0  0  0  0  0  0  0
   -2.3072    5.7877    0.2131 H   0  0  0  0  0  0  0  0  0  0  0  0
   -1.5142    6.6978   -1.0702 H   0  0  0  0  0  0  0  0  0  0  0  0
   -0.8909    8.4822    0.4858 H   0  0  0  0  0  0  0  0  0  0  0  0
   -1.4944    7.5545    1.8603 H   0  0  0  0  0  0  0  0  0  0  0  0
   -2.6103    8.1464    0.6350 H   0  0  0  0  0  0  0  0  0  0  0  0
    2.4491    4.8986   -0.3357 H   0  0  0  0  0  0  0  0  0  0  0  0
    2.4494    5.4294    1.3448 H   0  0  0  0  0  0  0  0  0  0  0  0
    3.2337    6.4136    0.1119 H   0  0  0  0  0  0  0  0  0  0  0  0
    0.3181   -2.3727   -3.2945 H   0  0  0  0  0  0  0  0  0  0  0  0
   -1.3194   -1.7924   -3.5267 H   0  0  0  0  0  0  0  0  0  0  0  0
   -0.0621   -1.3601   -4.6837 H   0  0  0  0  0  0  0  0  0  0  0  0
   -2.4767    0.5845   -0.6273 H   0  0  0  0  0  0  0  0  0  0  0  0
   -2.1675   -1.0150   -1.3161 H   0  0  0  0  0  0  0  0  0  0  0  0
   -3.7684   -0.2942   -1.4374 H   0  0  0  0  0  0  0  0  0  0  0  0
   -5.6425    1.9055   12.1243 H   0  0  0  0  0  0  0  0  0  0  0  0
   -5.3353   -4.9722   11.9026 H   0  0  0  0  0  0  0  0  0  0  0  0
   -5.1154   -1.3516   14.7006 H   0  0  0  0  0  0  0  0  0  0  0  0
   -6.1414    0.0843   14.7027 H   0  0  0  0  0  0  0  0  0  0  0  0
   -7.5793    0.5562   12.6318 H   0  0  0  0  0  0  0  0  0  0  0  0
   -8.1706   -1.1079   12.5330 H   0  0  0  0  0  0  0  0  0  0  0  0
   -8.3095   -0.0563   10.3179 H   0  0  0  0  0  0  0  0  0  0  0  0
   -6.5810    0.3010   10.3374 H   0  0  0  0  0  0  0  0  0  0  0  0
   -7.1350   -1.3738   10.2993 H   0  0  0  0  0  0  0  0  0  0  0  0
   -7.2250   -2.7682   14.5185 H   0  0  0  0  0  0  0  0  0  0  0  0
   -8.1664   -1.3030   14.8215 H   0  0  0  0  0  0  0  0  0  0  0  0
   -7.0397   -1.8924   16.0400 H   0  0  0  0  0  0  0  0  0  0  0  0
    6.6129   -5.1640    3.0616 H   0  0  0  0  0  0  0  0  0  0  0  0
    2.4421   -6.5654    0.6710 H   0  0  0  0  0  0  0  0  0  0  0  0
    3.3699   -7.8168   10.4376 H   0  0  0  0  0  0  0  0  0  0  0  0
   -2.7040   -7.9107    8.7595 H   0  0  0  0  0  0  0  0  0  0  0  0
   -4.0935   -6.2802   10.0117 H   0  0  0  0  0  0  0  0  0  0  0  0
   -0.8678   -5.5391   12.7243 H   0  0  0  0  0  0  0  0  0  0  0  0
    4.3866    1.2664   -3.1260 H   0  0  0  0  0  0  0  0  0  0  0  0
    1.5312   -0.1392   -8.4518 H   0  0  0  0  0  0  0  0  0  0  0  0
    1.4700    4.1146   -9.0707 H   0  0  0  0  0  0  0  0  0  0  0  0
    2.2219    4.4975   -6.7852 H   0  0  0  0  0  0  0  0  0  0  0  0
    5.1232   -7.4734    8.8496 H   0  0  0  0  0  0  0  0  0  0  0  0
    2.4485   -2.0318   -3.9293 H   0  0  0  0  0  0  0  0  0  0  0  0
    2.3088   -9.7497    3.6385 H   0  0  0  0  0  0  0  0  0  0  0  0
    3.8865   -9.5127    2.8822 H   0  0  0  0  0  0  0  0  0  0  0  0
    0.8826   -7.1938    2.5882 H   0  0  0  0  0  0  0  0  0  0  0  0
    0.8916   -7.8424    4.2342 H   0  0  0  0  0  0  0  0  0  0  0  0
    7.9801   -4.2994    1.0217 H   0  0  0  0  0  0  0  0  0  0  0  0
    7.2828   -4.9619   -0.4515 H   0  0  0  0  0  0  0  0  0  0  0  0
    6.1565   -1.5432    0.7914 H   0  0  0  0  0  0  0  0  0  0  0  0
    4.8825   -2.2280    1.7941 H   0  0  0  0  0  0  0  0  0  0  0  0
    7.8678   -2.4911    2.4055 H   0  0  0  0  0  0  0  0  0  0  0  0
    6.5315   -3.0203    3.4369 H   0  0  0  0  0  0  0  0  0  0  0  0
    6.7721   -1.3108    3.1131 H   0  0  0  0  0  0  0  0  0  0  0  0
    7.5066   -2.7403   -1.5681 H   0  0  0  0  0  0  0  0  0  0  0  0
    9.0535   -3.3466   -0.9873 H   0  0  0  0  0  0  0  0  0  0  0  0
    8.2232   -2.0710   -0.1023 H   0  0  0  0  0  0  0  0  0  0  0  0
    1.8456   -5.7037    5.0744 H   0  0  0  0  0  0  0  0  0  0  0  0
    1.8836   -5.0624    3.4312 H   0  0  0  0  0  0  0  0  0  0  0  0
    0.3390   -5.4227    4.2063 H   0  0  0  0  0  0  0  0  0  0  0  0
    1.2025   -9.1168    1.4744 H   0  0  0  0  0  0  0  0  0  0  0  0
    2.2814  -10.4948    1.3020 H   0  0  0  0  0  0  0  0  0  0  0  0
    2.7993   -8.9092    0.7397 H   0  0  0  0  0  0  0  0  0  0  0  0
    0.5674    3.7712  -10.9943 H   0  0  0  0  0  0  0  0  0  0  0  0
   -1.5604   -2.1857  -15.8752 H   0  0  0  0  0  0  0  0  0  0  0  0
   -2.2516    0.3241  -16.2443 H   0  0  0  0  0  0  0  0  0  0  0  0
   -0.2071    4.9018  -12.8985 H   0  0  0  0  0  0  0  0  0  0  0  0
   -1.7056    4.0494  -12.5428 H   0  0  0  0  0  0  0  0  0  0  0  0
    0.5746    3.4927  -15.5395 H   0  0  0  0  0  0  0  0  0  0  0  0
    1.2862    2.0455  -14.8315 H   0  0  0  0  0  0  0  0  0  0  0  0
    2.9177    3.8390  -14.7116 H   0  0  0  0  0  0  0  0  0  0  0  0
    1.7836    4.9170  -13.9075 H   0  0  0  0  0  0  0  0  0  0  0  0
    2.3857    3.4817  -13.0696 H   0  0  0  0  0  0  0  0  0  0  0  0
   -0.8943    5.2246  -15.2478 H   0  0  0  0  0  0  0  0  0  0  0  0
   -2.3276    4.2264  -14.9858 H   0  0  0  0  0  0  0  0  0  0  0  0
   -2.1733    5.7917  -14.1784 H   0  0  0  0  0  0  0  0  0  0  0  0
  1  2  1  0  0  0  0
  2  3  2  0  0  0  0
  3  4  1  0  0  0  0
  4  5  2  0  0  0  0
  5  6  1  0  0  0  0
  6  1  2  0  0  0  0
  4  7  1  0  0  0  0
  7  8  2  0  0  0  0
  8  9  1  0  0  0  0
  9  5  1  0  0  0  0
  1 10  1  0  0  0  0
 10 11  2  0  0  0  0
 11 12  1  0  0  0  0
 12  2  1  0  0  0  0
  7 13  1  0  0  0  0
 13 14  1  0  0  0  0
 14 15  2  0  0  0  0
 15  8  1  0  0  0  0
 10 16  1  0  0  0  0
 16 17  1  0  0  0  0
 17 18  2  0  0  0  0
 18 11  1  0  0  0  0
 19 20  2  0  0  0  0
 20 21  1  0  0  0  0
 21 22  1  0  0  0  0
 22 23  2  0  0  0  0
 23 24  1  0  0  0  0
 24 20  1  0  0  0  0
 22 25  1  0  0  0  0
 25 26  2  0  0  0  0
 26 27  1  0  0  0  0
 27 28  2  0  0  0  0
 28 23  1  0  0  0  0
 21 29  2  0  0  0  0
 24 30  2  0  0  0  0
 30 31  1  0  0  0  0
 30 32  1  0  0  0  0
 32 33  3  0  0  0  0
 31 34  3  0  0  0  0
 35 36  2  0  0  0  0
 36 37  1  0  0  0  0
 37 38  1  0  0  0  0
 38 39  2  0  0  0  0
 39 40  1  0  0  0  0
 40 36  1  0  0  0  0
 38 41  1  0  0  0  0
 41 42  2  0  0  0  0
 42 43  1  0  0  0  0
 43 44  2  0  0  0  0
 44 39  1  0  0  0  0
 37 45  2  0  0  0  0
 40 46  2  0  0  0  0
 46 47  1  0  0  0  0
 46 48  1  0  0  0  0
 47 49  3  0  0  0  0
 48 50  3  0  0  0  0
 14 51  1  0  0  0  0
 51 52  2  0  0  0  0
 52 53  1  0  0  0  0
 53 15  1  0  0  0  0
 52 19  1  0  0  0  0
 17 54  1  0  0  0  0
 54 55  2  0  0  0  0
 55 56  1  0  0  0  0
 56 18  1  0  0  0  0
 55 35  1  0  0  0  0
  9 57  1  0  0  0  0
  9 58  1  0  0  0  0
 12 59  1  0  0  0  0
 12 60  1  0  0  0  0
 60 61  1  0  0  0  0
 59 62  1  0  0  0  0
 58 63  1  0  0  0  0
 57 64  1  0  0  0  0
 42 65  1  0  0  0  0
 65 66  1  0  0  0  0
 66 67  1  0  0  0  0
 67 68  2  0  0  0  0
 68 69  1  0  0  0  0
 69 65  2  0  0  0  0
 67 70  1  0  0  0  0
 70 71  2  0  0  0  0
 71 72  1  0  0  0  0
 72 73  1  0  0  0  0
 73 68  1  0  0  0  0
 70 74  1  0  0  0  0
 74 75  1  0  0  0  0
 75 76  2  0  0  0  0
 76 71  1  0  0  0  0
 73 77  1  0  0  0  0
 73 78  1  0  0  0  0
 78 79  1  0  0  0  0
 77 80  1  0  0  0  0
 81 82  1  0  0  0  0
 82 83  2  0  0  0  0
 83 84  1  0  0  0  0
 84 85  2  0  0  0  0
 85 86  1  0  0  0  0
 86 81  2  0  0  0  0
 84 87  1  0  0  0  0
 87 88  2  0  0  0  0
 88 89  1  0  0  0  0
 89 85  1  0  0  0  0
 81 90  1  0  0  0  0
 90 91  2  0  0  0  0
 91 92  1  0  0  0  0
 92 82  1  0  0  0  0
 87 93  1  0  0  0  0
 93 94  1  0  0  0  0
 94 95  2  0  0  0  0
 95 88  1  0  0  0  0
 90 96  1  0  0  0  0
 96 97  1  0  0  0  0
 97 98  2  0  0  0  0
 98 91  1  0  0  0  0
 99100  2  0  0  0  0
100101  1  0  0  0  0
101102  1  0  0  0  0
102103  2  0  0  0  0
103104  1  0  0  0  0
104100  1  0  0  0  0
102105  1  0  0  0  0
105106  2  0  0  0  0
106107  1  0  0  0  0
107108  2  0  0  0  0
108103  1  0  0  0  0
101109  2  0  0  0  0
104110  2  0  0  0  0
110111  1  0  0  0  0
110112  1  0  0  0  0
112113  3  0  0  0  0
111114  3  0  0  0  0
115116  2  0  0  0  0
116117  1  0  0  0  0
117118  1  0  0  0  0
118119  2  0  0  0  0
119120  1  0  0  0  0
120116  1  0  0  0  0
118121  1  0  0  0  0
121122  2  0  0  0  0
122123  1  0  0  0  0
123124  2  0  0  0  0
124119  1  0  0  0  0
117125  2  0  0  0  0
120126  2  0  0  0  0
126127  1  0  0  0  0
126128  1  0  0  0  0
127129  3  0  0  0  0
128130  3  0  0  0  0
 94131  1  0  0  0  0
131132  2  0  0  0  0
132133  1  0  0  0  0
133 95  1  0  0  0  0
132 99  1  0  0  0  0
 97134  1  0  0  0  0
134135  2  0  0  0  0
135136  1  0  0  0  0
136 98  1  0  0  0  0
135115  1  0  0  0  0
 89137  1  0  0  0  0
 89138  1  0  0  0  0
 92139  1  0  0  0  0
 92140  1  0  0  0  0
140141  1  0  0  0  0
139142  1  0  0  0  0
138143  1  0  0  0  0
137144  1  0  0  0  0
122145  1  0  0  0  0
145146  1  0  0  0  0
146147  1  0  0  0  0
147148  2  0  0  0  0
148149  1  0  0  0  0
149145  2  0  0  0  0
147150  1  0  0  0  0
150151  2  0  0  0  0
151152  1  0  0  0  0
152153  1  0  0  0  0
153148  1  0  0  0  0
150154  1  0  0  0  0
154155  1  0  0  0  0
155156  2  0  0  0  0
156151  1  0  0  0  0
153157  1  0  0  0  0
153158  1  0  0  0  0
158159  1  0  0  0  0
157160  1  0  0  0  0
 75107  1  0  0  0  0
  3161  1  0  0  0  0
  6162  1  0  0  0  0
 19163  1  0  0  0  0
 25164  1  0  0  0  0
 26165  1  0  0  0  0
 27166  1  0  0  0  0
 28167  1  0  0  0  0
 35168  1  0  0  0  0
 41169  1  0  0  0  0
 43170  1  0  0  0  0
 44171  1  0  0  0  0
 51172  1  0  0  0  0
 54173  1  0  0  0  0
 57174  1  0  0  0  0
 57175  1  0  0  0  0
 58176  1  0  0  0  0
 58177  1  0  0  0  0
 59178  1  0  0  0  0
 59179  1  0  0  0  0
 60180  1  0  0  0  0
 60181  1  0  0  0  0
 61182  1  0  0  0  0
 61183  1  0  0  0  0
 61184  1  0  0  0  0
 62185  1  0  0  0  0
 62186  1  0  0  0  0
 62187  1  0  0  0  0
 63188  1  0  0  0  0
 63189  1  0  0  0  0
 63190  1  0  0  0  0
 64191  1  0  0  0  0
 64192  1  0  0  0  0
 64193  1  0  0  0  0
 69194  1  0  0  0  0
 76195  1  0  0  0  0
 77196  1  0  0  0  0
 77197  1  0  0  0  0
 78198  1  0  0  0  0
 78199  1  0  0  0  0
 79200  1  0  0  0  0
 79201  1  0  0  0  0
 79202  1  0  0  0  0
 80203  1  0  0  0  0
 80204  1  0  0  0  0
 80205  1  0  0  0  0
 83206  1  0  0  0  0
 86207  1  0  0  0  0
 99208  1  0  0  0  0
105209  1  0  0  0  0
106210  1  0  0  0  0
108211  1  0  0  0  0
115212  1  0  0  0  0
121213  1  0  0  0  0
123214  1  0  0  0  0
124215  1  0  0  0  0
131216  1  0  0  0  0
134217  1  0  0  0  0
137218  1  0  0  0  0
137219  1  0  0  0  0
138220  1  0  0  0  0
138221  1  0  0  0  0
139222  1  0  0  0  0
139223  1  0  0  0  0
140224  1  0  0  0  0
140225  1  0  0  0  0
141226  1  0  0  0  0
141227  1  0  0  0  0
141228  1  0  0  0  0
142229  1  0  0  0  0
142230  1  0  0  0  0
142231  1  0  0  0  0
143232  1  0  0  0  0
143233  1  0  0  0  0
143234  1  0  0  0  0
144235  1  0  0  0  0
144236  1  0  0  0  0
144237  1  0  0  0  0
149238  1  0  0  0  0
155239  1  0  0  0  0
156240  1  0  0  0  0
157241  1  0  0  0  0
157242  1  0  0  0  0
158243  1  0  0  0  0
158244  1  0  0  0  0
159245  1  0  0  0  0
159246  1  0  0  0  0
159247  1  0  0  0  0
160248  1  0  0  0  0
160249  1  0  0  0  0
160250  1  0  0  0  0
M  END
