248
PF3-DTC.sdf
C          6.57190       -2.22880       -1.25640
C          6.01390       -0.94610       -1.02120
C          4.99330       -0.47220       -1.80980
C          4.52820       -1.30920       -2.82230
C          5.14930       -2.54640       -3.11810
C          6.19000       -3.00820       -2.34570
C          3.34170       -1.24260       -3.61590
C          3.22520       -2.37100       -4.40980
C          4.40450       -3.27860       -4.21680
C          7.33560       -2.56820       -0.09330
C          7.22610       -1.56380        0.85410
C          6.59380       -0.34460        0.24360
S          1.93180       -0.22740       -3.61780
C          1.13680       -1.37590       -4.66850
C          1.97890       -2.45130       -5.02560
S          8.10400       -4.00690        0.49630
C          8.18650       -3.28710        2.08450
C          7.68790       -1.96730        2.10280
C         -1.57770       -3.06350       -6.39500
C         -1.92380       -4.14100       -7.17100
C         -0.99040       -5.08580       -7.80120
C         -1.80170       -5.91010       -8.71560
C         -3.15200       -5.53330       -8.60810
C         -3.26470       -4.47860       -7.60170
C         -1.39170       -6.91010       -9.57450
C         -2.35510       -7.54380      -10.34760
C         -3.68850       -7.17310      -10.25350
C         -4.10460       -6.16990       -9.38700
O          0.21040       -5.17640       -7.62320
C         -4.44350       -3.98830       -7.10250
C         -4.56860       -3.09410       -6.02380
C         -5.72220       -4.36150       -7.56730
N         -6.79520       -4.60410       -7.89550
N         -4.77540       -2.39650       -5.13390
C          8.09220       -3.27710        5.70710
C          7.32670       -2.76570        6.71930
C          6.40520       -1.62600        6.60510
C          5.36240       -1.86750        7.61910
C          5.72860       -2.97010        8.41470
C          7.02980       -3.45110        7.96930
C          4.13250       -1.26620        7.72610
C          3.18930       -1.81220        8.60730
C          3.55980       -2.89780        9.40950
C          4.82180       -3.46470        9.34300
O          6.46030       -0.69430        5.82410
C          7.81910       -4.36710        8.61070
C          9.08960       -4.77420        8.15340
C          7.46850       -4.97120        9.83560
N         10.12990       -5.13650        7.82990
N          7.22400       -5.48670       10.83160
C         -0.15370       -1.51350       -5.13740
C         -0.32560       -2.67810       -5.89350
S          1.17210       -3.59650       -6.02380
C          8.49080       -3.77550        3.34260
C          8.13980       -2.88300        4.35590
S          7.54410       -1.35990        3.70690
C          3.93940       -4.67760       -3.76700
C          5.25500       -3.41660       -5.49390
C          7.77330        0.60360       -0.10400
C          5.56750        0.33640        1.15230
C          4.44770       -0.60180        1.58600
C          7.42260        1.74750       -1.04230
C          5.68890       -2.07830       -6.07600
C          3.11640       -4.66040       -2.48450
C          1.83260       -1.31870        8.55110
S          0.49670       -2.45110        8.62210
C         -0.59050       -1.20230        8.17460
C          0.03430        0.03330        8.05010
C          1.41270       -0.04220        8.24360
C         -1.95170       -1.06670        7.80080
C         -2.20290        0.26180        7.47130
C         -0.94380        1.08980        7.58580
S         -3.30750       -2.08340        7.53870
C         -4.24320       -0.70770        6.99860
C         -3.51830        0.46560        7.05740
C         -1.08910        2.24130        8.59160
C         -0.45550        1.59650        6.20890
C         -1.43420        2.47940        5.44820
C         -1.45290        1.75530        9.98930
C         -5.93890        1.43720       -5.35020
C         -6.20360        2.80360       -5.09290
C         -7.25790        3.15660       -4.28530
C         -7.92100        2.12900       -3.61960
C         -7.57690        0.76410       -3.77980
C         -6.64170        0.40580       -4.72540
C         -8.81760        2.21640       -2.51430
C         -8.95210        0.97910       -1.90740
C         -8.25300       -0.08590       -2.71440
C         -4.69990        1.39030       -6.06430
C         -4.11390        2.64640       -6.09520
C         -5.11770        3.69320       -5.67560
S         -9.51280        3.53410       -1.63310
C         -9.86080        2.43000       -0.32900
C         -9.50880        1.09620       -0.63340
S         -3.68140        0.11120       -6.63460
C         -2.36840        1.25130       -6.76580
C         -2.75840        2.56560       -6.42580
C         -9.86200        1.57450        3.15520
C         -9.20110        0.72210        4.00250
C         -8.75180       -0.64080        3.67900
C         -7.71900       -0.96770        4.67410
C         -7.54740        0.13160        5.53820
C         -8.59680        1.11320        5.25850
C         -6.88790       -2.07060        4.75550
C         -5.80630       -2.01830        5.61540
C         -5.53160       -0.86620        6.36380
C         -6.44980        0.19520        6.37080
O         -9.12710       -1.33270        2.74860
C         -8.90940        2.18860        6.04680
C         -9.96240        3.09120        5.79220
C         -8.22650        2.50370        7.23930
N         -7.69300        2.81130        8.20850
N        -10.80440        3.85760        5.64180
C          1.08350        2.19710       -6.29460
C          1.79580        2.91700       -5.37290
C          1.21150        3.89320       -4.43690
C          2.09180        3.87170       -3.25160
C          3.26910        3.17020       -3.57730
C          3.12660        2.58330       -4.89800
C          1.85430        4.36110       -1.99020
C          2.82070        4.15830       -0.99120
C          4.04690        3.58430       -1.36410
C          4.28280        3.09240       -2.63150
O          0.22330        4.58210       -4.59500
C          4.05170        1.77740       -5.51590
C          5.27820        1.40880       -4.93250
C          3.87730        1.17300       -6.77570
N          6.27250        1.04330       -4.48680
N          3.79930        0.63860       -7.78990
C        -10.19600        2.63090        0.99450
C        -10.01770        1.47830        1.76370
S         -9.60430        0.08680        0.76550
C         -1.00400        1.09390       -6.92790
C         -0.29990        2.23690       -6.55200
S         -1.38110        3.56980       -6.18320
C         -7.23740       -0.77680       -1.77430
C         -9.24980       -1.09090       -3.31410
C         -5.61230        4.39480       -6.96180
C         -4.58930        4.66640       -4.60490
C         -3.72570        5.81090       -5.12110
C         -6.80340        5.32080       -6.75430
C        -10.38090       -0.41180       -4.07750
C         -6.53440       -2.01480       -2.31240
C          2.55100        4.46750        0.38590
S          1.02760        5.20120        0.85980
C          1.46150        5.06690        2.51080
C          2.72240        4.50820        2.69130
C          3.32830        4.16140        1.48860
C          0.88690        5.31970        3.78380
C          1.77250        4.91140        4.77150
C          3.04700        4.36780        4.16220
S         -0.56210        5.98400        4.42470
C          0.03300        5.72270        6.02400
C          1.27490        5.15830        6.05980
C          3.26940        2.87550        4.47440
C          4.21860        5.27600        4.58610
C          5.56500        4.91170        3.97490
C          3.61490        2.56270        5.92290
H          4.50730        0.47240       -1.61810
H          6.64450       -3.97220       -2.51610
H         -2.37660       -2.38310       -6.12020
H         -0.34880       -7.18110       -9.63220
H         -2.06570       -8.33030      -11.02810
H         -4.42360       -7.67400      -10.86540
H         -5.14710       -5.90120       -9.33710
H          8.61040       -4.20940        5.90380
H          3.87430       -0.44260        7.07960
H          2.82930       -3.31340       10.08810
H          5.06610       -4.30460        9.97330
H         -0.96080       -0.83510       -4.92740
H          8.87700       -4.75830        3.54340
H          4.81930       -5.30680       -3.62390
H          3.34290       -5.11080       -4.57270
H          4.67040       -3.96340       -6.23670
H          6.13760       -4.01160       -5.25100
H          8.55840        0.00520       -0.57180
H          8.16980        0.99960        0.83410
H          6.08670        0.70740        2.03940
H          5.13460        1.18730        0.62470
H          3.73350       -0.06760        2.20840
H          3.92170       -1.00120        0.72150
H          4.84430       -1.43380        2.16250
H          6.67410        2.39980       -0.60300
H          7.05550        1.36570       -1.99150
H          8.31280        2.34130       -1.23650
H          4.82860       -1.50500       -6.41350
H          6.33920       -2.24000       -6.93170
H          6.22980       -1.48720       -5.34020
H          3.68790       -4.23610       -1.66160
H          2.82840       -5.67400       -2.21680
H          2.21030       -4.07220       -2.61180
H          2.08900        0.79090        8.17880
H         -3.93250        1.41410        6.76850
H         -1.86530        2.92040        8.23700
H         -0.14650        2.79190        8.62890
H         -0.21740        0.72550        5.59280
H          0.47140        2.15010        6.37220
H         -2.32460        1.92320        5.17000
H         -1.72680        3.34520        6.03510
H         -0.96150        2.83580        4.53530
H         -2.39490        1.21230        9.97320
H         -0.68250        1.09570       10.38230
H         -1.55750        2.60170       10.66350
H         -7.51550        4.18280       -4.07360
H         -6.37070       -0.61960       -4.91940
H        -10.13380        2.54700        3.55010
H         -7.05940       -2.92760        4.12280
H         -5.11560       -2.84750        5.66310
H         -6.26790        1.05200        6.99870
H          1.58710        1.36110       -6.76690
H          0.92200        4.85780       -1.76570
H          4.83070        3.50940       -0.62780
H          5.23460        2.64410       -2.86180
H        -10.45750        3.58120        1.42370
H         -0.51800        0.17680       -7.20780
H         -6.48780       -0.03330       -1.48920
H         -7.78270       -1.06020       -0.86980
H         -8.70840       -1.75010       -3.99310
H         -9.66510       -1.69250       -2.50310
H         -5.89310        3.61900       -7.67920
H         -4.77820        4.95200       -7.38990
H         -4.01310        4.07990       -3.88500
H         -5.44050        5.08800       -4.06890
H         -3.29430        6.34130       -4.27560
H         -4.30950        6.51960       -5.70190
H         -2.90790        5.44740       -5.73520
H         -7.04060        5.82060       -7.69110
H         -7.67860        4.75860       -6.43980
H         -6.59100        6.08140       -6.00850
H         -9.98470        0.21380       -4.87470
H        -10.97910        0.21120       -3.41620
H        -11.03150       -1.16160       -4.52090
H         -7.24670       -2.79640       -2.56010
H         -5.93500       -1.79420       -3.18790
H         -5.87010       -2.40120       -1.54210
H          4.28610        3.68020        1.41840
H         -0.57980        6.01300        6.85440
H          1.79400        4.95010        6.97790
H          4.06840        2.50540        3.83020
H          2.35490        2.34120        4.20070
H          4.29250        5.25250        5.67430
H          3.96320        6.29950        4.29920
H          5.53380        4.99880        2.89240
H          6.32590        5.59520        4.34520
H          5.86210        3.90060        4.23910
H          2.81940        2.87960        6.59240
H          4.54000        3.04500        6.22490
H          3.75140        1.48900        6.02790
