266
PFBDT-IDTIC.sdf
C          0.04270       -7.07770        6.09320
C          0.20140       -6.80310        7.47510
C         -0.90040       -6.67380        8.28760
C         -2.15330       -6.84280        7.70060
C         -2.30400       -7.23600        6.34880
C         -1.20400       -7.35770        5.53360
C         -3.45490       -6.52280        8.19360
C         -4.41390       -6.74510        7.20260
C         -3.77480       -7.35990        5.98540
C          1.30940       -6.85650        5.46950
C          2.25590       -6.49440        6.43150
C          1.66020       -6.56200        7.81300
S         -4.05620       -5.66350        9.54470
C         -5.61310       -5.50510        8.74490
C         -5.64100       -6.20860        7.53120
S          1.88100       -6.70380        3.86400
C          3.41970       -6.10980        4.47160
C          3.45290       -6.10710        5.87470
C         -4.10840       -8.86480        5.87130
C         -4.13240       -6.60090        4.69980
C         -3.71220       -5.13600        4.74130
C         -5.59330       -9.16930        5.72410
C          2.27350       -7.78540        8.53500
C          1.88550       -5.26550        8.60320
C          1.64130       -8.12670        9.87750
C          1.37180       -4.03210        7.86910
C          4.45610       -5.54440        3.71830
C         -6.60180       -4.55740        9.05550
C         -6.50560       -3.46310        9.87680
C          4.51840       -5.22450        2.38560
C          3.49500       -5.52010        1.37320
C          3.89590       -4.77830        0.16400
C          5.08590       -4.07500        0.42680
C          5.55300       -4.42000        1.76940
C         -5.40710       -3.18150       10.81510
C         -5.41020       -1.72310       11.00310
C         -6.46710       -1.16550       10.25920
C         -7.29000       -2.25300        9.72740
C          3.25730       -4.67000       -1.05760
C          3.78930       -3.81970       -2.01250
C          4.93400       -3.06350       -1.74150
C          5.59180       -3.20130       -0.51320
C         -4.46580       -0.91230       11.60790
C         -4.48390        0.44170       11.32980
C         -5.42930        0.98800       10.44910
C         -6.48570        0.18580        9.98910
O          2.50600       -6.21980        1.50600
O         -4.61840       -3.98420       11.28150
C         -8.53490       -2.11600        9.17730
C          6.76400       -4.05830        2.29880
C          7.72130       -3.27790        1.61630
C          7.24800       -4.43460        3.56920
C         -9.19540       -0.87590        9.04930
C         -9.31650       -3.19210        8.70770
N          8.54240       -2.65040        1.11630
N          7.71290       -4.70300        4.58490
N         -9.99150       -4.03250        8.31240
N         -9.76990        0.10840        8.91260
C          5.44520       -2.10810       -2.70590
C          5.42870       -2.17170       -4.06470
C          6.05350       -1.06190       -4.69610
C          6.54250       -0.13410       -3.74750
S          6.20500       -0.64510       -2.12060
C          6.25200       -0.83020       -6.07280
C          7.04070        0.27000       -6.40770
C          7.54140        1.18640       -5.45130
C          7.25610        1.00920       -4.08880
S          7.47690        0.76070       -8.02360
C          8.30640        2.14710       -7.40960
C          8.25870        2.25410       -6.06680
C          5.61680       -1.66450       -7.07070
S          6.39850       -2.05400       -8.57760
C          5.03610       -2.95750       -9.13430
C          4.05340       -2.93200       -8.18860
C          4.36350       -2.21400       -7.01970
C          7.66010        1.98100       -3.08870
S          6.49290        2.58490       -1.94000
C          7.65160        3.63380       -1.19760
C          8.87410        2.56880       -2.89510
C          7.29500        4.50590       -0.04540
C          6.77280        3.69430        1.13930
C          8.85260        3.48690       -1.82380
F          9.94840        4.17650       -1.45960
C          4.98710       -3.54940      -10.49930
C          4.54780       -2.49500      -11.51970
F          2.87850       -3.56770       -8.34990
C          0.99500        4.23790       -5.16760
C          1.94810        3.24810       -5.51890
C          1.77990        2.51840       -6.67420
C          0.65730        2.78960       -7.45220
C         -0.27390        3.79990       -7.11680
C         -0.11010        4.53290       -5.96580
C          0.19680        2.16400       -8.64960
C         -0.98580        2.76740       -9.08340
C         -1.37930        3.88270       -8.15240
C          1.38490        4.77850       -3.90480
C          2.56310        4.17200       -3.46920
C          3.05680        3.16850       -4.48400
S          0.68640        0.84110       -9.61010
C         -0.71210        1.08340      -10.64640
C         -1.48790        2.17250      -10.21950
S          0.72430        5.87540       -2.77370
C          2.03270        5.50730       -1.65820
C          2.94430        4.59820       -2.21610
C         -1.37450        5.24760       -8.86650
C         -2.76330        3.63220       -7.52590
C         -2.85080        2.30080       -6.78950
C         -0.03700        5.57330       -9.51980
C          4.40080        3.69490       -5.04070
C          3.17050        1.80180       -3.76890
C          4.85550        3.12750       -6.37720
C          3.06620        0.54620       -4.62310
C          2.12310        5.92480       -0.32280
C         -1.07270        0.30000      -11.75110
C         -0.54740       -0.87970      -12.21380
C          1.19720        6.55940        0.46530
C         -0.13170        7.02760        0.04090
C         -0.90470        7.21240        1.27990
C         -0.08080        6.93770        2.38670
C          1.27760        6.68300        1.90670
C          0.53360       -1.64900      -11.58460
C          0.53820       -2.96230      -12.25320
C         -0.39140       -2.95050      -13.30790
C         -1.05330       -1.64610      -13.33620
C         -2.25130        7.48210        1.44440
C         -2.79960        7.36540        2.70880
C         -2.01560        6.98000        3.80450
C         -0.62970        6.82970        3.64700
C          1.28570       -4.08330      -11.95280
C          1.11390       -5.21340      -12.74010
C          0.21140       -5.20620      -13.79340
C         -0.55310       -4.08400      -14.08820
O         -0.52870        7.19270       -1.09860
O          1.29330       -1.28450      -10.70420
C         -1.95750       -1.23620      -14.28070
C          2.39680        6.60700        2.69210
C          2.37890        6.75600        4.09510
C          3.70670        6.41990        2.20570
C         -2.57010        0.03340      -14.33300
C         -2.38720       -2.03220      -15.36340
N          2.42320        6.86540        5.23690
N          4.79680        6.27910        1.87210
N         -2.78080       -2.62370      -16.26510
N         -3.10570        1.04300      -14.45020
C         -2.62680        6.56520        5.04930
C         -3.91450        6.15300        5.23340
C         -4.13070        5.47760        6.46070
C         -2.96200        5.46120        7.26040
S         -1.63760        6.25770        6.46170
C         -5.27100        4.76010        6.86940
C         -5.14810        4.01670        8.03790
C         -3.97380        3.98670        8.82820
C         -2.85470        4.75270        8.45150
S         -6.31210        2.85050        8.59550
C         -5.20430        2.27490        9.82770
C         -4.06120        3.02050        9.86130
C         -6.48210        4.69980        6.07280
S         -8.04180        4.83100        6.83810
C         -8.87500        4.61650        5.33950
C         -7.96720        4.45430        4.33530
C         -6.61510        4.50410        4.72760
C         -1.61400        4.73420        9.20430
S         -0.77920        6.22140        9.55830
C          0.49240        5.39310       10.38640
C         -0.93250        3.66170        9.70390
C          1.63230        6.11910       11.01130
C          1.16220        7.05510       12.12490
C          0.24930        4.05200       10.36410
F          1.07670        3.15260       10.92950
C        -10.36110        4.56290        5.26840
C        -10.89310        3.26780        5.88630
F         -8.32800        4.26350        3.05200
H         -0.82410       -6.38660        9.32470
H         -1.28780       -7.59340        4.48380
H         -6.51710       -6.22170        6.90710
H          4.31970       -5.77700        6.41960
H         -3.56400       -9.27010        5.01580
H         -3.73270       -9.36120        6.76960
H         -5.21090       -6.65510        4.54830
H         -3.64870       -7.09360        3.85440
H         -4.19610       -4.61920        5.56760
H         -3.99560       -4.64120        3.81550
H         -2.63540       -5.04400        4.86400
H         -5.74200      -10.24620        5.69710
H         -6.15360       -8.76970        6.56540
H         -5.99480       -8.75170        4.80490
H          3.33900       -7.59030        8.67450
H          2.17820       -8.64870        7.87140
H          2.95520       -5.15650        8.79280
H          1.37930       -5.34070        9.56550
H          1.74570       -7.30910       10.58530
H          0.58620       -8.35980        9.76070
H          2.13730       -8.99900       10.29700
H          1.88390       -3.90440        6.91800
H          1.54200       -3.14270        8.47090
H          0.30450       -4.11690        7.67490
H          5.29570       -5.23210        4.32850
H         -7.46560       -4.60430        8.40130
H          2.35370       -5.22880       -1.24710
H          3.29700       -3.70700       -2.96640
H          6.47910       -2.61860       -0.32460
H         -3.69520       -1.34510       12.22680
H         -3.71860        1.07570       11.74830
H         -7.24420        0.61920        9.35600
H          5.04810       -3.01880       -4.60520
H          8.78420        2.80730       -8.10690
H          8.70340        3.06180       -5.51580
H          3.66580       -2.07250       -6.21560
H          9.76160        2.33570       -3.45400
H          8.18430        5.06630        0.24910
H          6.52770        5.22460       -0.34700
H          5.91000        3.10120        0.84060
H          6.47130        4.36720        1.93660
H          7.54160        3.02190        1.51280
H          4.27880       -4.38120      -10.49570
H          5.97140       -3.93610      -10.77080
H          4.45100       -2.94270      -12.50570
H          3.59090       -2.06520      -11.23190
H          5.28250       -1.69440      -11.56920
H          2.46660        1.75120       -6.98950
H         -0.80460        5.30280       -5.66620
H         -2.38200        2.46830      -10.73950
H          3.81320        4.25590       -1.68210
H         -2.15810        5.24260       -9.62680
H         -1.61910        6.02130       -8.13620
H         -3.51240        3.65810       -8.31970
H         -2.98260        4.44490       -6.83100
H         -2.12140        2.25800       -5.98350
H         -3.84290        2.17630       -6.36250
H         -2.66310        1.47080       -7.46690
H          0.21670        4.83020      -10.27240
H          0.75860        5.59720       -8.77820
H         -0.08660        6.54610      -10.00260
H          4.30900        4.77920       -5.15000
H          5.16690        3.50550       -4.28660
H          4.12050        1.79080       -3.23020
H          2.37390        1.75620       -3.02090
H          5.82940        3.54390       -6.62560
H          4.95260        2.04720       -6.33990
H          4.16330        3.39350       -7.17130
H          2.08450        0.46710       -5.08280
H          3.20980       -0.32240       -3.98230
H          3.82570        0.51990       -5.39810
H          3.02540        5.58000        0.17020
H         -1.94140        0.68220      -12.27450
H         -2.86140        7.73460        0.59090
H         -3.85460        7.54170        2.84810
H         -0.02670        6.56320        4.50080
H          1.96620       -4.07010      -11.11670
H          1.68310       -6.10660      -12.53050
H          0.09030       -6.09390      -14.39580
H         -1.25710       -4.11360      -14.90360
H         -4.68510        6.27120        4.49560
H         -3.26630        2.85970       10.56450
H         -5.80030        4.34360        4.04620
H         -1.21930        2.63500        9.56970
H          2.15240        6.70190       10.24660
H          2.32970        5.38070       11.41290
H          0.65570        6.49320       12.90650
H          2.01250        7.57020       12.56380
H          0.47220        7.79640       11.72780
H        -10.78470        5.41790        5.80060
H        -10.66010        4.62440        4.21970
H        -11.97810        3.24720        5.83290
H        -10.50320        2.40420        5.35280
H        -10.59320        3.19180        6.92890
