148
Ph-DTDP-TIC.sdf
C         -1.17020        3.71110        3.45620
C         -1.07140        4.44050        4.66840
C          1.24010       -2.64480        2.08230
C         -0.49780       -3.66850        0.59120
C         -1.75320        2.67230       -2.33730
C         -3.44130        2.00160       -0.59490
C         -0.61360        3.38260       -2.68980
C         -0.35430        3.67470       -4.01520
C         -1.21950        3.25870       -5.01880
C         -2.36010        2.55370       -4.65800
C         -2.62910        2.26320       -3.33330
C         -4.30840        3.06950       -0.40330
C         -5.64570        2.84870       -0.13680
C         -6.15360        1.55800       -0.06440
C         -5.28340        0.49460       -0.26490
C         -3.94260        0.70890       -0.52700
C          0.46900       -2.94830        3.19670
C          1.01850       -2.88040        4.46310
C          2.34500       -2.51280        4.64860
C          3.11090       -2.21690        3.52870
C          2.56550       -2.27360        2.25990
C         -0.17620       -5.01410        0.46840
C         -1.17140       -5.96740        0.37710
C         -2.51150       -5.60360        0.41540
C         -2.82640       -4.25780        0.54520
C         -1.83460       -3.29780        0.63260
C          2.94650       -2.48550        6.02350
C         -3.59180       -6.63660        0.27410
C         -7.59780        1.31590        0.26670
C         -0.89830        3.50660       -6.46410
S         -0.90570        1.98740        3.42780
C         -1.12640        1.94570        1.71720
C         -1.41380        3.20640        1.21200
C         -1.43530        4.20400        2.19290
C         -0.84880        0.85880        0.83510
C         -1.13530        1.07880       -0.52570
C         -1.97150        2.29490       -0.88440
O         -1.58120        3.44180       -0.10220
C         -0.24140       -0.33130        1.24230
C          0.12000       -1.27820        0.31160
C         -0.06270       -1.00520       -1.05840
C         -0.71080        0.16380       -1.46180
C          0.63970       -2.65410        0.68910
O          1.68830       -3.07490       -0.20710
C          1.43880       -2.87800       -1.51250
C          0.53320       -1.92950       -1.96750
C          2.10950       -3.54180       -2.54650
C          1.71630       -3.11050       -3.79660
S          0.48740       -1.87440       -3.69280
C          3.50340       -3.86310        6.38850
C         -3.92320       -6.86500       -1.20220
C         -0.10570        2.32910       -7.03670
C         -7.78130        1.16100        1.77790
C          2.21370       -3.52740       -5.05510
C         -0.35750        5.15620        8.38570
C         -0.19890        6.14320        9.32320
C         -0.25240        7.61190        9.14050
C          0.17580        8.19040       10.42930
C          0.42370        7.16300       11.35380
C          0.15430        5.87880       10.70930
C          0.33880        9.52180       10.75810
C          0.76430        9.83230       12.04170
C          1.01750        8.82360       12.96020
C          0.85170        7.48420       12.63300
O         -0.57140        8.24820        8.15660
C          0.19370        4.66440       11.34400
C         -0.11890        3.40840       10.78120
C          0.53690        4.49200       12.70230
N         -0.36300        2.34320       10.42580
N          0.80700        4.27060       13.79610
C          4.43610       -5.36530       -7.60790
C          4.80960       -5.41970       -8.92530
C          4.39840       -4.53820      -10.04230
C          5.28020       -4.89070      -11.17280
C          6.12680       -5.94910      -10.80520
C          5.81570       -6.33980       -9.43150
C          5.33490       -4.31700      -12.42800
C          6.26240       -4.81070      -13.33410
C          7.10830       -5.85080      -12.97670
C          7.05310       -6.43200      -11.71660
O          3.53160       -3.68810      -10.06510
C          6.34990       -7.42520       -8.78710
C          6.00410       -7.88730       -7.49900
C          7.32080       -8.28070       -9.35050
N          5.77670       -8.35010       -6.47230
N          8.11260       -9.01550       -9.73950
S         -0.63950        3.67390        6.15530
C         -0.67770        5.20320        7.01690
C         -1.03280        6.22930        6.15070
C         -1.24990        5.80730        4.85030
S          3.46040       -4.71870       -5.18150
C          3.50380       -4.55880       -6.93070
C          2.56230       -3.62750       -7.34900
C          1.84840       -3.05650       -6.30910
H          0.06920        3.70590       -1.91880
H          0.53700        4.22800       -4.27480
H         -3.04770        2.22450       -5.42390
H         -3.52000        1.71020       -3.07530
H         -3.92520        4.07730       -0.46620
H         -6.30610        3.69120        0.01050
H         -5.65940       -0.51760       -0.21830
H         -3.28950       -0.13650       -0.68810
H         -0.56540       -3.23470        3.07510
H          0.40510       -3.11320        5.32150
H          4.14540       -1.92960        3.65100
H          3.17020       -2.03490        1.39840
H          0.86290       -5.30760        0.44570
H         -0.90380       -7.00990        0.28190
H         -3.86300       -3.95380        0.58210
H         -2.10820       -2.25830        0.74290
H          2.18730       -2.19930        6.75380
H          3.75230       -1.74990        6.06150
H         -3.26330       -7.57810        0.71840
H         -4.49100       -6.30630        0.79810
H         -8.20350        2.15320       -0.08520
H         -7.94500        0.40890       -0.23230
H         -0.30920        4.42010       -6.56350
H         -1.82130        3.63020       -7.03390
H         -1.62040        5.23880        1.97640
H         -0.06590       -0.49420        2.29510
H         -0.87410        0.33220       -2.51580
H          2.85990       -4.29440       -2.38900
H          4.27540       -4.15890        5.68160
H          2.71270       -4.60950        6.36260
H          3.93360       -3.84670        7.38700
H         -4.26160       -5.93900       -1.66190
H         -4.70760       -7.61110       -1.30470
H         -3.04250       -7.21080       -1.73870
H          0.82510        2.19770       -6.48950
H         -0.68200        1.41030       -6.95470
H          0.12820        2.50080       -8.08460
H         -8.82760        0.98740        2.01790
H         -7.19590        0.32170        2.14670
H         -7.45110        2.06010        2.29340
H         -0.18260        4.14550        8.73590
H          0.13800       10.28800       10.02500
H          0.90130       10.86400       12.32890
H          1.35180        9.08150       13.95400
H          1.05990        6.72440       13.36790
H          4.96370       -6.03960       -6.94310
H          4.66840       -3.50700      -12.68140
H          6.32910       -4.38310      -14.32320
H          7.82810       -6.22010      -13.69190
H          7.72620       -7.23570      -11.46780
H         -1.11890        7.24940        6.47690
H         -1.52830        6.46690        4.04910
H          2.42290       -3.38060       -8.38520
H          1.08340       -2.31090       -6.43690
