132
PI-4F.mol
O          7.51900       -0.38740        1.18010
C          7.83410        0.39600        2.05090
C          9.16370        0.45740        2.69940
C          9.19310        1.50970        3.62710
C         10.34330        1.74740        4.36410
C         11.43670        0.92190        4.14850
F         12.55420        1.13110        4.85320
C         11.39880       -0.11890        3.21970
F         12.47880       -0.88980        3.04390
C         10.25290       -0.36270        2.48080
C          7.03080        1.45450        2.69610
C          7.89510        2.18310        3.60990
C          7.60310        3.33060        4.29940
C          8.50840        3.98380        5.16410
N          9.19010        4.56390        5.88220
C          6.39370        4.05700        4.24090
N          5.45980        4.72560        4.24310
C          5.68440        1.69730        2.58130
C          4.69460        1.12370        1.76860
C          4.73590        0.20100        0.72470
C          3.47980       -0.06160        0.21090
C          2.45890        0.64230        0.85120
S          3.03890        1.66210        2.08700
C          1.18730        0.29570        0.30570
C          1.41740       -0.67840       -0.69660
C          2.90170       -0.96420       -0.84860
C          3.30290       -0.57820       -2.26270
C          3.73190        0.70710       -2.56180
C          4.05160        1.05440       -3.86150
C          3.94400        0.13330       -4.89450
C          4.25090        0.52640       -6.31030
C          2.99940        1.08150       -6.99370
C          3.49940       -1.14730       -4.59150
C          3.18090       -1.50060       -3.29420
C          3.30500       -2.39020       -0.51860
C          4.58900       -2.81650       -0.83820
C          5.00350       -4.09300       -0.51470
C          4.15200       -4.97540        0.13920
C          4.62220       -6.34750        0.52660
C          5.31690       -6.30710        1.88940
C          2.87730       -4.53820        0.46970
C          2.45630       -3.25920        0.15020
C          0.36800       -1.22600       -1.39700
C         -0.91430       -0.79240       -1.06610
C         -1.14120        0.19580       -0.07630
C         -2.62410        0.47490        0.08990
C         -3.21300       -0.52620       -0.86910
C         -2.19550       -1.20440       -1.54210
S         -2.79660       -2.32990       -2.67320
C         -4.45710       -1.91150       -2.22520
C         -5.46930       -2.62060       -2.89030
C         -6.82940       -2.65800       -2.70550
C         -7.63220       -2.02820       -1.63680
C         -8.98870       -2.60680       -1.76720
C        -10.08700       -2.38290       -0.96050
C        -11.25780       -3.05530       -1.26930
F        -12.34710       -2.87380       -0.51300
C        -11.31050       -3.92510       -2.35940
F        -12.45170       -4.56860       -2.62920
C        -10.20830       -4.14420       -3.17230
C         -9.03330       -3.47310       -2.87000
O         -7.30050       -1.21480       -0.80030
C         -7.71930       -3.47730       -3.51190
C         -7.43200       -4.10040       -4.69770
C         -8.36120       -4.87470       -5.42620
N         -9.06420       -5.51790       -6.06580
C         -6.20460       -4.04260       -5.39340
N         -5.25400       -4.03770       -6.03830
C         -4.48260       -0.91320       -1.25350
C         -3.00060        0.24480        1.54170
C         -3.40220       -1.00550        1.98940
C         -3.69420       -1.21030        3.32540
C         -3.58520       -0.17790        4.24700
C         -3.85530       -0.41490        5.70450
C         -2.57140       -0.83750        6.42180
C         -3.17110        1.06850        3.79510
C         -2.88110        1.27960        2.46080
C         -3.04220        1.85770       -0.38390
C         -4.33840        2.28990       -0.12720
C         -4.76620        3.52340       -0.57620
C         -3.91710        4.35440       -1.29760
C         -4.37100        5.71520       -1.73980
C         -4.14070        6.74170       -0.62880
C         -2.62800        3.91260       -1.55810
C         -2.19370        2.67580       -1.11410
C         -0.09270        0.74500        0.62230
H         10.42480        2.53470        5.09510
H         10.21690       -1.16620        1.76250
H          5.28860        2.45130        3.25190
H          5.65370       -0.24110        0.38550
H          3.82440        1.44360       -1.77680
H          4.39300        2.05730       -4.07460
H          5.03420        1.28680       -6.32190
H          4.60890       -0.34210       -6.86650
H          2.20900        0.33440       -7.00080
H          3.22050        1.36330       -8.02040
H          2.63560        1.95860       -6.46300
H          3.40500       -1.87950       -5.38060
H          2.85000       -2.50620       -3.07870
H          5.26300       -2.14630       -1.35080
H          6.00310       -4.40970       -0.77430
H          5.32220       -6.72370       -0.22210
H          3.77260       -7.03150        0.57530
H          6.17180       -5.63540        1.85810
H          4.63000       -5.94990        2.65360
H          5.66350       -7.29910        2.16950
H          2.20080       -5.20580        0.98450
H          1.46020       -2.94250        0.42410
H          0.51910       -1.97230       -2.16130
H         -5.08460       -3.27570       -3.66340
H        -10.03830       -1.71230       -0.11760
H        -10.30250       -4.82730       -4.00010
H         -5.40010       -0.52210       -0.85660
H         -3.49460       -1.82550        1.29210
H         -4.01420       -2.18820        3.65550
H         -4.60680       -1.19830        5.81990
H         -4.23930        0.49820        6.16340
H         -2.17810       -1.75320        5.98560
H         -1.81370       -0.06260        6.32980
H         -2.76490       -1.01070        7.47770
H         -3.07810        1.88590        4.49580
H         -2.57310        2.26030        2.12780
H         -5.01080        1.65840        0.43440
H         -5.77630        3.84500       -0.36750
H         -3.81860        6.01900       -2.63100
H         -5.43370        5.68760       -1.98870
H         -4.47010        7.72760       -0.94770
H         -4.69410        6.46260        0.26500
H         -3.08430        6.79350       -0.37470
H         -1.95180        4.54060       -2.12060
H         -1.18750        2.35320       -1.33940
H         -0.24440        1.48830        1.38950
