210
PIDIC2T2F.sdf
C          5.13320        2.47830       -2.65420
C          4.57880        1.58570       -3.60110
C          5.05440        0.30070       -3.69700
C          6.08000       -0.07190       -2.83050
C          6.65740        0.82480       -1.89510
C          6.18560        2.11650       -1.81360
C          6.70700       -1.34150       -2.66450
C          7.66120       -1.26820       -1.65010
C          7.72000        0.12310       -1.06370
C          4.35850        3.67610       -2.71660
C          3.35070        3.56240       -3.67480
C          3.41400        2.21710       -4.34370
S          6.55440       -2.89340       -3.35620
C          7.79750       -3.49250       -2.27130
C          8.27820       -2.47810       -1.42750
S          4.30040        5.15860       -1.87310
C          2.84130        5.61800       -2.76150
C          2.51950        4.66630       -3.72490
C          9.15160        0.67960       -1.25380
C          7.31030       -0.01750        0.42070
C          7.20850        1.26150        1.23830
C          9.28930        2.18780       -1.42310
C          2.15550        1.37250       -4.04700
C          3.68490        2.33110       -5.85220
C          0.84140        1.91080       -4.59630
C          4.99370        3.04980       -6.15810
C          2.14560        6.74500       -2.28880
C          8.28220       -4.80390       -2.19550
C          7.94110       -5.92890       -2.90470
C          0.80020        7.00820       -2.35300
C         -0.25830        6.13490       -2.90470
C         -1.48190        6.50390       -2.17620
C         -1.23820        7.61260       -1.34900
C          0.14430        8.04180       -1.56940
C          6.93510       -6.00380       -3.97100
C          6.90980       -7.41220       -4.40950
C          7.84600       -8.14920       -3.66380
C          8.50920       -7.24920       -2.71860
C         -2.69030        5.83500       -2.15720
C         -3.62480        6.21770       -1.21630
C         -3.36860        7.26550       -0.32220
C         -2.18980        8.01560       -0.42890
C          6.13010       -8.00050       -5.38520
C          6.29030       -9.35890       -5.62100
C          7.21170      -10.09440       -4.89040
C          7.99760       -9.50490       -3.90810
O         -0.18020        5.25790       -3.74210
O          6.25440       -5.09860       -4.41940
C          9.48780       -7.62190       -1.83320
C          0.69000        9.21530       -1.12730
C         -0.04290       10.19780       -0.42800
C          2.02490        9.61470       -1.34540
C         10.14960       -6.77380       -0.92090
C          9.98450       -8.93630       -1.70650
N         -0.59280       11.03650        0.12960
N          3.10010        9.99640       -1.47380
N         10.43680       -9.97940       -1.54450
N         10.74180       -6.16090       -0.14990
C         -4.27360        7.44640        0.79540
C         -4.60220        8.54170        1.54510
C         -5.47570        8.22470        2.60240
C         -5.80220        6.89340        2.70540
S         -5.03240        6.01470        1.42600
C         -6.60490        6.15430        3.63830
C         -7.81270        6.42880        4.23430
C         -8.36580        5.36370        4.97150
C         -7.55780        4.26130        4.97740
S         -6.10660        4.54690        4.06090
C         -3.61700       -5.25180        0.85320
C         -3.49120       -5.46410        2.24660
C         -4.60320       -5.40730        3.05270
C         -5.82640       -5.15140        2.43510
C         -5.97610       -5.13210        1.02470
C         -4.85940       -5.17730        0.22380
C         -7.06110       -4.69840        2.99380
C         -8.00060       -4.49690        1.98190
C         -7.43130       -4.89890        0.64220
C         -2.30690       -4.96620        0.35700
C         -1.36360       -5.09570        1.38040
C         -2.03040       -5.55780        2.64910
S         -7.50960       -3.99330        4.48380
C         -8.98830       -3.39030        3.75420
C         -9.12150       -3.82840        2.42940
S         -1.70550       -4.13830       -1.00940
C         -0.15700       -3.92730       -0.20540
C         -0.13070       -4.58620        1.03350
C         -8.07230       -6.20270        0.12720
C         -7.63020       -3.73150       -0.35080
C         -7.44150       -4.04830       -1.83030
C         -8.04690       -7.32920        1.15340
C         -1.65480       -7.01030        3.00640
C         -1.68550       -4.63360        3.82970
C         -1.94050       -7.99840        1.88280
C         -2.05860       -3.17600        3.58510
C          0.81650       -2.96270       -0.52290
C         -9.80120       -2.35600        4.25790
C         -9.44970       -1.36290        5.13280
C          0.62500       -1.76490       -1.16430
C         -0.64340       -1.31930       -1.76530
C         -0.68130        0.13790       -1.55580
C          0.55070        0.56260       -1.02450
C          1.44700       -0.59270       -0.94040
C         -8.14930       -1.25000        5.81340
C         -7.90370        0.19660        5.93720
C         -9.04900        0.90400        5.52580
C        -10.09990       -0.06510        5.20860
C         -1.74980        1.00650       -1.67870
C         -1.61510        2.29050       -1.18160
C         -0.41490        2.71110       -0.59920
C          0.69620        1.85870       -0.57270
C         -6.71650        0.84770        6.21380
C         -6.64670        2.20600        5.96530
C         -7.75310        2.91230        5.48050
C         -8.98740        2.26980        5.31960
O         -1.50270       -2.01200       -2.27650
O         -7.40710       -2.15490        6.14480
C        -11.42400        0.20970        5.01610
C          2.78680       -0.54950       -0.66470
C          3.64000       -1.67170       -0.66480
C          3.46890        0.64230       -0.35480
C        -12.39110       -0.77730        4.72900
C        -11.96620        1.50700        5.12950
N          4.39230       -2.53890       -0.65880
N          4.05360        1.58680       -0.06370
N        -12.43950        2.54880        5.21460
N        -13.20720       -1.54920        4.49470
C         -0.34170        3.99130        0.06850
C         -1.34250        4.63200        0.75170
C          0.42780        6.11330        1.15760
S          1.15500        4.85790        0.20290
C          1.19580        7.25440        1.55010
C          0.79880        8.45050        2.10830
C          1.83750        9.38100        2.30220
C          3.03540        8.89260        1.88980
S          2.91360        7.29850        1.26870
F         -5.91870        9.14490        3.46280
F         -8.45150        7.59130        4.07510
C         -0.89880        5.80540        1.37430
F         -1.71920        6.53040        2.14330
F         -0.46720        8.74140        2.41900
H          4.65270       -0.41650       -4.39670
H          6.57520        2.83790       -1.11600
H          9.04420       -2.66720       -0.69630
H          1.71470        4.80550       -4.41910
H          9.75150        0.35440       -0.40150
H          9.57350        0.20900       -2.14610
H          6.34250       -0.52640        0.44580
H          8.03950       -0.68210        0.89070
H          8.14620        1.80910        1.23670
H          6.41130        1.89740        0.86740
H          6.97460        1.00170        2.26910
H          8.90140        2.73100       -0.56750
H          8.77020        2.52620       -2.31620
H         10.34360        2.43570       -1.53020
H          2.07190        1.28810       -2.96080
H          2.32460        0.36960       -4.44640
H          2.86190        2.87690       -6.31480
H          3.71240        1.32650       -6.27870
H          0.59390        2.87490       -4.16290
H          0.04110        1.21620       -4.34720
H          0.87550        2.00800       -5.67750
H          4.98330        4.05830       -5.75060
H          5.83840        2.51470       -5.72950
H          5.13910        3.11690       -7.23350
H          2.73560        7.39290       -1.65010
H          9.04730       -4.92460       -1.43790
H         -2.86480        5.01390       -2.83530
H         -4.56170        5.68560       -1.13830
H         -2.01090        8.82260        0.26260
H          5.42010       -7.40730       -5.94090
H          5.69500       -9.84760       -6.37770
H          7.32460      -11.15020       -5.08650
H          8.70490      -10.10360       -3.35830
H         -4.24970        9.53920        1.35850
H         -9.31470        5.42950        5.47140
H         -4.54110       -5.47640        4.12770
H         -4.90720       -5.08510       -0.84870
H         -9.97450       -3.56270        1.83030
H          0.73810       -4.56840        1.66740
H         -7.53570       -6.52520       -0.76560
H         -9.10700       -5.98970       -0.14880
H         -8.64710       -3.35570       -0.21920
H         -6.94530       -2.92950       -0.06390
H         -6.45570       -4.44960       -2.04080
H         -8.18680       -4.75740       -2.17940
H         -7.55680       -3.13120       -2.40420
H         -7.02540       -7.56710        1.44180
H         -8.50040       -8.22250        0.73070
H         -8.60140       -7.05490        2.04770
H         -0.59140       -7.03880        3.25270
H         -2.21530       -7.30120        3.89700
H         -2.20580       -4.99380        4.71880
H         -0.61310       -4.70560        4.02180
H         -2.99980       -8.00780        1.63600
H         -1.65030       -9.00050        2.18850
H         -1.38110       -7.73780        0.98740
H         -1.53740       -2.78150        2.71520
H         -3.12860       -3.07350        3.41900
H         -1.78660       -2.57380        4.44850
H          1.74900       -3.08110        0.02070
H        -10.72650       -2.21970        3.70770
H         -2.67690        0.66660       -2.11390
H         -2.44480        2.97820       -1.22430
H          1.61760        2.20970       -0.13500
H         -5.85720        0.29190        6.55540
H         -5.71480        2.73270        6.10750
H         -9.83530        2.82600        4.95270
H         -2.34990        4.27130        0.84820
H          1.67480       10.35850        2.71550
H          3.98980        9.37800        1.90550
