210
PIDIC2T2Cl.sdf
C          3.67990        2.01740       -1.05530
C          5.06060        2.03040       -1.37520
C          5.69560        3.22800       -1.60610
C          4.93820        4.39220       -1.48620
C          3.55970        4.37820       -1.15930
C          2.92360        3.18140       -0.92510
C          5.31750        5.75870       -1.63260
C          4.22980        6.60020       -1.40020
C          3.00010        5.78840       -1.08600
C          3.29030        0.65050       -0.94960
C          4.37750       -0.19340       -1.19220
C          5.62150        0.61930       -1.44890
S          6.74040        6.60850       -2.03560
C          5.86690        8.14140       -1.92280
C          4.53370        7.93880       -1.57540
S          1.84770       -0.19900       -0.63240
C          2.70360       -1.73870       -0.81960
C          4.05520       -1.53240       -1.10010
C          2.48200        6.03610        0.34440
C          1.95530        6.07700       -2.18550
C          0.65680        5.28800       -2.09180
C          1.93060        7.43020        0.60670
C          6.20260        0.38150       -2.85620
C          6.61430        0.32200       -0.30350
C          6.77820       -1.00820       -3.09460
C          7.92530        1.09530       -0.34450
C          1.92520       -2.89910       -0.72800
C          6.62220        9.29370       -2.19900
C          6.28500       10.62140       -2.25860
C          2.25140       -4.23340       -0.81720
C          3.59230       -4.85700       -0.86130
C          3.35810       -6.31140       -0.81660
C          1.97820       -6.57190       -0.78810
C          1.26410       -5.29430       -0.82150
C          4.95790       11.25170       -2.07500
C          5.15340       12.68680       -2.35650
C          6.50080       12.93280       -2.66480
C          7.23750       11.67250       -2.58220
C          4.28460       -7.33690       -0.79700
C          3.83020       -8.64210       -0.74280
C          2.45950       -8.92670       -0.70630
C          1.52910       -7.87550       -0.73330
C          4.21080       13.69620       -2.34620
C          4.62610       14.98300       -2.65640
C          5.95450       15.23530       -2.96770
C          6.90450       14.22240       -2.97580
O          4.68530       -4.32640       -0.90590
O          3.90260       10.73730       -1.76240
C          8.59180       11.55140       -2.75760
C         -0.10020       -5.16410       -0.91290
C         -1.01070       -6.23950       -0.96880
C         -0.82390       -3.95960       -1.01580
C          9.35890       10.37190       -2.64610
C          9.44970       12.62860       -3.06860
N         -1.83180       -7.04070       -1.03150
N         -1.51350       -3.04560       -1.12450
N         10.21270       13.44750       -3.32450
N         10.07490        9.47620       -2.57090
C          1.98340      -10.29120       -0.63450
C          2.68040      -11.45620       -0.43250
C          1.86120      -12.60080       -0.40060
C          0.52450      -12.33110       -0.57820
S          0.28670      -10.62250       -0.79970
C         -0.66550      -13.13270       -0.56460
C         -1.11000      -14.12310        0.28170
C         -2.48690      -14.41250        0.15260
C         -3.10040      -13.66700       -0.81240
S         -1.95720      -12.62420       -1.60920
C         -4.34220       -2.57090       -0.06790
C         -4.89260       -3.53580        0.80980
C         -5.57520       -4.61820        0.31010
C         -5.65700       -4.73720       -1.07640
C         -5.07510       -3.79070       -1.95620
C         -4.44750       -2.67550       -1.45320
C         -6.22960       -5.76680       -1.87920
C         -6.01160       -5.50460       -3.23250
C         -5.25950       -4.20860       -3.40590
C         -3.69330       -1.59360        0.74200
C         -3.82160       -1.91310        2.09660
C         -4.60030       -3.18880        2.25610
S         -6.96950       -7.27950       -1.58470
C         -6.88530       -7.64690       -3.29880
C         -6.39340       -6.56030       -4.03510
S         -2.79850       -0.17030        0.48510
C         -2.60320        0.03770        2.23350
C         -3.21280       -1.00360        2.93620
C         -3.91280       -4.55270       -4.08150
C         -6.07990       -3.13640       -4.14630
C         -6.42200       -3.47940       -5.59010
C         -2.95140       -3.39170       -4.29780
C         -5.89240       -2.96660        3.06340
C         -3.74750       -4.27920        2.93300
C         -6.78980       -1.89170        2.46240
C         -2.47160       -4.60010        2.16350
C         -1.90300        1.17990        2.63980
C         -6.94970       -8.93640       -3.84950
C         -6.97690      -10.13590       -3.18620
C         -1.63490        1.70450        3.88280
C         -2.06110        1.21300        5.21270
C         -1.64030        2.24780        6.17380
C         -0.96540        3.27820        5.49860
C         -0.91130        2.94370        4.07600
C         -7.28730      -10.34460       -1.76030
C         -6.62030      -11.60610       -1.39250
C         -5.94140      -12.10020       -2.52280
C         -6.38690      -11.35430       -3.69990
C         -1.83630        2.29750        7.54170
C         -1.35510        3.39040        8.23780
C         -0.68270        4.43190        7.58480
C         -0.48890        4.36880        6.19640
C         -6.38200      -12.13740       -0.13690
C         -5.31350      -13.00450        0.01700
C         -4.48660      -13.31210       -1.06920
C         -4.86440      -12.94580       -2.36750
O         -2.63580        0.18080        5.49900
O         -7.89180       -9.58770       -1.02470
C         -6.22380      -11.74700       -4.99880
C         -0.24910        3.68800        3.13030
C          0.43070        4.89280        3.40250
C         -0.11080        3.38270        1.76370
C         -5.61250      -12.96850       -5.35140
C         -6.68860      -11.01540       -6.11070
N          1.00250        5.88050        3.53550
N          0.08360        3.23850        0.63890
N         -7.04750      -10.45190       -7.04450
N         -5.12400      -13.95590       -5.67300
C         -0.19170        5.56520        8.33190
C          0.53320        6.64070        7.88330
C          0.35940        7.21160       10.14640
S         -0.49370        5.70240       10.04080
C          0.49350        7.91320       11.37820
C          0.00780        7.56840       12.62360
C          0.32330        8.49130       13.64080
C          1.04870        9.53840       13.17170
S          1.36010        9.42150       11.48960
Cl         2.50440      -14.18140       -0.22710
Cl        -0.14180      -14.84850        1.49650
C          0.84040        7.55810        8.89720
Cl         1.74060        8.98700        8.59220
Cl        -0.90250        6.14730       12.92770
H          6.73730        3.29240       -1.87820
H          1.88500        3.12080       -0.64170
H          3.84720        8.75860       -1.47610
H          4.73490       -2.35550       -1.21460
H          3.30850        5.84680        1.03460
H          1.70950        5.29710        0.55710
H          2.42560        5.87140       -3.15150
H          1.73420        7.14490       -2.15330
H          0.19120        5.39960       -1.11730
H          0.82520        4.23140       -2.27560
H         -0.03870        5.65420       -2.84440
H          1.60880        7.48760        1.64390
H          1.07360        7.64330       -0.02600
H          2.68760        8.19120        0.44100
H          5.40160        0.56460       -3.57780
H          6.97750        1.12770       -3.03690
H          6.82420       -0.74860       -0.31720
H          6.10530        0.54200        0.63890
H          7.14680       -1.07360       -4.11600
H          6.02160       -1.77520       -2.96000
H          7.60730       -1.21460       -2.42390
H          8.56700        0.75330        0.46470
H          7.75600        2.15970       -0.20940
H          8.45260        0.93700       -1.28110
H          0.87390       -2.68740       -0.57130
H          7.65860        9.06600       -2.41890
H          5.33940       -7.11050       -0.82500
H          4.54100       -9.45250       -0.73500
H          0.47560       -8.10630       -0.70180
H          3.18340       13.47310       -2.10240
H          3.91310       15.79360       -2.65750
H          6.26150       16.24170       -3.21000
H          7.92760       14.45170       -3.22350
H          3.74470      -11.51550       -0.30060
H         -2.98960      -15.13290        0.77140
H         -6.01990       -5.36660        0.94780
H         -4.02610       -1.90900       -2.08210
H         -6.27250       -6.61580       -5.10250
H         -3.19410       -1.05380        4.00920
H         -4.13480       -5.01870       -5.04310
H         -3.41950       -5.30620       -3.46060
H         -7.00760       -2.98740       -3.58720
H         -5.52730       -2.19660       -4.11600
H         -7.01080       -2.67450       -6.02450
H         -5.52500       -3.60290       -6.19070
H         -7.00860       -4.39240       -5.64220
H         -2.58480       -3.00630       -3.35100
H         -2.09370       -3.74330       -4.86830
H         -3.41800       -2.58540       -4.85680
H         -6.43880       -3.91040        3.11020
H         -5.61860       -2.68350        4.08150
H         -3.49070       -3.93890        3.93810
H         -4.34870       -5.18540        3.02530
H         -7.69410       -1.78730        3.05690
H         -6.28110       -0.93050        2.44320
H         -7.07450       -2.15160        1.44510
H         -2.70630       -4.98470        1.17290
H         -1.85430       -3.71110        2.04990
H         -1.89510       -5.35330        2.69600
H         -1.53720        1.76240        1.80220
H         -6.74380       -8.96710       -4.91400
H         -2.35570        1.49570        8.04330
H         -1.49580        3.45220        9.30700
H          0.01950        5.17210        5.69400
H         -6.95380      -11.80160        0.71430
H         -5.03370      -13.34690        1.00160
H         -4.25090      -13.23870       -3.20550
H          0.85090        6.78820        6.86800
H          0.01740        8.36620       14.66260
H          1.42270       10.38090       13.71760
