206
PJ1-H.sdf
C          2.14420       31.09140       -8.81830
O          1.67690       30.18020       -8.15310
C          1.38490       32.07780       -9.59940
C          0.01920       32.19670       -9.77790
C         -0.45540       33.21780      -10.58010
C          0.41460       34.11930      -11.20590
C          1.79930       33.98700      -11.01740
C          2.27880       32.97160      -10.21680
C          3.64620       32.59650       -9.85090
C          4.77690       33.27190      -10.23840
C          4.77120       34.42020      -11.05640
N          4.84160       35.35780      -11.71640
C          6.10000       32.94350       -9.87940
N          7.20580       32.74910       -9.63270
C          3.55990       31.42190       -9.01120
C          4.63410       30.71890       -8.51860
C          4.69310       29.57830       -7.71480
S          3.29140       28.72560       -7.06270
C          4.32770       27.58470       -6.29140
C          5.68520       27.85820       -6.53850
C          5.90490       28.97320       -7.33340
C          7.27360       29.46950       -7.66770
C          7.70690       30.56760       -6.69260
S          6.78220       26.71310       -5.78710
C          5.41280       25.87460       -5.14660
C          4.18360       26.44470       -5.49640
N          3.16400       25.73660       -4.91830
C          1.81980       26.26070       -4.98780
C          1.15800       25.96530       -6.33410
C          3.71380       24.69190       -4.20290
C          5.13480       24.78050       -4.31910
C          6.00640       23.92130       -3.61590
N          7.33000       23.90590       -3.61470
S          7.82670       22.75820       -2.58600
N          6.37150       22.23790       -2.10250
C          5.44530       22.94390       -2.73260
C          4.04140       22.82010       -2.65850
C          3.15950       23.63810       -3.42230
N          1.86580       23.19880       -3.19320
C          0.61620       23.42810       -3.88400
C         -0.39600       24.15050       -2.99660
C          1.92010       22.17310       -2.29390
C          3.24990       21.90860       -1.94230
S          3.46010       20.58530       -0.84300
C          1.73720       20.39270       -0.85070
C          1.06550       21.27640       -1.64460
S         -0.57240       20.67410       -1.29750
C          0.59710       18.17940       -0.85480
C          0.61990       19.54960       -0.30190
C          0.38880       19.64260        1.19670
C          1.59150       19.12850        1.98280
C          0.73450       17.77980       -2.16370
C          0.64030       16.37350       -2.13220
C          0.65690       15.17120       -2.92690
C          0.75480       15.10430       -4.28400
C          0.72890       13.90930       -5.03140
N          0.70210       12.95710       -5.67080
C          0.87510       16.28490       -5.05230
N          0.96940       17.24450       -5.67220
C          0.52570       14.06700       -1.95860
C          0.54180       12.70900       -2.15830
C          0.46070       11.85020       -1.04550
C          0.35350       12.39020        0.23600
C          0.31670       13.76130        0.44890
C          0.40680       14.60040       -0.64230
C          0.46180       16.03000       -0.79610
O          0.42220       17.11150       -0.02300
C         -0.10110       35.17880      -12.04230
C          0.58330       36.18010      -12.68470
C         -0.24950       37.04370      -13.41840
C         -1.56270       36.70170      -13.33640
S         -1.81060       35.31740      -12.35870
C          2.72370        2.97500        0.96160
O          2.48070        1.81250        0.68010
C          2.10890        4.16470        0.35460
C          1.19370        4.25030       -0.67830
C          0.79270        5.50260       -1.10690
C          1.29290        6.66510       -0.50680
C          2.20220        6.56580        0.55620
C          2.61490        5.31970        0.97820
C          3.57200        4.91640        2.00940
C          4.19600        5.77100        2.88220
C          4.00750        7.16890        2.89170
N          3.89940        8.31020        2.95830
C          5.08560        5.39180        3.90820
N          5.80500        5.16280        4.77470
C          3.68700        3.47480        1.94910
C          4.60770        2.72490        2.64120
C          4.81740        1.34360        2.68080
S          3.81350        0.15100        1.85410
C          4.75790       -1.12590        2.52130
C          5.81220       -0.63960        3.31490
C          5.85390        0.74350        3.41840
C          6.85580        1.45960        4.26370
C          6.28680        1.75130        5.65500
S          6.83080       -1.90330        3.98130
C          5.83760       -3.07650        3.18930
C          4.77100       -2.52190        2.46890
N          4.04550       -3.51800        1.87100
C          3.12790       -3.19330        0.80110
C          1.78470       -2.68150        1.31780
C          4.62680       -4.72400        2.20630
C          5.78180       -4.46340        3.00200
C          6.68280       -5.49130        3.36080
N          7.80930       -5.39840        4.04890
S          8.50560       -6.85920        4.09460
N          7.39370       -7.66830        3.24010
C          6.43720       -6.82390        2.88950
C          5.23030       -7.09510        2.20570
C          4.27730       -6.07090        1.93000
N          3.13800       -6.65780        1.40740
C          1.76970       -6.18560        1.42940
C          1.25640       -6.07270        2.86300
C          3.36170       -8.00840        1.34480
C          4.65270       -8.30540        1.79930
S          5.03590       -9.99140        1.75940
C          3.41960      -10.31120        1.15470
C          2.64210       -9.15170        0.98830
S          1.05060       -9.51290        0.43790
C          1.43120      -11.23680        0.43530
C          2.75410      -11.48840        0.84260
C          3.40940      -12.82960        0.89660
C          3.90420      -13.24970       -0.49040
C          0.53190      -12.25370        0.10310
C         -0.78870      -12.20280       -0.27420
C         -1.62430      -13.35300       -0.55420
C         -1.26820      -14.67700       -0.50760
C         -2.14880      -15.74490       -0.78040
N         -2.80520      -16.66450       -0.98500
C          0.00850      -15.17970       -0.18210
N          1.01520      -15.67320        0.07160
C         -2.95750      -12.85260       -0.89390
C         -4.12790      -13.50760       -1.24200
C         -5.25950      -12.74720       -1.51000
C         -5.23800      -11.36250       -1.43550
C         -4.07080      -10.69540       -1.08970
C         -2.94470      -11.44860       -0.82430
C         -1.59670      -10.99240       -0.44080
O         -1.24310       -9.83380       -0.29510
C          0.90670        7.97170       -0.98760
C          0.42400        8.32300       -2.22560
C          0.22370        9.69940       -2.37580
C          0.52600       10.42040       -1.24530
S          1.08370        9.37450        0.02160
H         -0.65240       31.50180       -9.29770
H         -1.51910       33.32840      -10.73260
H          2.47020       34.67320      -11.50280
H          5.60910       31.09210       -8.80100
H          7.31470       29.85470       -8.68750
H          7.96780       28.63020       -7.59040
H          7.03800       31.42270       -6.75330
H          8.71130       30.90090       -6.93710
H          7.70060       30.19110       -5.67240
H          1.88750       27.34750       -4.87010
H          1.24020       25.87320       -4.15380
H          1.23880       24.91270       -6.59860
H          1.63410       26.54670       -7.11860
H          0.10820       26.24160       -6.29590
H          0.20520       22.44720       -4.14950
H          0.80180       23.96650       -4.80790
H         -0.67600       23.51700       -2.15860
H         -1.29080       24.37680       -3.56950
H          0.01120       25.07790       -2.59890
H         -0.50460       19.07080        1.45500
H          0.21030       20.68980        1.45020
H          1.76540       18.07510        1.78220
H          1.41030       19.25130        3.04730
H          2.48780       19.68480        1.71810
H          0.87600       18.41750       -3.01210
H          0.65160       12.29250       -3.14620
H          0.29840       11.72050        1.08160
H          0.23060       14.16010        1.44770
H          1.64960       36.30590      -12.63680
H          0.11330       37.88360      -13.98310
H         -2.40680       37.18000      -13.79240
H          0.81050        3.35160       -1.13690
H          0.07580        5.58860       -1.90850
H          2.58080        7.46890        1.00730
H          5.30440        3.28190        3.25330
H          7.16730        2.39440        3.79560
H          7.73400        0.81850        4.36520
H          5.42340        2.40860        5.58910
H          7.04090        2.24010        6.26490
H          5.98710        0.82640        6.14210
H          3.01900       -4.06760        0.15770
H          3.58950       -2.40030        0.20210
H          1.34450       -3.36470        2.03850
H          1.09900       -2.55340        0.48500
H          1.91570       -1.71590        1.79790
H          1.17490       -6.92210        0.88380
H          1.67330       -5.23360        0.91630
H          1.30790       -7.03980        3.35770
H          0.22160       -5.74170        2.85990
H          1.85480       -5.36360        3.43190
H          2.72400      -13.58700        1.28020
H          4.26240      -12.76540        1.57500
H          3.07690      -13.30810       -1.19370
H          4.37460      -14.22680       -0.43200
H          4.63030      -12.53260       -0.86640
H          0.96330      -13.24280        0.17350
H         -4.17700      -14.58200       -1.30780
H         -6.17510      -13.25070       -1.78190
H         -6.13530      -10.80110       -1.64830
H         -4.02990       -9.61890       -1.02560
H          0.25080        7.61540       -3.01630
H         -0.14730       10.14410       -3.28160
