147
PMI-F-PMI.sdf
N         -0.10340        6.18400        9.46000
C         -1.47740        6.37250        9.43910
C         -2.23710        5.47470        8.55750
C         -1.58070        4.49160        7.79160
C         -0.18420        4.34020        7.89800
C          0.60410        5.21780        8.76960
O          1.81180        5.12710        8.88310
O         -1.99470        7.24280       10.10960
C         -2.32220        3.66130        6.91120
C         -1.63200        2.70750        6.11720
C         -0.25860        2.56320        6.28460
C          0.45580        3.36210        7.16120
C         -3.60870        5.61000        8.45870
C         -4.34070        4.78650        7.61710
C         -3.73330        3.80780        6.83780
C         -4.48910        2.95330        5.93300
C         -3.78810        2.08590        5.05020
C         -2.37730        1.94180        5.13560
C         -4.51580        1.35110        4.07180
C         -3.81600        0.56350        3.11950
C         -2.44830        0.42370        3.25330
C         -1.74670        1.08000        4.25140
C         -5.87450        2.96640        5.89330
C         -6.58530        2.17370        4.99560
C         -5.92310        1.39360        4.08560
C          0.65730        7.09810       10.27060
C          1.10160        8.28880        9.70080
C          1.82580        9.16760       10.49470
C          2.09420        8.87060       11.81720
C          1.64220        7.68490       12.36360
C          0.91510        6.78050       11.60090
C          0.86640        8.61420        8.25230
C          2.07850        8.20450        7.41180
C          0.48030        5.47550       12.20540
C          1.62970        4.46530       12.16530
C         -4.42330       -0.01780        1.91730
C         -4.00810       -1.28690        1.49730
C         -4.27460       -1.69880        0.21510
C         -5.01710       -0.88180       -0.65330
C         -5.53420        0.32410       -0.20610
C         -5.21850        0.75600        1.07010
C         -3.76270       -2.93080       -0.50270
C         -4.12000       -2.58910       -1.93320
C         -4.93760       -1.44630       -1.98650
C         -3.65820       -3.15790       -3.09350
C         -3.98960       -2.58830       -4.33110
C         -4.90470       -1.53410       -4.37080
C         -5.38670       -0.96400       -3.20700
C         -4.52420       -4.18480       -0.02860
C         -2.23840       -3.06890       -0.28550
C         -1.62440       -4.43680       -0.56740
C         -6.03870       -4.02640       -0.09990
N          5.23480       -4.94170       -8.52670
C          4.64820       -6.10800       -8.06500
C          3.21530       -6.02770       -7.75260
C          2.50660       -4.82310       -7.92990
C          3.15290       -3.71000       -8.50230
C          4.58300       -3.75700       -8.82750
O          5.18940       -2.81520       -9.29960
O          5.30770       -7.11660       -7.90590
C          1.15260       -4.72610       -7.51660
C          0.47410       -3.48530       -7.65950
C          1.12770       -2.43460       -8.29590
C          2.44380       -2.54220       -8.71270
C          2.56620       -7.12940       -7.22860
C          1.23810       -7.04650       -6.84110
C          0.51650       -5.86240       -6.94910
C         -0.83460       -5.72910       -6.42730
C         -1.43190       -4.43930       -6.39280
C         -0.83740       -3.33500       -7.06000
C         -2.63920       -4.25560       -5.66750
C         -3.14810       -2.93960       -5.47530
C         -2.62710       -1.92040       -6.24910
C         -1.51680       -2.12410       -7.05480
C         -1.54200       -6.80420       -5.91160
C         -2.78840       -6.63520       -5.31460
C         -3.31420       -5.37950       -5.15660
C          6.66680       -4.94150       -8.66910
C          7.43920       -4.60720       -7.55850
C          8.82020       -4.59600       -7.69700
C          9.41270       -4.90320       -8.90700
C          8.62840       -5.23140       -9.99590
C          7.24350       -5.25850       -9.89480
C          6.82020       -4.21770       -6.24480
C          6.68790       -2.69600       -6.14520
C          6.41420       -5.67530      -11.07530
C          6.32190       -7.20160      -11.13980
H          0.28630        1.82320        5.72240
H          1.52380        3.24740        7.27060
H         -4.09630        6.37170        9.04850
H         -5.40690        4.93660        7.57060
H         -1.90200       -0.17060        2.53560
H         -0.67980        0.93440        4.29100
H         -6.43600        3.58300        6.57610
H         -7.66490        2.18710        5.01740
H         -6.47230        0.78130        3.38690
H          2.17710       10.09500       10.06590
H          2.65610        9.56570       12.42360
H          1.84950        7.45190       13.39790
H          0.70120        9.68890        8.14830
H         -0.02470        8.10310        7.88210
H          2.29840        7.14890        7.55030
H          2.95480        8.77340        7.71360
H          1.88950        8.38860        6.35620
H         -0.38050        5.07150       11.66890
H          0.17970        5.64200       13.24220
H          2.46290        4.81920       12.76810
H          1.98280        4.33480       11.14530
H          1.30380        3.50190       12.55160
H         -3.44410       -1.90800        2.17820
H         -6.12130        0.95010       -0.86130
H         -5.53000        1.73920        1.39160
H         -2.96060       -3.97900       -3.06790
H         -5.21460       -1.13880       -5.32720
H         -6.05960       -0.12060       -3.25210
H         -4.22870       -5.03020       -0.65130
H         -4.23290       -4.39700        1.00240
H         -2.01920       -2.82150        0.75480
H         -1.74540       -2.31850       -0.90910
H         -1.99520       -5.18500        0.12800
H         -0.54500       -4.37170       -0.44530
H         -1.82320       -4.77740       -1.57890
H         -6.52250       -4.94580        0.22240
H         -6.37660       -3.21740        0.54370
H         -6.35660       -3.81010       -1.11760
H          0.62410       -1.49510       -8.45390
H          2.94780       -1.70820       -9.17760
H          3.12080       -8.04810       -7.10960
H          0.78100       -7.92640       -6.41900
H         -3.03380       -0.92370       -6.16280
H         -1.14250       -1.28280       -7.61470
H         -1.14220       -7.80320       -5.97440
H         -3.32670       -7.50000       -4.95600
H         -4.26910       -5.24110       -4.67180
H          9.43180       -4.34190       -6.84340
H         10.48870       -4.88660       -9.00070
H          9.09030       -5.47020      -10.94280
H          7.45290       -4.57800       -5.43050
H          5.83670       -4.67820       -6.12930
H          6.11160       -2.30690       -6.98090
H          6.19240       -2.41690       -5.21750
H          7.67070       -2.23120       -6.16920
H          6.87620       -5.29950      -11.99080
H          5.41140       -5.24960      -11.00790
H          5.67690       -7.51020      -11.95970
H          5.92200       -7.59580      -10.20870
H          7.30930       -7.63160      -11.29150
