208
PT-IDTTIC.sdf
C         -1.81790        6.80500        2.16860
C         -0.54580        6.48500        1.63110
C         -0.44930        5.97480        0.35830
C         -1.63810        5.65910       -0.29560
C         -2.91250        5.94020        0.25520
C         -3.00310        6.58500        1.46790
C         -1.84890        4.90100       -1.48580
C         -3.20250        4.68030       -1.68400
C         -4.01590        5.37300       -0.62150
C         -1.60840        7.21320        3.52250
C         -0.26450        7.13090        3.84560
C          0.55150        6.71080        2.65370
S         -0.81180        4.01210       -2.54880
C         -2.21950        3.23070       -3.21500
C         -3.42790        3.71960       -2.66650
S         -2.64250        7.53760        4.87630
C         -1.25240        7.44630        5.92950
C         -0.05110        7.25010        5.21620
C         -4.09330        0.46920       -4.58100
C         -5.32740       -0.13380       -4.60710
C         -6.61430        0.55460       -4.45110
C         -7.64960       -0.46930       -4.68850
C         -7.03260       -1.71360       -4.90440
C         -5.58270       -1.53910       -4.82520
C         -9.02280       -0.32760       -4.69790
C         -9.79570       -1.45570       -4.93450
C         -9.19480       -2.68730       -5.14930
C         -7.81370       -2.83460       -5.13300
O         -6.80070        1.72960       -4.19280
C         -4.65540       -2.55070       -4.83260
C         -3.26960       -2.38020       -4.65190
C         -4.97410       -3.91820       -4.96800
N         -5.17190       -5.04510       -5.05760
N         -2.13250       -2.32760       -4.48850
C          0.51920        6.52680        8.93990
C          1.63300        5.83140        9.33680
C          2.87910        5.69400        8.56670
C          3.59500        4.55720        9.15760
C          2.84640        4.04490       10.23410
C          1.71110        4.93890       10.47670
C          4.73280        3.91240        8.70730
C          5.05020        2.68660        9.25830
C          4.24190        2.09530       10.23970
C          3.16380        2.81650       10.77760
O          3.22810        6.36260        7.60910
C          0.89880        4.90550       11.57810
C          1.06240        3.98400       12.63330
C         -0.16700        5.79700       11.81900
N          1.15240        3.25170       13.51280
N         -1.04750        6.49050       12.06910
C          4.41780        0.69800       10.56430
C          3.78830       -0.07530       11.51120
C          4.00060       -1.45050       11.34170
C          4.80690       -1.75060       10.27260
S          5.35320       -0.30120        9.49090
C         -2.38710        2.12690       -4.02300
C         -3.72680        1.73430       -4.10870
S         -4.79240        2.85050       -3.26280
C         -1.09780        7.35180        7.29980
C          0.21290        7.03330        7.66550
S          1.28890        7.00360        6.27150
C         -4.84580        4.27630        0.08590
C         -4.91510        6.47230       -1.21010
C          1.28380        5.40800        3.05260
C          1.53940        7.80400        2.21520
C          0.86320        9.15420        2.00890
C          2.13070        4.74000        1.97800
C         -4.14420        7.45140       -2.08760
C         -5.72010        4.72290        1.24980
C          3.42710       -5.43210       -3.84240
C          2.41620       -6.19630       -3.21390
C          2.66800       -6.79610       -1.99910
C          3.92940       -6.61120       -1.43510
C          4.95570       -5.90330       -2.10730
C          4.71500       -5.31720       -3.32500
C          4.42520       -6.90930       -0.12470
C          5.71030       -6.41210        0.02460
C          6.20200       -5.80150       -1.25320
C          2.81370       -4.74140       -4.92680
C          1.46470       -5.05190       -5.01650
C          1.11290       -6.11370       -3.99800
S          3.73950       -7.53170        1.34030
C          5.17330       -7.04210        2.20550
C          6.14060       -6.48190        1.34380
S          3.34510       -3.46510       -5.96440
C          1.70370       -3.28100       -6.51280
C          0.82100       -4.23500       -5.94790
C          7.32400       -5.76730        4.89680
C          6.84420       -5.57770        6.16400
C          5.58490       -6.06980        6.77170
C          5.33570       -5.18330        7.92440
C          6.38510       -4.25330        8.03640
C          7.43120       -4.61810        7.08400
C          4.22630       -5.10310        8.74730
C          4.11320       -4.02130        9.60280
C          5.08590       -3.01380        9.62100
C          6.25820       -3.16030        8.86800
O          4.88540       -6.99250        6.40620
C          8.71540       -4.14780        7.10650
C          9.74970       -4.57130        6.24480
C          9.17850       -3.20870        8.05270
N          9.60350       -2.44490        8.79650
N         10.63860       -4.87910        5.58670
C         -1.18810       -1.51570       -7.74340
C         -2.56330       -1.53070       -7.74560
C         -3.38740       -2.74730       -7.74590
C         -4.77460       -2.29120       -7.93270
C         -4.80620       -0.88430       -7.92320
C         -3.43590       -0.38560       -7.80310
C         -5.93510       -3.03160       -8.05820
C         -7.14040       -2.35680       -8.12390
C         -7.20000       -0.95960       -8.05350
C         -6.01170       -0.21740       -7.97770
O         -3.00670       -3.89820       -7.62450
C         -3.08290        0.92950       -7.62260
C         -1.77100        1.38260       -7.38250
C         -3.99870        1.99870       -7.56630
N         -0.73610        1.82200       -7.14480
N         -4.68750        2.91550       -7.49830
C         -8.47310       -0.27920       -8.02020
C         -8.73670        1.02350       -7.68000
C        -10.10740        1.33700       -7.70400
C        -10.88150        0.27880       -8.06290
S         -9.95250       -1.12710       -8.37400
C          5.49880       -6.96250        3.55290
C          6.71150       -6.32030        3.75650
S          7.49860       -5.90830        2.22350
C          1.07700       -2.32240       -7.27780
C         -0.30600       -2.52220       -7.33940
S         -0.78410       -4.00770       -6.53050
C          7.36800       -6.61050       -1.85560
C          6.64550       -4.34300       -1.04020
C         -0.04050       -5.68790       -3.06740
C          0.84520       -7.43300       -4.75570
C          0.66210       -8.65250       -3.86200
C         -1.44490       -5.83030       -3.64000
C          5.54540       -3.45940       -0.46450
C          7.02730       -8.07940       -2.07330
H          0.49630        5.76850       -0.11640
H         -3.94630        6.87260        1.90400
H         -3.24620       -0.13040       -4.89430
H         -9.46910        0.63940       -4.52450
H        -10.87220       -1.37590       -4.95110
H         -9.81190       -3.55390       -5.33360
H         -7.37290       -3.80370       -5.29980
H         -0.31530        6.56360        9.63080
H          5.32110        4.34080        7.91080
H          5.90790        2.14170        8.89180
H          2.55770        2.37650       11.55140
H          3.17780        0.32920       12.29850
H          3.57330       -2.19810       11.98600
H         -1.58680        1.58020       -4.48850
H         -1.89660        7.42780        8.01550
H         -4.15350        3.50810        0.44090
H         -5.48140        3.82080       -0.67750
H         -5.38190        7.02050       -0.39110
H         -5.70090        5.99530       -1.79900
H          1.92540        5.65460        3.90230
H          0.53250        4.69410        3.40150
H          2.31400        7.89540        2.97920
H          2.01090        7.49670        1.28130
H          0.42960        9.51670        2.93810
H          0.07150        9.07860        1.26640
H          1.59000        9.88520        1.66350
H          2.85910        5.42870        1.55990
H          2.67290        3.90860        2.42340
H          1.51330        4.34330        1.17750
H         -3.34290        7.92550       -1.52430
H         -4.81220        8.22670       -2.45460
H         -3.70850        6.94320       -2.94460
H         -6.32470        3.88090        1.57990
H         -5.11910        5.05090        2.09260
H         -6.39300        5.52390        0.95770
H          1.91350       -7.34420       -1.45620
H          5.46140       -4.73390       -3.84230
H          8.26770       -5.28150        4.67200
H          3.44720       -5.84680        8.68040
H          3.22970       -3.90870       10.21240
H          7.01730       -2.39520        8.91580
H         -0.70020       -0.58660       -8.01540
H         -5.89000       -4.10940       -8.08000
H         -8.06230       -2.91320       -8.20770
H         -6.05370        0.85800       -7.96640
H         -7.98180        1.73520       -7.39890
H        -10.49950        2.30890       -7.46420
H        -11.94740        0.23740       -8.16900
H          4.88490       -7.31400        4.36210
H          1.56490       -1.47680       -7.72810
H          8.22460       -6.53040       -1.18300
H          7.64310       -6.15660       -2.80940
H          7.50240       -4.34250       -0.36290
H          6.97400       -3.93520       -1.99750
H          0.02290       -6.27720       -2.15140
H          0.12720       -4.64330       -2.79380
H         -0.04100       -7.28980       -5.37490
H          1.69110       -7.61150       -5.42530
H          1.57600       -8.87390       -3.31660
H         -0.14350       -8.50430       -3.14880
H          0.41670       -9.51630       -4.47580
H         -1.71080       -6.87100       -3.79940
H         -2.15980       -5.40530       -2.93880
H         -1.54950       -5.29960       -4.58040
H          5.22560       -3.82210        0.50980
H          5.91130       -2.44260       -0.34580
H          4.68020       -3.43970       -1.12340
H          6.17480       -8.18300       -2.74110
H          7.87590       -8.59490       -2.51600
H          6.78660       -8.56560       -1.13070
