101
PT2IC-4Cl.mol
N         13.92170        2.12420        5.46090
C         12.87040        1.98370        5.02160
C         11.56520        1.90620        4.48970
C         11.04190        3.20870        4.33960
N         10.72030        4.30710        4.24270
C         10.94540        0.73100        4.15100
C         11.56720       -0.58890        4.24490
C         12.78730       -1.00190        4.75430
C         13.11140       -2.35330        4.69560
Cl        14.62000       -2.87470        5.33140
C         12.23550       -3.28680        4.13230
Cl        12.67130       -4.94710        4.07050
C         11.01010       -2.87600        3.62390
C         10.69150       -1.53540        3.69110
C          9.45300       -0.86680        3.23820
C          9.61360        0.55500        3.59570
C          8.69200        1.57390        3.52140
C          7.37290        1.61110        3.05070
S          6.52330        3.16070        3.25030
C          6.57060        0.64930        2.44640
C          5.30690        1.13860        2.16340
C          5.11430        2.49500        2.53830
C          3.80990        2.82280        2.18450
C          3.22960        1.65820        1.61700
N          4.15030        0.63790        1.61820
C          4.06540       -0.63230        0.93980
C          4.02310       -0.45220       -0.57610
C          1.90280        1.90380        1.23070
C          1.53570        3.23640        1.47980
S          2.75900        4.20930        2.21640
C          0.20610        3.40290        1.05520
C         -0.18860        2.15800        0.51380
N          0.83540        1.23160        0.65720
C          0.56350       -0.16450        0.95620
C          0.65710       -0.44550        2.45570
C         -1.45320        2.02860       -0.09380
C         -2.43220        3.03880        0.11490
C         -2.08450        4.25220        0.75320
N         -2.84970        5.30640        0.98730
S         -1.94210        6.46600        1.65750
N         -0.53530        5.66980        1.68020
C         -0.72180        4.46450        1.16670
C         -3.60320        2.57910       -0.50710
C         -3.29720        1.35100       -1.11450
N         -1.98700        1.02030       -0.86970
C         -1.26940        0.13820       -1.76810
C         -1.26130        0.69030       -3.19270
C         -4.38810        0.79610       -1.78390
C         -5.52580        1.61580       -1.66540
S         -5.24310        3.07680       -0.73660
C         -6.65180        1.11610       -2.30150
C         -7.97780        1.80110       -2.25260
C         -8.83090        1.25140       -1.10570
S         -4.70380       -0.62310       -2.70730
C         -6.38360       -0.11950       -2.92280
C         -7.35820       -0.85140       -3.60230
C         -7.29150       -2.06180       -4.25500
C         -8.40750       -2.72550       -4.89660
C         -9.71820       -2.32110       -4.92930
C        -10.75160       -3.03910       -5.56760
N        -11.63930       -3.56880       -6.06670
C        -10.23870       -1.15440       -4.33220
N        -10.74470       -0.22830       -3.87710
C         -7.89280       -3.95160       -5.50730
C         -8.51580       -4.94210       -6.24750
C         -7.75280       -6.01060       -6.70810
Cl        -8.51820       -7.24310       -7.62770
C         -6.38370       -6.09510       -6.43650
Cl        -5.47190       -7.42780       -7.02160
C         -5.75510       -5.10320       -5.69370
C         -6.51640       -4.04680       -5.23950
C         -6.09260       -2.87850       -4.44150
O         -4.96360       -2.65690       -4.03850
O          8.52360       -1.42730        2.68890
H         13.48920       -0.31510        5.19720
H         10.32260       -3.58390        3.18870
H          9.01930        2.52750        3.91850
H          6.92960       -0.34310        2.24760
H          3.18330       -1.17610        1.28780
H          4.94910       -1.20750        1.22170
H          4.93090        0.03770       -0.91960
H          3.17290        0.16080       -0.86760
H          3.94470       -1.41960       -1.06440
H         -0.45300       -0.38870        0.63420
H          1.25680       -0.80270        0.40100
H         -0.05730        0.17300        2.99460
H          0.42470       -1.49000        2.64610
H          1.65060       -0.23200        2.84130
H         -0.24060        0.04130       -1.42670
H         -1.75630       -0.84170       -1.75540
H         -2.27060        0.75700       -3.58820
H         -0.68560        0.02910       -3.83390
H         -0.80940        1.67980       -3.21170
H         -7.80470        2.86650       -2.08770
H         -8.51720        1.68380       -3.19320
H         -8.32390        1.39560       -0.15450
H         -9.02230        0.18990       -1.24210
H         -9.78440        1.77030       -1.07680
H         -8.32760       -0.37240       -3.60250
H         -9.56770       -4.91220       -6.47880
H         -4.69990       -5.15560       -5.47730
