PY5-2TZ.sdf
  xtb     12222119063D
 energy: -466.193449953850 gnorm: 0.000762341772 xtb: 6.4.1 (unknown)
260291  0     0  0            999 V2000
   -0.3602   -2.5613    6.9204 C   0  0  0  0  0  0  0  0  0  0  0  0
   -0.5651   -3.6137    6.3373 O   0  0  0  0  0  0  0  0  0  0  0  0
   -0.4198   -1.2310    6.3099 C   0  0  0  0  0  0  0  0  0  0  0  0
   -0.7178   -0.9047    5.0020 C   0  0  0  0  0  0  0  0  0  0  0  0
   -0.5509    0.4073    4.6116 C   0  0  0  0  0  0  0  0  0  0  0  0
   -0.0624    1.3784    5.4975 C   0  0  0  0  0  0  0  0  0  0  0  0
    0.1864    1.0434    6.8352 C   0  0  0  0  0  0  0  0  0  0  0  0
   -0.0176   -0.2631    7.2451 C   0  0  0  0  0  0  0  0  0  0  0  0
    0.1701   -0.9316    8.5387 C   0  0  0  0  0  0  0  0  0  0  0  0
    0.4538   -0.2880    9.7168 C   0  0  0  0  0  0  0  0  0  0  0  0
    0.5631    1.1132    9.8280 C   0  0  0  0  0  0  0  0  0  0  0  0
    0.6413    2.2497    9.9738 N   0  0  0  0  0  0  0  0  0  0  0  0
    0.6448   -0.9159   10.9638 C   0  0  0  0  0  0  0  0  0  0  0  0
    0.8188   -1.3634   12.0078 N   0  0  0  0  0  0  0  0  0  0  0  0
   -0.0036   -2.3544    8.3269 C   0  0  0  0  0  0  0  0  0  0  0  0
    0.0543   -3.3438    9.2845 C   0  0  0  0  0  0  0  0  0  0  0  0
    0.0553   -4.7340    9.1183 C   0  0  0  0  0  0  0  0  0  0  0  0
    0.2464   -5.5145    7.5513 S   0  0  0  0  0  0  0  0  0  0  0  0
    0.3631   -7.0457    8.3138 C   0  0  0  0  0  0  0  0  0  0  0  0
    0.1482   -6.9708    9.7010 C   0  0  0  0  0  0  0  0  0  0  0  0
    0.0138   -5.6700   10.1714 C   0  0  0  0  0  0  0  0  0  0  0  0
   -0.2156   -5.3276   11.6063 C   0  0  0  0  0  0  0  0  0  0  0  0
   -1.6959   -5.0375   11.8688 C   0  0  0  0  0  0  0  0  0  0  0  0
    0.0699   -8.5556   10.4641 S   0  0  0  0  0  0  0  0  0  0  0  0
    0.3132   -9.2976    8.9134 C   0  0  0  0  0  0  0  0  0  0  0  0
    0.4904   -8.3658    7.8837 C   0  0  0  0  0  0  0  0  0  0  0  0
    0.6642   -9.0040    6.6896 N   0  0  0  0  0  0  0  0  0  0  0  0
    0.6501   -8.2303    5.4697 C   0  0  0  0  0  0  0  0  0  0  0  0
    1.9652   -7.4869    5.2411 C   0  0  0  0  0  0  0  0  0  0  0  0
    0.5800  -10.3597    6.9191 C   0  0  0  0  0  0  0  0  0  0  0  0
    0.3224  -10.5648    8.3096 C   0  0  0  0  0  0  0  0  0  0  0  0
   -0.0098  -11.8461    8.8090 C   0  0  0  0  0  0  0  0  0  0  0  0
   -0.2978  -12.1932   10.0525 N   0  0  0  0  0  0  0  0  0  0  0  0
   -0.7229  -13.7554   10.0671 S   0  0  0  0  0  0  0  0  0  0  0  0
   -0.5559  -14.0503    8.4839 N   0  0  0  0  0  0  0  0  0  0  0  0
   -0.1583  -12.9385    7.8876 C   0  0  0  0  0  0  0  0  0  0  0  0
    0.1761  -12.7445    6.5269 C   0  0  0  0  0  0  0  0  0  0  0  0
    0.6516  -11.4847    6.0557 C   0  0  0  0  0  0  0  0  0  0  0  0
    1.0645  -11.6348    4.7478 N   0  0  0  0  0  0  0  0  0  0  0  0
    1.9039  -10.7916    3.9267 C   0  0  0  0  0  0  0  0  0  0  0  0
    1.1794  -10.2560    2.6903 C   0  0  0  0  0  0  0  0  0  0  0  0
    0.8094  -12.9253    4.3732 C   0  0  0  0  0  0  0  0  0  0  0  0
    0.2323  -13.6289    5.4397 C   0  0  0  0  0  0  0  0  0  0  0  0
   -0.2019  -15.2561    5.0352 S   0  0  0  0  0  0  0  0  0  0  0  0
    0.3973  -14.9875    3.4053 C   0  0  0  0  0  0  0  0  0  0  0  0
    0.9442  -13.7036    3.2235 C   0  0  0  0  0  0  0  0  0  0  0  0
    1.6246  -13.5149    1.6556 S   0  0  0  0  0  0  0  0  0  0  0  0
    0.9773  -15.0796    1.1712 C   0  0  0  0  0  0  0  0  0  0  0  0
    0.3842  -15.7607    2.2510 C   0  0  0  0  0  0  0  0  0  0  0  0
   -0.1702  -17.1442    2.1812 C   0  0  0  0  0  0  0  0  0  0  0  0
    0.9540  -18.1817    2.1239 C   0  0  0  0  0  0  0  0  0  0  0  0
    0.8694  -15.4658   -0.1690 C   0  0  0  0  0  0  0  0  0  0  0  0
    1.3831  -14.8424   -1.2853 C   0  0  0  0  0  0  0  0  0  0  0  0
    0.9758  -15.0517   -2.6570 C   0  0  0  0  0  0  0  0  0  0  0  0
    0.0481  -15.9433   -3.1323 C   0  0  0  0  0  0  0  0  0  0  0  0
   -0.2687  -16.0835   -4.4992 C   0  0  0  0  0  0  0  0  0  0  0  0
   -0.5563  -16.2506   -5.5981 N   0  0  0  0  0  0  0  0  0  0  0  0
   -0.6790  -16.8559   -2.3424 C   0  0  0  0  0  0  0  0  0  0  0  0
   -1.3024  -17.6213   -1.7542 N   0  0  0  0  0  0  0  0  0  0  0  0
    1.7391  -14.1136   -3.4875 C   0  0  0  0  0  0  0  0  0  0  0  0
    1.5964  -13.7153   -4.8056 C   0  0  0  0  0  0  0  0  0  0  0  0
    2.4818  -12.7632   -5.3161 C   0  0  0  0  0  0  0  0  0  0  0  0
    3.5269  -12.2665   -4.5310 C   0  0  0  0  0  0  0  0  0  0  0  0
    3.6396  -12.6188   -3.1987 C   0  0  0  0  0  0  0  0  0  0  0  0
    2.7158  -13.5051   -2.6806 C   0  0  0  0  0  0  0  0  0  0  0  0
    2.4808  -13.8705   -1.2761 C   0  0  0  0  0  0  0  0  0  0  0  0
    3.0828  -13.4301   -0.3105 O   0  0  0  0  0  0  0  0  0  0  0  0
    0.2485    2.6800    4.9298 C   0  0  0  0  0  0  0  0  0  0  0  0
    0.1046    3.9774    5.3736 C   0  0  0  0  0  0  0  0  0  0  0  0
    0.4880    4.9214    4.4005 C   0  0  0  0  0  0  0  0  0  0  0  0
    0.9272    4.3621    3.2245 C   0  0  0  0  0  0  0  0  0  0  0  0
    0.8963    2.6359    3.3150 S   0  0  0  0  0  0  0  0  0  0  0  0
    2.2147    7.3915   -3.1983 C   0  0  0  0  0  0  0  0  0  0  0  0
    2.2117    6.6819   -4.3743 C   0  0  0  0  0  0  0  0  0  0  0  0
    2.4409    7.4845   -5.5102 C   0  0  0  0  0  0  0  0  0  0  0  0
    2.6190    8.7957   -5.1766 C   0  0  0  0  0  0  0  0  0  0  0  0
    2.5083    9.0795   -3.4877 S   0  0  0  0  0  0  0  0  0  0  0  0
    1.2564    4.9735    1.9876 C   0  0  0  0  0  0  0  0  0  0  0  0
    1.3740    6.2464    1.7663 N   0  0  0  0  0  0  0  0  0  0  0  0
    1.6000    6.4800    0.4701 C   0  0  0  0  0  0  0  0  0  0  0  0
    1.6578    5.3615   -0.3728 C   0  0  0  0  0  0  0  0  0  0  0  0
    1.4265    3.9310    0.5432 S   0  0  0  0  0  0  0  0  0  0  0  0
    1.8404    7.9064   -0.4578 S   0  0  0  0  0  0  0  0  0  0  0  0
    1.9949    6.8628   -1.8987 C   0  0  0  0  0  0  0  0  0  0  0  0
    1.8708    5.5923   -1.6684 N   0  0  0  0  0  0  0  0  0  0  0  0
    2.5188    6.9460   -6.9034 C   0  0  0  0  0  0  0  0  0  0  0  0
    3.8751    6.2840   -7.1517 C   0  0  0  0  0  0  0  0  0  0  0  0
   -0.5455    4.4052    6.6518 C   0  0  0  0  0  0  0  0  0  0  0  0
   -2.0381    4.6425    6.4083 C   0  0  0  0  0  0  0  0  0  0  0  0
   -1.7813    2.4022   -4.7787 C   0  0  0  0  0  0  0  0  0  0  0  0
   -1.6908    3.6117   -4.6480 O   0  0  0  0  0  0  0  0  0  0  0  0
   -1.5774    1.6184   -6.0117 C   0  0  0  0  0  0  0  0  0  0  0  0
   -1.2344    2.0161   -7.2905 C   0  0  0  0  0  0  0  0  0  0  0  0
   -0.9997    1.0527   -8.2605 C   0  0  0  0  0  0  0  0  0  0  0  0
   -1.0619   -0.3151   -7.9613 C   0  0  0  0  0  0  0  0  0  0  0  0
   -1.4825   -0.7017   -6.6773 C   0  0  0  0  0  0  0  0  0  0  0  0
   -1.7518    0.2513   -5.7228 C   0  0  0  0  0  0  0  0  0  0  0  0
   -2.1596    0.1047   -4.3283 C   0  0  0  0  0  0  0  0  0  0  0  0
   -2.5525   -1.0692   -3.7385 C   0  0  0  0  0  0  0  0  0  0  0  0
   -2.9691   -1.2233   -2.4001 C   0  0  0  0  0  0  0  0  0  0  0  0
   -3.3227   -1.4385   -1.3274 N   0  0  0  0  0  0  0  0  0  0  0  0
   -2.6182   -2.3119   -4.4046 C   0  0  0  0  0  0  0  0  0  0  0  0
   -2.7007   -3.3574   -4.8714 N   0  0  0  0  0  0  0  0  0  0  0  0
   -2.0948    1.4202   -3.7313 C   0  0  0  0  0  0  0  0  0  0  0  0
   -2.2302    1.6591   -2.3889 C   0  0  0  0  0  0  0  0  0  0  0  0
   -2.1120    2.8282   -1.6337 C   0  0  0  0  0  0  0  0  0  0  0  0
   -1.8724    4.4488   -2.2803 S   0  0  0  0  0  0  0  0  0  0  0  0
   -1.8672    5.1035   -0.6811 C   0  0  0  0  0  0  0  0  0  0  0  0
   -2.0231    4.0912    0.2860 C   0  0  0  0  0  0  0  0  0  0  0  0
   -2.1666    2.8138   -0.2313 C   0  0  0  0  0  0  0  0  0  0  0  0
   -2.2950    1.5918    0.6190 C   0  0  0  0  0  0  0  0  0  0  0  0
   -0.9843    0.8012    0.6624 C   0  0  0  0  0  0  0  0  0  0  0  0
   -1.9951    4.6708    1.9369 S   0  0  0  0  0  0  0  0  0  0  0  0
   -1.7311    6.2628    1.3291 C   0  0  0  0  0  0  0  0  0  0  0  0
   -1.7099    6.3545   -0.0704 C   0  0  0  0  0  0  0  0  0  0  0  0
   -1.5728    7.6743   -0.4429 N   0  0  0  0  0  0  0  0  0  0  0  0
   -2.0988    8.1227   -1.7215 C   0  0  0  0  0  0  0  0  0  0  0  0
   -1.1938    7.8094   -2.9073 C   0  0  0  0  0  0  0  0  0  0  0  0
   -1.4791    8.4233    0.7193 C   0  0  0  0  0  0  0  0  0  0  0  0
   -1.5946    7.5583    1.8406 C   0  0  0  0  0  0  0  0  0  0  0  0
   -1.6643    8.0564    3.1600 C   0  0  0  0  0  0  0  0  0  0  0  0
   -1.7695    7.3806    4.2933 N   0  0  0  0  0  0  0  0  0  0  0  0
   -1.9056    8.4402    5.5142 S   0  0  0  0  0  0  0  0  0  0  0  0
   -1.8369    9.7997    4.6418 N   0  0  0  0  0  0  0  0  0  0  0  0
   -1.6994    9.4770    3.3656 C   0  0  0  0  0  0  0  0  0  0  0  0
   -1.5372   10.3308    2.2522 C   0  0  0  0  0  0  0  0  0  0  0  0
   -1.3197    9.8114    0.9449 C   0  0  0  0  0  0  0  0  0  0  0  0
   -1.0540   10.8587    0.0843 N   0  0  0  0  0  0  0  0  0  0  0  0
   -0.2643   10.8091   -1.1279 C   0  0  0  0  0  0  0  0  0  0  0  0
    1.1429   11.3553   -0.8960 C   0  0  0  0  0  0  0  0  0  0  0  0
   -1.1575   12.0204    0.8060 C   0  0  0  0  0  0  0  0  0  0  0  0
   -1.4608   11.7273    2.1417 C   0  0  0  0  0  0  0  0  0  0  0  0
   -1.6117   13.1265    3.1415 S   0  0  0  0  0  0  0  0  0  0  0  0
   -1.2766   14.1401    1.7534 C   0  0  0  0  0  0  0  0  0  0  0  0
   -1.0547   13.3964    0.5845 C   0  0  0  0  0  0  0  0  0  0  0  0
   -0.7395   14.4196   -0.7623 S   0  0  0  0  0  0  0  0  0  0  0  0
   -0.9731   15.8506    0.2440 C   0  0  0  0  0  0  0  0  0  0  0  0
   -1.2190   15.5302    1.5771 C   0  0  0  0  0  0  0  0  0  0  0  0
   -1.2781   16.5286    2.6827 C   0  0  0  0  0  0  0  0  0  0  0  0
   -0.4600   16.1194    3.9049 C   0  0  0  0  0  0  0  0  0  0  0  0
   -0.8009   17.0944   -0.3963 C   0  0  0  0  0  0  0  0  0  0  0  0
   -1.4394   18.2702   -0.1060 C   0  0  0  0  0  0  0  0  0  0  0  0
   -1.1089   19.5702   -0.6509 C   0  0  0  0  0  0  0  0  0  0  0  0
    0.0639   19.9129   -1.2719 C   0  0  0  0  0  0  0  0  0  0  0  0
    0.3509   21.2007   -1.7692 C   0  0  0  0  0  0  0  0  0  0  0  0
    0.6418   22.2246   -2.1995 N   0  0  0  0  0  0  0  0  0  0  0  0
    1.1518   19.0365   -1.4683 C   0  0  0  0  0  0  0  0  0  0  0  0
    2.0823   18.3859   -1.6415 N   0  0  0  0  0  0  0  0  0  0  0  0
   -2.2080   20.4776   -0.3314 C   0  0  0  0  0  0  0  0  0  0  0  0
   -2.4140   21.8143   -0.6338 C   0  0  0  0  0  0  0  0  0  0  0  0
   -3.5756   22.4246   -0.1782 C   0  0  0  0  0  0  0  0  0  0  0  0
   -4.5187   21.7262    0.5616 C   0  0  0  0  0  0  0  0  0  0  0  0
   -4.3252   20.3852    0.8635 C   0  0  0  0  0  0  0  0  0  0  0  0
   -3.1695   19.7760    0.4167 C   0  0  0  0  0  0  0  0  0  0  0  0
   -2.7396   18.3736    0.5948 C   0  0  0  0  0  0  0  0  0  0  0  0
   -3.3773   17.4815    1.1150 O   0  0  0  0  0  0  0  0  0  0  0  0
   -0.6625   -1.3712   -8.8717 C   0  0  0  0  0  0  0  0  0  0  0  0
    0.2654   -1.3859   -9.9007 C   0  0  0  0  0  0  0  0  0  0  0  0
    0.5204   -2.6845  -10.3728 C   0  0  0  0  0  0  0  0  0  0  0  0
   -0.1957   -3.6631   -9.7258 C   0  0  0  0  0  0  0  0  0  0  0  0
   -1.2500   -2.9824   -8.5373 S   0  0  0  0  0  0  0  0  0  0  0  0
    1.5103  -10.4103   -8.2366 C   0  0  0  0  0  0  0  0  0  0  0  0
    2.6767  -11.0348   -8.6107 C   0  0  0  0  0  0  0  0  0  0  0  0
    3.1213  -11.9966   -7.6837 C   0  0  0  0  0  0  0  0  0  0  0  0
    2.2701  -12.1220   -6.6133 C   0  0  0  0  0  0  0  0  0  0  0  0
    0.8884  -11.0797   -6.7589 S   0  0  0  0  0  0  0  0  0  0  0  0
   -0.0349   -5.0721   -9.7415 C   0  0  0  0  0  0  0  0  0  0  0  0
   -0.6933   -5.8573   -8.9456 N   0  0  0  0  0  0  0  0  0  0  0  0
   -0.1856   -7.0879   -8.9552 C   0  0  0  0  0  0  0  0  0  0  0  0
    0.9172   -7.3076   -9.7947 C   0  0  0  0  0  0  0  0  0  0  0  0
    1.2870   -5.8592  -10.6508 S   0  0  0  0  0  0  0  0  0  0  0  0
   -0.4832   -8.4859   -8.0046 S   0  0  0  0  0  0  0  0  0  0  0  0
    0.9508   -9.2181   -8.7710 C   0  0  0  0  0  0  0  0  0  0  0  0
    1.5267   -8.4904   -9.6827 N   0  0  0  0  0  0  0  0  0  0  0  0
    4.3492  -12.8300   -7.8789 C   0  0  0  0  0  0  0  0  0  0  0  0
    4.0369  -14.0324   -8.7718 C   0  0  0  0  0  0  0  0  0  0  0  0
    1.0008   -0.2112  -10.4685 C   0  0  0  0  0  0  0  0  0  0  0  0
    0.2597    0.3694  -11.6755 C   0  0  0  0  0  0  0  0  0  0  0  0
   -1.0508   -1.6657    4.3138 H   0  0  0  0  0  0  0  0  0  0  0  0
   -0.7745    0.6956    3.5965 H   0  0  0  0  0  0  0  0  0  0  0  0
    0.5837    1.7855    7.5066 H   0  0  0  0  0  0  0  0  0  0  0  0
    0.1269   -3.0216   10.3152 H   0  0  0  0  0  0  0  0  0  0  0  0
    0.3798   -4.4583   11.8927 H   0  0  0  0  0  0  0  0  0  0  0  0
    0.0984   -6.1756   12.2175 H   0  0  0  0  0  0  0  0  0  0  0  0
   -2.0347   -4.1951   11.2701 H   0  0  0  0  0  0  0  0  0  0  0  0
   -1.8459   -4.7997   12.9183 H   0  0  0  0  0  0  0  0  0  0  0  0
   -2.3009   -5.9059   11.6186 H   0  0  0  0  0  0  0  0  0  0  0  0
    0.4073   -8.8827    4.6373 H   0  0  0  0  0  0  0  0  0  0  0  0
   -0.1502   -7.4876    5.5606 H   0  0  0  0  0  0  0  0  0  0  0  0
    2.8206   -8.1586    5.2609 H   0  0  0  0  0  0  0  0  0  0  0  0
    2.1100   -6.7353    6.0116 H   0  0  0  0  0  0  0  0  0  0  0  0
    1.9341   -6.9861    4.2781 H   0  0  0  0  0  0  0  0  0  0  0  0
    2.2920   -9.9863    4.5452 H   0  0  0  0  0  0  0  0  0  0  0  0
    2.7543  -11.3960    3.5923 H   0  0  0  0  0  0  0  0  0  0  0  0
    1.7516   -9.4404    2.2577 H   0  0  0  0  0  0  0  0  0  0  0  0
    0.1810   -9.8970    2.9300 H   0  0  0  0  0  0  0  0  0  0  0  0
    1.0791  -11.0355    1.9415 H   0  0  0  0  0  0  0  0  0  0  0  0
   -0.8076  -17.2551    1.3011 H   0  0  0  0  0  0  0  0  0  0  0  0
   -0.7794  -17.3180    3.0700 H   0  0  0  0  0  0  0  0  0  0  0  0
    1.5739  -18.0280    1.2437 H   0  0  0  0  0  0  0  0  0  0  0  0
    0.5325  -19.1821    2.0813 H   0  0  0  0  0  0  0  0  0  0  0  0
    1.5832  -18.1065    3.0079 H   0  0  0  0  0  0  0  0  0  0  0  0
    0.2349  -16.3270   -0.3332 H   0  0  0  0  0  0  0  0  0  0  0  0
    0.8084  -14.0957   -5.4356 H   0  0  0  0  0  0  0  0  0  0  0  0
    4.2057  -11.5449   -4.9610 H   0  0  0  0  0  0  0  0  0  0  0  0
    4.3973  -12.1890   -2.5619 H   0  0  0  0  0  0  0  0  0  0  0  0
    0.4008    5.9835    4.5345 H   0  0  0  0  0  0  0  0  0  0  0  0
    2.0336    5.6231   -4.4010 H   0  0  0  0  0  0  0  0  0  0  0  0
    2.8094    9.6230   -5.8315 H   0  0  0  0  0  0  0  0  0  0  0  0
    2.3711    7.7568   -7.6186 H   0  0  0  0  0  0  0  0  0  0  0  0
    1.7248    6.2103   -7.0452 H   0  0  0  0  0  0  0  0  0  0  0  0
    4.6777    7.0073   -7.0272 H   0  0  0  0  0  0  0  0  0  0  0  0
    3.9215    5.8856   -8.1621 H   0  0  0  0  0  0  0  0  0  0  0  0
    4.0345    5.4697   -6.4489 H   0  0  0  0  0  0  0  0  0  0  0  0
   -0.4189    3.6595    7.4345 H   0  0  0  0  0  0  0  0  0  0  0  0
   -0.0835    5.3349    6.9871 H   0  0  0  0  0  0  0  0  0  0  0  0
   -2.5123    5.0009    7.3181 H   0  0  0  0  0  0  0  0  0  0  0  0
   -2.5218    3.7161    6.1057 H   0  0  0  0  0  0  0  0  0  0  0  0
   -2.1774    5.3797    5.6216 H   0  0  0  0  0  0  0  0  0  0  0  0
   -1.1468    3.0663   -7.5252 H   0  0  0  0  0  0  0  0  0  0  0  0
   -0.7730    1.3737   -9.2627 H   0  0  0  0  0  0  0  0  0  0  0  0
   -1.5563   -1.7503   -6.4418 H   0  0  0  0  0  0  0  0  0  0  0  0
   -2.4334    0.7874   -1.7827 H   0  0  0  0  0  0  0  0  0  0  0  0
   -3.0940    0.9467    0.2473 H   0  0  0  0  0  0  0  0  0  0  0  0
   -2.5582    1.9097    1.6302 H   0  0  0  0  0  0  0  0  0  0  0  0
   -0.6854    0.4860   -0.3339 H   0  0  0  0  0  0  0  0  0  0  0  0
   -0.1853    1.4107    1.0777 H   0  0  0  0  0  0  0  0  0  0  0  0
   -1.1098   -0.0874    1.2752 H   0  0  0  0  0  0  0  0  0  0  0  0
   -3.0561    7.6107   -1.8775 H   0  0  0  0  0  0  0  0  0  0  0  0
   -2.3001    9.1929   -1.6548 H   0  0  0  0  0  0  0  0  0  0  0  0
   -0.2633    8.3678   -2.8686 H   0  0  0  0  0  0  0  0  0  0  0  0
   -0.9572    6.7498   -2.9432 H   0  0  0  0  0  0  0  0  0  0  0  0
   -1.7109    8.0713   -3.8261 H   0  0  0  0  0  0  0  0  0  0  0  0
   -0.7666   11.3895   -1.9084 H   0  0  0  0  0  0  0  0  0  0  0  0
   -0.1792    9.7718   -1.4358 H   0  0  0  0  0  0  0  0  0  0  0  0
    1.1239   12.4121   -0.6493 H   0  0  0  0  0  0  0  0  0  0  0  0
    1.6252   10.8130   -0.0863 H   0  0  0  0  0  0  0  0  0  0  0  0
    1.7319   11.2239   -1.7985 H   0  0  0  0  0  0  0  0  0  0  0  0
   -2.3258   16.6664    2.9673 H   0  0  0  0  0  0  0  0  0  0  0  0
   -0.9148   17.4885    2.3091 H   0  0  0  0  0  0  0  0  0  0  0  0
   -0.4456   16.9375    4.6207 H   0  0  0  0  0  0  0  0  0  0  0  0
   -0.8860   15.2482    4.3936 H   0  0  0  0  0  0  0  0  0  0  0  0
    0.5651   15.8932    3.6197 H   0  0  0  0  0  0  0  0  0  0  0  0
   -0.1239   17.0805   -1.2432 H   0  0  0  0  0  0  0  0  0  0  0  0
   -1.7009   22.3780   -1.2130 H   0  0  0  0  0  0  0  0  0  0  0  0
   -3.7452   23.4656   -0.4087 H   0  0  0  0  0  0  0  0  0  0  0  0
   -5.4101   22.2306    0.9032 H   0  0  0  0  0  0  0  0  0  0  0  0
   -5.0476   19.8223    1.4343 H   0  0  0  0  0  0  0  0  0  0  0  0
    1.2424   -2.9059  -11.1395 H   0  0  0  0  0  0  0  0  0  0  0  0
    3.2106  -10.7632   -9.5028 H   0  0  0  0  0  0  0  0  0  0  0  0
    4.7156  -13.1838   -6.9138 H   0  0  0  0  0  0  0  0  0  0  0  0
    5.1266  -12.2225   -8.3459 H   0  0  0  0  0  0  0  0  0  0  0  0
    4.9323  -14.6290   -8.9275 H   0  0  0  0  0  0  0  0  0  0  0  0
    3.6666  -13.7015   -9.7391 H   0  0  0  0  0  0  0  0  0  0  0  0
    3.2782  -14.6591   -8.3086 H   0  0  0  0  0  0  0  0  0  0  0  0
    1.1415    0.5536   -9.7038 H   0  0  0  0  0  0  0  0  0  0  0  0
    1.9888   -0.5456  -10.7921 H   0  0  0  0  0  0  0  0  0  0  0  0
    0.7914    1.2340  -12.0656 H   0  0  0  0  0  0  0  0  0  0  0  0
   -0.7499    0.6719  -11.4059 H   0  0  0  0  0  0  0  0  0  0  0  0
    0.1866   -0.3764  -12.4633 H   0  0  0  0  0  0  0  0  0  0  0  0
  1  2  2  0  0  0  0
  1  3  1  0  0  0  0
  3  4  2  0  0  0  0
  4  5  1  0  0  0  0
  5  6  2  0  0  0  0
  6  7  1  0  0  0  0
  7  8  2  0  0  0  0
  3  8  1  0  0  0  0
  8  9  1  0  0  0  0
  9 10  2  0  0  0  0
 10 11  1  0  0  0  0
 11 12  3  0  0  0  0
 10 13  1  0  0  0  0
 13 14  3  0  0  0  0
  9 15  1  0  0  0  0
  1 15  1  0  0  0  0
 15 16  2  0  0  0  0
 16 17  1  0  0  0  0
 17 18  1  0  0  0  0
 18 19  1  0  0  0  0
 19 20  2  0  0  0  0
 20 21  1  0  0  0  0
 21 22  1  0  0  0  0
 22 23  1  0  0  0  0
 17 21  2  0  0  0  0
 20 24  1  0  0  0  0
 24 25  1  0  0  0  0
 25 26  2  0  0  0  0
 19 26  1  0  0  0  0
 26 27  1  0  0  0  0
 27 28  1  0  0  0  0
 28 29  1  0  0  0  0
 27 30  1  0  0  0  0
 30 31  2  0  0  0  0
 25 31  1  0  0  0  0
 31 32  1  0  0  0  0
 32 33  2  0  0  0  0
 33 34  1  0  0  0  0
 34 35  1  0  0  0  0
 35 36  2  0  0  0  0
 32 36  1  0  0  0  0
 36 37  1  0  0  0  0
 37 38  2  0  0  0  0
 30 38  1  0  0  0  0
 38 39  1  0  0  0  0
 39 40  1  0  0  0  0
 40 41  1  0  0  0  0
 39 42  1  0  0  0  0
 42 43  2  0  0  0  0
 37 43  1  0  0  0  0
 43 44  1  0  0  0  0
 44 45  1  0  0  0  0
 45 46  2  0  0  0  0
 42 46  1  0  0  0  0
 46 47  1  0  0  0  0
 47 48  1  0  0  0  0
 48 49  2  0  0  0  0
 45 49  1  0  0  0  0
 49 50  1  0  0  0  0
 50 51  1  0  0  0  0
 48 52  1  0  0  0  0
 52 53  2  0  0  0  0
 53 54  1  0  0  0  0
 54 55  2  0  0  0  0
 55 56  1  0  0  0  0
 56 57  3  0  0  0  0
 55 58  1  0  0  0  0
 58 59  3  0  0  0  0
 54 60  1  0  0  0  0
 60 61  2  0  0  0  0
 61 62  1  0  0  0  0
 62 63  2  0  0  0  0
 63 64  1  0  0  0  0
 64 65  2  0  0  0  0
 60 65  1  0  0  0  0
 65 66  1  0  0  0  0
 66 67  2  0  0  0  0
 53 66  1  0  0  0  0
  6 68  1  0  0  0  0
 68 69  2  0  0  0  0
 69 70  1  0  0  0  0
 70 71  2  0  0  0  0
 71 72  1  0  0  0  0
 72 68  1  0  0  0  0
 73 74  2  0  0  0  0
 74 75  1  0  0  0  0
 75 76  2  0  0  0  0
 76 77  1  0  0  0  0
 77 73  1  0  0  0  0
 71 78  1  0  0  0  0
 78 79  2  0  0  0  0
 79 80  1  0  0  0  0
 80 81  2  0  0  0  0
 81 82  1  0  0  0  0
 82 78  1  0  0  0  0
 80 83  1  0  0  0  0
 83 84  1  0  0  0  0
 84 85  2  0  0  0  0
 85 81  1  0  0  0  0
 84 73  1  0  0  0  0
 75 86  1  0  0  0  0
 86 87  1  0  0  0  0
 69 88  1  0  0  0  0
 88 89  1  0  0  0  0
 90 91  2  0  0  0  0
 90 92  1  0  0  0  0
 92 93  2  0  0  0  0
 93 94  1  0  0  0  0
 94 95  2  0  0  0  0
 95 96  1  0  0  0  0
 96 97  2  0  0  0  0
 92 97  1  0  0  0  0
 97 98  1  0  0  0  0
 98 99  2  0  0  0  0
 99100  1  0  0  0  0
100101  3  0  0  0  0
 99102  1  0  0  0  0
102103  3  0  0  0  0
 98104  1  0  0  0  0
 90104  1  0  0  0  0
104105  2  0  0  0  0
105106  1  0  0  0  0
106107  1  0  0  0  0
107108  1  0  0  0  0
108109  2  0  0  0  0
109110  1  0  0  0  0
110111  1  0  0  0  0
111112  1  0  0  0  0
106110  2  0  0  0  0
109113  1  0  0  0  0
113114  1  0  0  0  0
114115  2  0  0  0  0
108115  1  0  0  0  0
115116  1  0  0  0  0
116117  1  0  0  0  0
117118  1  0  0  0  0
116119  1  0  0  0  0
119120  2  0  0  0  0
114120  1  0  0  0  0
120121  1  0  0  0  0
121122  2  0  0  0  0
122123  1  0  0  0  0
123124  1  0  0  0  0
124125  2  0  0  0  0
121125  1  0  0  0  0
125126  1  0  0  0  0
126127  2  0  0  0  0
119127  1  0  0  0  0
127128  1  0  0  0  0
128129  1  0  0  0  0
129130  1  0  0  0  0
128131  1  0  0  0  0
131132  2  0  0  0  0
126132  1  0  0  0  0
132133  1  0  0  0  0
133134  1  0  0  0  0
134135  2  0  0  0  0
131135  1  0  0  0  0
135136  1  0  0  0  0
136137  1  0  0  0  0
137138  2  0  0  0  0
134138  1  0  0  0  0
138139  1  0  0  0  0
139140  1  0  0  0  0
137141  1  0  0  0  0
141142  2  0  0  0  0
142143  1  0  0  0  0
143144  2  0  0  0  0
144145  1  0  0  0  0
145146  3  0  0  0  0
144147  1  0  0  0  0
147148  3  0  0  0  0
143149  1  0  0  0  0
149150  2  0  0  0  0
150151  1  0  0  0  0
151152  2  0  0  0  0
152153  1  0  0  0  0
153154  2  0  0  0  0
149154  1  0  0  0  0
154155  1  0  0  0  0
155156  2  0  0  0  0
142155  1  0  0  0  0
 95157  1  0  0  0  0
157158  2  0  0  0  0
158159  1  0  0  0  0
159160  2  0  0  0  0
160161  1  0  0  0  0
161157  1  0  0  0  0
162163  2  0  0  0  0
163164  1  0  0  0  0
164165  2  0  0  0  0
165166  1  0  0  0  0
166162  1  0  0  0  0
160167  1  0  0  0  0
167168  2  0  0  0  0
168169  1  0  0  0  0
169170  2  0  0  0  0
170171  1  0  0  0  0
171167  1  0  0  0  0
169172  1  0  0  0  0
172173  1  0  0  0  0
173174  2  0  0  0  0
174170  1  0  0  0  0
173162  1  0  0  0  0
164175  1  0  0  0  0
175176  1  0  0  0  0
158177  1  0  0  0  0
177178  1  0  0  0  0
 62165  1  0  0  0  0
  4179  1  0  0  0  0
  5180  1  0  0  0  0
  7181  1  0  0  0  0
 16182  1  0  0  0  0
 22183  1  0  0  0  0
 22184  1  0  0  0  0
 23185  1  0  0  0  0
 23186  1  0  0  0  0
 23187  1  0  0  0  0
 28188  1  0  0  0  0
 28189  1  0  0  0  0
 29190  1  0  0  0  0
 29191  1  0  0  0  0
 29192  1  0  0  0  0
 40193  1  0  0  0  0
 40194  1  0  0  0  0
 41195  1  0  0  0  0
 41196  1  0  0  0  0
 41197  1  0  0  0  0
 50198  1  0  0  0  0
 50199  1  0  0  0  0
 51200  1  0  0  0  0
 51201  1  0  0  0  0
 51202  1  0  0  0  0
 52203  1  0  0  0  0
 61204  1  0  0  0  0
 63205  1  0  0  0  0
 64206  1  0  0  0  0
 70207  1  0  0  0  0
 74208  1  0  0  0  0
 76209  1  0  0  0  0
 86210  1  0  0  0  0
 86211  1  0  0  0  0
 87212  1  0  0  0  0
 87213  1  0  0  0  0
 87214  1  0  0  0  0
 88215  1  0  0  0  0
 88216  1  0  0  0  0
 89217  1  0  0  0  0
 89218  1  0  0  0  0
 89219  1  0  0  0  0
 93220  1  0  0  0  0
 94221  1  0  0  0  0
 96222  1  0  0  0  0
105223  1  0  0  0  0
111224  1  0  0  0  0
111225  1  0  0  0  0
112226  1  0  0  0  0
112227  1  0  0  0  0
112228  1  0  0  0  0
117229  1  0  0  0  0
117230  1  0  0  0  0
118231  1  0  0  0  0
118232  1  0  0  0  0
118233  1  0  0  0  0
129234  1  0  0  0  0
129235  1  0  0  0  0
130236  1  0  0  0  0
130237  1  0  0  0  0
130238  1  0  0  0  0
139239  1  0  0  0  0
139240  1  0  0  0  0
140241  1  0  0  0  0
140242  1  0  0  0  0
140243  1  0  0  0  0
141244  1  0  0  0  0
150245  1  0  0  0  0
151246  1  0  0  0  0
152247  1  0  0  0  0
153248  1  0  0  0  0
159249  1  0  0  0  0
163250  1  0  0  0  0
175251  1  0  0  0  0
175252  1  0  0  0  0
176253  1  0  0  0  0
176254  1  0  0  0  0
176255  1  0  0  0  0
177256  1  0  0  0  0
177257  1  0  0  0  0
178258  1  0  0  0  0
178259  1  0  0  0  0
178260  1  0  0  0  0
M  END
