PY5-BTZ.sdf
  xtb     12222119563D
 energy: -474.883288425896 gnorm: 0.001845459104 xtb: 6.4.1 (unknown)
256287  0     0  0            999 V2000
    0.8536   -1.4062   -0.1081 C   0  0  0  0  0  0  0  0  0  0  0  0
   -0.1266   -2.0888    0.1472 O   0  0  0  0  0  0  0  0  0  0  0  0
    0.9323   -0.3154   -1.0907 C   0  0  0  0  0  0  0  0  0  0  0  0
   -0.0483    0.2303   -1.9008 C   0  0  0  0  0  0  0  0  0  0  0  0
    0.2513    1.3564   -2.6471 C   0  0  0  0  0  0  0  0  0  0  0  0
    1.5213    1.9466   -2.6000 C   0  0  0  0  0  0  0  0  0  0  0  0
    2.5200    1.3586   -1.8054 C   0  0  0  0  0  0  0  0  0  0  0  0
    2.2258    0.2383   -1.0611 C   0  0  0  0  0  0  0  0  0  0  0  0
    3.0422   -0.5138   -0.1090 C   0  0  0  0  0  0  0  0  0  0  0  0
    4.3899   -0.3225    0.0838 C   0  0  0  0  0  0  0  0  0  0  0  0
    5.1674    0.6203   -0.6165 C   0  0  0  0  0  0  0  0  0  0  0  0
    5.8546    1.3775   -1.1421 N   0  0  0  0  0  0  0  0  0  0  0  0
    5.1912   -1.0452    0.9862 C   0  0  0  0  0  0  0  0  0  0  0  0
    5.9086   -1.5955    1.6969 N   0  0  0  0  0  0  0  0  0  0  0  0
    2.1697   -1.4634    0.5424 C   0  0  0  0  0  0  0  0  0  0  0  0
    2.4854   -2.1881    1.6681 C   0  0  0  0  0  0  0  0  0  0  0  0
    1.7172   -3.0428    2.4637 C   0  0  0  0  0  0  0  0  0  0  0  0
    0.0660   -3.5649    2.1139 S   0  0  0  0  0  0  0  0  0  0  0  0
   -0.0001   -4.4411    3.6007 C   0  0  0  0  0  0  0  0  0  0  0  0
    1.1977   -4.3014    4.3288 C   0  0  0  0  0  0  0  0  0  0  0  0
    2.1688   -3.5367    3.7017 C   0  0  0  0  0  0  0  0  0  0  0  0
    3.5002   -3.2686    4.3266 C   0  0  0  0  0  0  0  0  0  0  0  0
    4.5998   -4.1437    3.7220 C   0  0  0  0  0  0  0  0  0  0  0  0
    1.1469   -5.0187    5.9270 S   0  0  0  0  0  0  0  0  0  0  0  0
   -0.4974   -5.4551    5.6338 C   0  0  0  0  0  0  0  0  0  0  0  0
   -0.9612   -5.1282    4.3520 C   0  0  0  0  0  0  0  0  0  0  0  0
   -2.2772   -5.4932    4.2364 N   0  0  0  0  0  0  0  0  0  0  0  0
   -2.9943   -5.1901    3.0211 C   0  0  0  0  0  0  0  0  0  0  0  0
   -3.8726   -3.9498    3.1669 C   0  0  0  0  0  0  0  0  0  0  0  0
   -2.7044   -5.9806    5.4595 C   0  0  0  0  0  0  0  0  0  0  0  0
   -1.5864   -5.9623    6.3484 C   0  0  0  0  0  0  0  0  0  0  0  0
   -1.7041   -6.2492    7.7268 C   0  0  0  0  0  0  0  0  0  0  0  0
   -0.7569   -6.2792    8.6501 N   0  0  0  0  0  0  0  0  0  0  0  0
   -1.4534   -6.5388   10.0889 S   0  0  0  0  0  0  0  0  0  0  0  0
   -2.9909   -6.6125    9.5877 N   0  0  0  0  0  0  0  0  0  0  0  0
   -3.0114   -6.4464    8.2748 C   0  0  0  0  0  0  0  0  0  0  0  0
   -4.1183   -6.4645    7.3983 C   0  0  0  0  0  0  0  0  0  0  0  0
   -3.9765   -6.3542    5.9818 C   0  0  0  0  0  0  0  0  0  0  0  0
   -5.2329   -6.5116    5.4128 N   0  0  0  0  0  0  0  0  0  0  0  0
   -5.6078   -6.9040    4.0695 C   0  0  0  0  0  0  0  0  0  0  0  0
   -4.9236   -8.2030    3.6540 C   0  0  0  0  0  0  0  0  0  0  0  0
   -6.1402   -6.6439    6.4309 C   0  0  0  0  0  0  0  0  0  0  0  0
   -5.4867   -6.5983    7.6670 C   0  0  0  0  0  0  0  0  0  0  0  0
   -6.5573   -6.5822    9.0269 S   0  0  0  0  0  0  0  0  0  0  0  0
   -7.9181   -6.5825    7.9252 C   0  0  0  0  0  0  0  0  0  0  0  0
   -7.5311   -6.6699    6.5779 C   0  0  0  0  0  0  0  0  0  0  0  0
   -8.8985   -6.6481    5.5339 S   0  0  0  0  0  0  0  0  0  0  0  0
   -9.9726   -6.3384    6.9123 C   0  0  0  0  0  0  0  0  0  0  0  0
   -9.2875   -6.3610    8.1182 C   0  0  0  0  0  0  0  0  0  0  0  0
   -9.9521   -6.2078    9.4436 C   0  0  0  0  0  0  0  0  0  0  0  0
  -10.6109   -7.5246    9.8629 C   0  0  0  0  0  0  0  0  0  0  0  0
  -11.2378   -5.8027    6.5710 C   0  0  0  0  0  0  0  0  0  0  0  0
  -11.8234   -6.1503    5.3803 C   0  0  0  0  0  0  0  0  0  0  0  0
  -12.3567   -5.2694    4.3673 C   0  0  0  0  0  0  0  0  0  0  0  0
  -12.9096   -4.0289    4.5220 C   0  0  0  0  0  0  0  0  0  0  0  0
  -13.1655   -3.4672    5.7885 C   0  0  0  0  0  0  0  0  0  0  0  0
  -13.3620   -2.9966    6.8168 N   0  0  0  0  0  0  0  0  0  0  0  0
  -13.2909   -3.2257    3.4289 C   0  0  0  0  0  0  0  0  0  0  0  0
  -13.5996   -2.5471    2.5562 N   0  0  0  0  0  0  0  0  0  0  0  0
  -12.0353   -5.9265    3.0943 C   0  0  0  0  0  0  0  0  0  0  0  0
  -11.6292   -5.3702    1.8972 C   0  0  0  0  0  0  0  0  0  0  0  0
  -11.0123   -6.2149    0.9626 C   0  0  0  0  0  0  0  0  0  0  0  0
  -11.0940   -7.6084    1.1199 C   0  0  0  0  0  0  0  0  0  0  0  0
  -11.5047   -8.1658    2.3126 C   0  0  0  0  0  0  0  0  0  0  0  0
  -11.8389   -7.3000    3.3398 C   0  0  0  0  0  0  0  0  0  0  0  0
  -11.6877   -7.5064    4.7867 C   0  0  0  0  0  0  0  0  0  0  0  0
  -11.4894   -8.5412    5.3852 O   0  0  0  0  0  0  0  0  0  0  0  0
    1.8192    3.1623   -3.3164 C   0  0  0  0  0  0  0  0  0  0  0  0
    3.0610    3.7220   -3.5239 C   0  0  0  0  0  0  0  0  0  0  0  0
    3.0229    4.9350   -4.2075 C   0  0  0  0  0  0  0  0  0  0  0  0
    1.7464    5.3375   -4.5325 C   0  0  0  0  0  0  0  0  0  0  0  0
    0.5744    4.1755   -3.9943 S   0  0  0  0  0  0  0  0  0  0  0  0
    1.3272    6.5555   -5.1593 C   0  0  0  0  0  0  0  0  0  0  0  0
   -0.0418    6.8740   -5.3174 C   0  0  0  0  0  0  0  0  0  0  0  0
   -0.5011    8.1262   -5.8193 C   0  0  0  0  0  0  0  0  0  0  0  0
    0.3926    9.1570   -6.2037 C   0  0  0  0  0  0  0  0  0  0  0  0
    1.7281    8.7980   -6.0847 C   0  0  0  0  0  0  0  0  0  0  0  0
    2.1774    7.5630   -5.5950 C   0  0  0  0  0  0  0  0  0  0  0  0
   -1.1206    6.1372   -5.0282 N   0  0  0  0  0  0  0  0  0  0  0  0
   -2.1283    6.9035   -5.3388 N   0  0  0  0  0  0  0  0  0  0  0  0
   -1.8404    8.0846   -5.8075 N   0  0  0  0  0  0  0  0  0  0  0  0
    2.6893    9.6847   -6.4159 F   0  0  0  0  0  0  0  0  0  0  0  0
    3.5127    7.4038   -5.5538 F   0  0  0  0  0  0  0  0  0  0  0  0
   -3.4843    6.4535   -5.2088 C   0  0  0  0  0  0  0  0  0  0  0  0
   -4.0204    5.9776   -6.5555 C   0  0  0  0  0  0  0  0  0  0  0  0
   -0.0621   10.4429   -6.6413 C   0  0  0  0  0  0  0  0  0  0  0  0
   -1.3627   10.8932   -6.6675 C   0  0  0  0  0  0  0  0  0  0  0  0
   -1.4767   12.2128   -7.1261 C   0  0  0  0  0  0  0  0  0  0  0  0
   -0.2726   12.7611   -7.4515 C   0  0  0  0  0  0  0  0  0  0  0  0
    1.0284   11.6827   -7.2016 S   0  0  0  0  0  0  0  0  0  0  0  0
    5.7517   -3.0879   -1.4251 C   0  0  0  0  0  0  0  0  0  0  0  0
    6.1853   -2.2696   -2.2228 O   0  0  0  0  0  0  0  0  0  0  0  0
    4.3646   -3.5635   -1.3710 C   0  0  0  0  0  0  0  0  0  0  0  0
    3.2673   -3.1275   -2.0892 C   0  0  0  0  0  0  0  0  0  0  0  0
    2.0417   -3.7089   -1.8282 C   0  0  0  0  0  0  0  0  0  0  0  0
    1.9070   -4.7075   -0.8559 C   0  0  0  0  0  0  0  0  0  0  0  0
    3.0307   -5.1373   -0.1307 C   0  0  0  0  0  0  0  0  0  0  0  0
    4.2597   -4.5748   -0.4013 C   0  0  0  0  0  0  0  0  0  0  0  0
    5.5894   -4.8054    0.1722 C   0  0  0  0  0  0  0  0  0  0  0  0
    5.9112   -5.8281    1.0280 C   0  0  0  0  0  0  0  0  0  0  0  0
    7.1997   -6.0780    1.5421 C   0  0  0  0  0  0  0  0  0  0  0  0
    8.2191   -6.3488    1.9973 N   0  0  0  0  0  0  0  0  0  0  0  0
    4.9805   -6.7816    1.4858 C   0  0  0  0  0  0  0  0  0  0  0  0
    4.2609   -7.5785    1.8948 N   0  0  0  0  0  0  0  0  0  0  0  0
    6.4711   -3.7912   -0.3621 C   0  0  0  0  0  0  0  0  0  0  0  0
    7.6817   -3.4275    0.1894 C   0  0  0  0  0  0  0  0  0  0  0  0
    8.4576   -2.2941   -0.0619 C   0  0  0  0  0  0  0  0  0  0  0  0
    8.1233   -1.1667   -1.3770 S   0  0  0  0  0  0  0  0  0  0  0  0
    9.2241   -0.0506   -0.6954 C   0  0  0  0  0  0  0  0  0  0  0  0
    9.8616   -0.5318    0.4588 C   0  0  0  0  0  0  0  0  0  0  0  0
    9.4613   -1.8161    0.8076 C   0  0  0  0  0  0  0  0  0  0  0  0
    9.9321   -2.5213    2.0361 C   0  0  0  0  0  0  0  0  0  0  0  0
    9.0408   -2.1620    3.2296 C   0  0  0  0  0  0  0  0  0  0  0  0
   10.8758    0.6933    1.2219 S   0  0  0  0  0  0  0  0  0  0  0  0
   10.3337    1.8636    0.0528 C   0  0  0  0  0  0  0  0  0  0  0  0
    9.4839    1.2980   -0.9083 C   0  0  0  0  0  0  0  0  0  0  0  0
    8.9841    2.2570   -1.7380 N   0  0  0  0  0  0  0  0  0  0  0  0
    8.5131    1.9041   -3.0594 C   0  0  0  0  0  0  0  0  0  0  0  0
    9.5772    1.1228   -3.8291 C   0  0  0  0  0  0  0  0  0  0  0  0
    9.4421    3.4660   -1.2741 C   0  0  0  0  0  0  0  0  0  0  0  0
   10.3567    3.2480   -0.2013 C   0  0  0  0  0  0  0  0  0  0  0  0
   11.0581    4.3471    0.3526 C   0  0  0  0  0  0  0  0  0  0  0  0
   12.0119    4.3304    1.2674 N   0  0  0  0  0  0  0  0  0  0  0  0
   12.5262    5.8462    1.5127 S   0  0  0  0  0  0  0  0  0  0  0  0
   11.5393    6.5902    0.4653 N   0  0  0  0  0  0  0  0  0  0  0  0
   10.7761    5.6824   -0.1174 C   0  0  0  0  0  0  0  0  0  0  0  0
    9.6929    5.8929   -1.0076 C   0  0  0  0  0  0  0  0  0  0  0  0
    8.9866    4.7762   -1.5415 C   0  0  0  0  0  0  0  0  0  0  0  0
    7.8322    5.2179   -2.1375 N   0  0  0  0  0  0  0  0  0  0  0  0
    6.6900    4.5071   -2.6628 C   0  0  0  0  0  0  0  0  0  0  0  0
    6.6327    4.6268   -4.1880 C   0  0  0  0  0  0  0  0  0  0  0  0
    7.7981    6.5752   -2.0132 C   0  0  0  0  0  0  0  0  0  0  0  0
    8.9529    7.0334   -1.3613 C   0  0  0  0  0  0  0  0  0  0  0  0
    8.9672    8.7575   -1.1523 S   0  0  0  0  0  0  0  0  0  0  0  0
    7.3624    8.8429   -1.8692 C   0  0  0  0  0  0  0  0  0  0  0  0
    6.8695    7.5844   -2.2608 C   0  0  0  0  0  0  0  0  0  0  0  0
    5.2243    7.6495   -2.7391 S   0  0  0  0  0  0  0  0  0  0  0  0
    5.2218    9.3955   -2.5355 C   0  0  0  0  0  0  0  0  0  0  0  0
    6.4617    9.8789   -2.0725 C   0  0  0  0  0  0  0  0  0  0  0  0
    6.7548   11.3064   -1.7481 C   0  0  0  0  0  0  0  0  0  0  0  0
    6.1768   11.6885   -0.3829 C   0  0  0  0  0  0  0  0  0  0  0  0
    4.1205   10.2017   -2.8332 C   0  0  0  0  0  0  0  0  0  0  0  0
    2.8022    9.8554   -3.0316 C   0  0  0  0  0  0  0  0  0  0  0  0
    1.7419   10.7789   -3.3724 C   0  0  0  0  0  0  0  0  0  0  0  0
    1.8769   12.0653   -3.8275 C   0  0  0  0  0  0  0  0  0  0  0  0
    3.1024   12.7278   -4.0484 C   0  0  0  0  0  0  0  0  0  0  0  0
    4.0564   13.3371   -4.2449 N   0  0  0  0  0  0  0  0  0  0  0  0
    0.7927   12.9088   -4.1416 C   0  0  0  0  0  0  0  0  0  0  0  0
   -0.0447   13.6484   -4.4086 N   0  0  0  0  0  0  0  0  0  0  0  0
    0.4693   10.0827   -3.1764 C   0  0  0  0  0  0  0  0  0  0  0  0
   -0.8439   10.5021   -3.3106 C   0  0  0  0  0  0  0  0  0  0  0  0
   -1.8596    9.6046   -3.0070 C   0  0  0  0  0  0  0  0  0  0  0  0
   -1.5842    8.3166   -2.5728 C   0  0  0  0  0  0  0  0  0  0  0  0
   -0.2723    7.8800   -2.4530 C   0  0  0  0  0  0  0  0  0  0  0  0
    0.7385    8.7679   -2.7620 C   0  0  0  0  0  0  0  0  0  0  0  0
    2.1992    8.5542   -2.7309 C   0  0  0  0  0  0  0  0  0  0  0  0
    2.7557    7.4979   -2.4783 O   0  0  0  0  0  0  0  0  0  0  0  0
    0.6152   -5.2882   -0.5920 C   0  0  0  0  0  0  0  0  0  0  0  0
    0.3318   -6.4083    0.1612 C   0  0  0  0  0  0  0  0  0  0  0  0
   -1.0280   -6.6959    0.2278 C   0  0  0  0  0  0  0  0  0  0  0  0
   -1.8073   -5.7914   -0.4681 C   0  0  0  0  0  0  0  0  0  0  0  0
   -0.8332   -4.5750   -1.2208 S   0  0  0  0  0  0  0  0  0  0  0  0
   -3.2334   -5.7458   -0.5879 C   0  0  0  0  0  0  0  0  0  0  0  0
   -3.9061   -4.6294   -1.1399 C   0  0  0  0  0  0  0  0  0  0  0  0
   -5.3283   -4.5128   -1.1849 C   0  0  0  0  0  0  0  0  0  0  0  0
   -6.1817   -5.5356   -0.7027 C   0  0  0  0  0  0  0  0  0  0  0  0
   -5.4906   -6.6386   -0.2156 C   0  0  0  0  0  0  0  0  0  0  0  0
   -4.0965   -6.7372   -0.1480 C   0  0  0  0  0  0  0  0  0  0  0  0
   -3.3983   -3.5056   -1.6550 N   0  0  0  0  0  0  0  0  0  0  0  0
   -4.4394   -2.7916   -1.9704 N   0  0  0  0  0  0  0  0  0  0  0  0
   -5.6073   -3.3159   -1.7207 N   0  0  0  0  0  0  0  0  0  0  0  0
   -6.1641   -7.6988    0.2814 F   0  0  0  0  0  0  0  0  0  0  0  0
   -3.6200   -7.8693    0.4112 F   0  0  0  0  0  0  0  0  0  0  0  0
   -4.2961   -1.4639   -2.4943 C   0  0  0  0  0  0  0  0  0  0  0  0
   -3.9722   -0.4945   -1.3602 C   0  0  0  0  0  0  0  0  0  0  0  0
   -7.6063   -5.4060   -0.6145 C   0  0  0  0  0  0  0  0  0  0  0  0
   -8.4006   -4.3131   -0.8935 C   0  0  0  0  0  0  0  0  0  0  0  0
   -9.7304   -4.4701   -0.4793 C   0  0  0  0  0  0  0  0  0  0  0  0
   -9.9806   -5.6965    0.0867 C   0  0  0  0  0  0  0  0  0  0  0  0
   -8.5510   -6.6796    0.0860 S   0  0  0  0  0  0  0  0  0  0  0  0
   -1.0305   -0.2147   -1.9313 H   0  0  0  0  0  0  0  0  0  0  0  0
   -0.5045    1.8086   -3.2725 H   0  0  0  0  0  0  0  0  0  0  0  0
    3.4923    1.8143   -1.7519 H   0  0  0  0  0  0  0  0  0  0  0  0
    3.4825   -2.0302    2.0580 H   0  0  0  0  0  0  0  0  0  0  0  0
    3.4176   -3.4880    5.3931 H   0  0  0  0  0  0  0  0  0  0  0  0
    3.7732   -2.2172    4.2160 H   0  0  0  0  0  0  0  0  0  0  0  0
    4.3213   -5.1938    3.7738 H   0  0  0  0  0  0  0  0  0  0  0  0
    4.7741   -3.8748    2.6830 H   0  0  0  0  0  0  0  0  0  0  0  0
    5.5270   -4.0019    4.2709 H   0  0  0  0  0  0  0  0  0  0  0  0
   -3.5708   -6.0586    2.7042 H   0  0  0  0  0  0  0  0  0  0  0  0
   -2.2389   -5.0018    2.2536 H   0  0  0  0  0  0  0  0  0  0  0  0
   -4.5629   -4.0504    4.0017 H   0  0  0  0  0  0  0  0  0  0  0  0
   -4.4411   -3.7906    2.2538 H   0  0  0  0  0  0  0  0  0  0  0  0
   -3.2496   -3.0760    3.3413 H   0  0  0  0  0  0  0  0  0  0  0  0
   -5.4078   -6.1002    3.3606 H   0  0  0  0  0  0  0  0  0  0  0  0
   -6.6902   -7.0557    4.0821 H   0  0  0  0  0  0  0  0  0  0  0  0
   -5.2129   -9.0075    4.3259 H   0  0  0  0  0  0  0  0  0  0  0  0
   -3.8404   -8.1079    3.6852 H   0  0  0  0  0  0  0  0  0  0  0  0
   -5.2241   -8.4732    2.6462 H   0  0  0  0  0  0  0  0  0  0  0  0
  -10.7150   -5.4282    9.3820 H   0  0  0  0  0  0  0  0  0  0  0  0
   -9.2062   -5.9159   10.1852 H   0  0  0  0  0  0  0  0  0  0  0  0
   -9.8641   -8.3105    9.9455 H   0  0  0  0  0  0  0  0  0  0  0  0
  -11.1003   -7.4070   10.8257 H   0  0  0  0  0  0  0  0  0  0  0  0
  -11.3516   -7.8281    9.1270 H   0  0  0  0  0  0  0  0  0  0  0  0
  -11.6065   -4.9739    7.1648 H   0  0  0  0  0  0  0  0  0  0  0  0
  -11.6378   -4.3027    1.7397 H   0  0  0  0  0  0  0  0  0  0  0  0
  -10.7099   -8.2439    0.3357 H   0  0  0  0  0  0  0  0  0  0  0  0
  -11.4512   -9.2288    2.4866 H   0  0  0  0  0  0  0  0  0  0  0  0
    3.9787    3.2668   -3.1997 H   0  0  0  0  0  0  0  0  0  0  0  0
    3.8973    5.5118   -4.4324 H   0  0  0  0  0  0  0  0  0  0  0  0
   -3.4821    5.6389   -4.4828 H   0  0  0  0  0  0  0  0  0  0  0  0
   -4.0811    7.2898   -4.8388 H   0  0  0  0  0  0  0  0  0  0  0  0
   -3.9913    6.7908   -7.2760 H   0  0  0  0  0  0  0  0  0  0  0  0
   -5.0474    5.6416   -6.4460 H   0  0  0  0  0  0  0  0  0  0  0  0
   -3.4192    5.1534   -6.9306 H   0  0  0  0  0  0  0  0  0  0  0  0
   -2.1866   10.2776   -6.3589 H   0  0  0  0  0  0  0  0  0  0  0  0
   -2.4098   12.7396   -7.2081 H   0  0  0  0  0  0  0  0  0  0  0  0
   -0.0712   13.7481   -7.8171 H   0  0  0  0  0  0  0  0  0  0  0  0
    3.3785   -2.3512   -2.8316 H   0  0  0  0  0  0  0  0  0  0  0  0
    1.1663   -3.3966   -2.3787 H   0  0  0  0  0  0  0  0  0  0  0  0
    2.9186   -5.8863    0.6338 H   0  0  0  0  0  0  0  0  0  0  0  0
    8.0212   -4.0232    1.0262 H   0  0  0  0  0  0  0  0  0  0  0  0
   10.9562   -2.2057    2.2459 H   0  0  0  0  0  0  0  0  0  0  0  0
    9.9295   -3.6019    1.8859 H   0  0  0  0  0  0  0  0  0  0  0  0
    9.1210   -1.1003    3.4507 H   0  0  0  0  0  0  0  0  0  0  0  0
    8.0005   -2.3882    3.0106 H   0  0  0  0  0  0  0  0  0  0  0  0
    9.3493   -2.7260    4.1057 H   0  0  0  0  0  0  0  0  0  0  0  0
    8.2957    2.8144   -3.6077 H   0  0  0  0  0  0  0  0  0  0  0  0
    7.6081    1.2970   -2.9592 H   0  0  0  0  0  0  0  0  0  0  0  0
    9.7827    0.1677   -3.3550 H   0  0  0  0  0  0  0  0  0  0  0  0
    9.2229    0.9335   -4.8387 H   0  0  0  0  0  0  0  0  0  0  0  0
   10.5022    1.6940   -3.8843 H   0  0  0  0  0  0  0  0  0  0  0  0
    6.7190    3.4723   -2.3246 H   0  0  0  0  0  0  0  0  0  0  0  0
    5.7934    4.9735   -2.2398 H   0  0  0  0  0  0  0  0  0  0  0  0
    7.6012    4.4206   -4.6396 H   0  0  0  0  0  0  0  0  0  0  0  0
    5.9061    3.9309   -4.5960 H   0  0  0  0  0  0  0  0  0  0  0  0
    6.3483    5.6366   -4.4731 H   0  0  0  0  0  0  0  0  0  0  0  0
    6.3440   11.9638   -2.5170 H   0  0  0  0  0  0  0  0  0  0  0  0
    7.8381   11.4380   -1.7271 H   0  0  0  0  0  0  0  0  0  0  0  0
    6.6031   11.0599    0.3957 H   0  0  0  0  0  0  0  0  0  0  0  0
    6.4098   12.7257   -0.1580 H   0  0  0  0  0  0  0  0  0  0  0  0
    5.0959   11.5647   -0.3738 H   0  0  0  0  0  0  0  0  0  0  0  0
    4.3464   11.2599   -2.8704 H   0  0  0  0  0  0  0  0  0  0  0  0
   -1.0892   11.4993   -3.6356 H   0  0  0  0  0  0  0  0  0  0  0  0
   -2.8857    9.9255   -3.1050 H   0  0  0  0  0  0  0  0  0  0  0  0
   -2.3957    7.6463   -2.3296 H   0  0  0  0  0  0  0  0  0  0  0  0
   -0.0371    6.8777   -2.1287 H   0  0  0  0  0  0  0  0  0  0  0  0
    1.0793   -7.0137    0.6410 H   0  0  0  0  0  0  0  0  0  0  0  0
   -1.4210   -7.5337    0.7719 H   0  0  0  0  0  0  0  0  0  0  0  0
   -3.4841   -1.4799   -3.2250 H   0  0  0  0  0  0  0  0  0  0  0  0
   -5.2364   -1.2006   -2.9816 H   0  0  0  0  0  0  0  0  0  0  0  0
   -3.0859   -0.8329   -0.8274 H   0  0  0  0  0  0  0  0  0  0  0  0
   -4.8017   -0.4428   -0.6586 H   0  0  0  0  0  0  0  0  0  0  0  0
   -3.7915    0.4994   -1.7600 H   0  0  0  0  0  0  0  0  0  0  0  0
   -8.0053   -3.4221   -1.3458 H   0  0  0  0  0  0  0  0  0  0  0  0
  -10.4797   -3.7061   -0.5877 H   0  0  0  0  0  0  0  0  0  0  0  0
  1  2  2  0  0  0  0
  1  3  1  0  0  0  0
  3  4  2  0  0  0  0
  4  5  1  0  0  0  0
  5  6  2  0  0  0  0
  6  7  1  0  0  0  0
  7  8  2  0  0  0  0
  3  8  1  0  0  0  0
  8  9  1  0  0  0  0
  9 10  2  0  0  0  0
 10 11  1  0  0  0  0
 11 12  3  0  0  0  0
 10 13  1  0  0  0  0
 13 14  3  0  0  0  0
  9 15  1  0  0  0  0
  1 15  1  0  0  0  0
 15 16  2  0  0  0  0
 16 17  1  0  0  0  0
 17 18  1  0  0  0  0
 18 19  1  0  0  0  0
 19 20  2  0  0  0  0
 20 21  1  0  0  0  0
 21 22  1  0  0  0  0
 22 23  1  0  0  0  0
 17 21  2  0  0  0  0
 20 24  1  0  0  0  0
 24 25  1  0  0  0  0
 25 26  2  0  0  0  0
 19 26  1  0  0  0  0
 26 27  1  0  0  0  0
 27 28  1  0  0  0  0
 28 29  1  0  0  0  0
 27 30  1  0  0  0  0
 30 31  2  0  0  0  0
 25 31  1  0  0  0  0
 31 32  1  0  0  0  0
 32 33  2  0  0  0  0
 33 34  1  0  0  0  0
 34 35  1  0  0  0  0
 35 36  2  0  0  0  0
 32 36  1  0  0  0  0
 36 37  1  0  0  0  0
 37 38  2  0  0  0  0
 30 38  1  0  0  0  0
 38 39  1  0  0  0  0
 39 40  1  0  0  0  0
 40 41  1  0  0  0  0
 39 42  1  0  0  0  0
 42 43  2  0  0  0  0
 37 43  1  0  0  0  0
 43 44  1  0  0  0  0
 44 45  1  0  0  0  0
 45 46  2  0  0  0  0
 42 46  1  0  0  0  0
 46 47  1  0  0  0  0
 47 48  1  0  0  0  0
 48 49  2  0  0  0  0
 45 49  1  0  0  0  0
 49 50  1  0  0  0  0
 50 51  1  0  0  0  0
 48 52  1  0  0  0  0
 52 53  2  0  0  0  0
 53 54  1  0  0  0  0
 54 55  2  0  0  0  0
 55 56  1  0  0  0  0
 56 57  3  0  0  0  0
 55 58  1  0  0  0  0
 58 59  3  0  0  0  0
 54 60  1  0  0  0  0
 60 61  2  0  0  0  0
 61 62  1  0  0  0  0
 62 63  2  0  0  0  0
 63 64  1  0  0  0  0
 64 65  2  0  0  0  0
 60 65  1  0  0  0  0
 65 66  1  0  0  0  0
 66 67  2  0  0  0  0
 53 66  1  0  0  0  0
  6 68  1  0  0  0  0
 68 69  2  0  0  0  0
 69 70  1  0  0  0  0
 70 71  2  0  0  0  0
 71 72  1  0  0  0  0
 72 68  1  0  0  0  0
 71 73  1  0  0  0  0
 73 74  1  0  0  0  0
 74 75  1  0  0  0  0
 75 76  1  0  0  0  0
 76 77  2  0  0  0  0
 77 78  1  0  0  0  0
 78 73  2  0  0  0  0
 74 79  2  0  0  0  0
 79 80  1  0  0  0  0
 80 81  1  0  0  0  0
 81 75  2  0  0  0  0
 77 82  1  0  0  0  0
 78 83  1  0  0  0  0
 80 84  1  0  0  0  0
 84 85  1  0  0  0  0
 76 86  1  0  0  0  0
 86 87  2  0  0  0  0
 87 88  1  0  0  0  0
 88 89  2  0  0  0  0
 89 90  1  0  0  0  0
 90 86  1  0  0  0  0
 91 92  2  0  0  0  0
 91 93  1  0  0  0  0
 93 94  2  0  0  0  0
 94 95  1  0  0  0  0
 95 96  2  0  0  0  0
 96 97  1  0  0  0  0
 97 98  2  0  0  0  0
 93 98  1  0  0  0  0
 98 99  1  0  0  0  0
 99100  2  0  0  0  0
100101  1  0  0  0  0
101102  3  0  0  0  0
100103  1  0  0  0  0
103104  3  0  0  0  0
 99105  1  0  0  0  0
 91105  1  0  0  0  0
105106  2  0  0  0  0
106107  1  0  0  0  0
107108  1  0  0  0  0
108109  1  0  0  0  0
109110  2  0  0  0  0
110111  1  0  0  0  0
111112  1  0  0  0  0
112113  1  0  0  0  0
107111  2  0  0  0  0
110114  1  0  0  0  0
114115  1  0  0  0  0
115116  2  0  0  0  0
109116  1  0  0  0  0
116117  1  0  0  0  0
117118  1  0  0  0  0
118119  1  0  0  0  0
117120  1  0  0  0  0
120121  2  0  0  0  0
115121  1  0  0  0  0
121122  1  0  0  0  0
122123  2  0  0  0  0
123124  1  0  0  0  0
124125  1  0  0  0  0
125126  2  0  0  0  0
122126  1  0  0  0  0
126127  1  0  0  0  0
127128  2  0  0  0  0
120128  1  0  0  0  0
128129  1  0  0  0  0
129130  1  0  0  0  0
130131  1  0  0  0  0
129132  1  0  0  0  0
132133  2  0  0  0  0
127133  1  0  0  0  0
133134  1  0  0  0  0
134135  1  0  0  0  0
135136  2  0  0  0  0
132136  1  0  0  0  0
136137  1  0  0  0  0
137138  1  0  0  0  0
138139  2  0  0  0  0
135139  1  0  0  0  0
139140  1  0  0  0  0
140141  1  0  0  0  0
138142  1  0  0  0  0
142143  2  0  0  0  0
143144  1  0  0  0  0
144145  2  0  0  0  0
145146  1  0  0  0  0
146147  3  0  0  0  0
145148  1  0  0  0  0
148149  3  0  0  0  0
144150  1  0  0  0  0
150151  2  0  0  0  0
151152  1  0  0  0  0
152153  2  0  0  0  0
153154  1  0  0  0  0
154155  2  0  0  0  0
150155  1  0  0  0  0
155156  1  0  0  0  0
156157  2  0  0  0  0
143156  1  0  0  0  0
 96158  1  0  0  0  0
158159  2  0  0  0  0
159160  1  0  0  0  0
160161  2  0  0  0  0
161162  1  0  0  0  0
162158  1  0  0  0  0
161163  1  0  0  0  0
163164  1  0  0  0  0
164165  1  0  0  0  0
165166  1  0  0  0  0
166167  2  0  0  0  0
167168  1  0  0  0  0
168163  2  0  0  0  0
164169  2  0  0  0  0
169170  1  0  0  0  0
170171  1  0  0  0  0
171165  2  0  0  0  0
167172  1  0  0  0  0
168173  1  0  0  0  0
170174  1  0  0  0  0
174175  1  0  0  0  0
166176  1  0  0  0  0
176177  2  0  0  0  0
177178  1  0  0  0  0
178179  2  0  0  0  0
179180  1  0  0  0  0
180176  1  0  0  0  0
 62179  1  0  0  0  0
  4181  1  0  0  0  0
  5182  1  0  0  0  0
  7183  1  0  0  0  0
 16184  1  0  0  0  0
 22185  1  0  0  0  0
 22186  1  0  0  0  0
 23187  1  0  0  0  0
 23188  1  0  0  0  0
 23189  1  0  0  0  0
 28190  1  0  0  0  0
 28191  1  0  0  0  0
 29192  1  0  0  0  0
 29193  1  0  0  0  0
 29194  1  0  0  0  0
 40195  1  0  0  0  0
 40196  1  0  0  0  0
 41197  1  0  0  0  0
 41198  1  0  0  0  0
 41199  1  0  0  0  0
 50200  1  0  0  0  0
 50201  1  0  0  0  0
 51202  1  0  0  0  0
 51203  1  0  0  0  0
 51204  1  0  0  0  0
 52205  1  0  0  0  0
 61206  1  0  0  0  0
 63207  1  0  0  0  0
 64208  1  0  0  0  0
 69209  1  0  0  0  0
 70210  1  0  0  0  0
 84211  1  0  0  0  0
 84212  1  0  0  0  0
 85213  1  0  0  0  0
 85214  1  0  0  0  0
 85215  1  0  0  0  0
 87216  1  0  0  0  0
 88217  1  0  0  0  0
 89218  1  0  0  0  0
 94219  1  0  0  0  0
 95220  1  0  0  0  0
 97221  1  0  0  0  0
106222  1  0  0  0  0
112223  1  0  0  0  0
112224  1  0  0  0  0
113225  1  0  0  0  0
113226  1  0  0  0  0
113227  1  0  0  0  0
118228  1  0  0  0  0
118229  1  0  0  0  0
119230  1  0  0  0  0
119231  1  0  0  0  0
119232  1  0  0  0  0
130233  1  0  0  0  0
130234  1  0  0  0  0
131235  1  0  0  0  0
131236  1  0  0  0  0
131237  1  0  0  0  0
140238  1  0  0  0  0
140239  1  0  0  0  0
141240  1  0  0  0  0
141241  1  0  0  0  0
141242  1  0  0  0  0
142243  1  0  0  0  0
151244  1  0  0  0  0
152245  1  0  0  0  0
153246  1  0  0  0  0
154247  1  0  0  0  0
159248  1  0  0  0  0
160249  1  0  0  0  0
174250  1  0  0  0  0
174251  1  0  0  0  0
175252  1  0  0  0  0
175253  1  0  0  0  0
175254  1  0  0  0  0
177255  1  0  0  0  0
178256  1  0  0  0  0
M  END
