194
PYTT-3_dimer.sdf
C          3.97950       -3.68660       -7.55460
O          2.79010       -3.53750       -7.75200
C          4.78250       -4.89190       -7.69680
C          6.13180       -4.61880       -7.30630
C          6.22220       -3.23870       -6.86770
C          7.25660       -2.72170       -6.12430
C          8.42140       -3.47070       -5.86720
N          9.38320       -4.06580       -5.67150
C          7.21510       -1.46930       -5.48620
N          7.19500       -0.46260       -4.93460
C          4.95150       -2.62190       -7.15890
C          4.52770       -1.32400       -7.16930
C          5.23190       -0.10270       -7.21810
S          4.36940        1.28400       -6.54480
C          5.66310        2.33800       -6.96250
C          6.67630        1.64060       -7.63170
C          6.45040        0.26710       -7.78230
C          7.36430       -0.58240       -8.60450
C          6.66950       -1.15010       -9.84280
S          7.99470        2.66520       -8.15270
C          7.17170        4.02340       -7.47130
C          5.95460        3.70170       -6.86050
N          5.36160        4.83390       -6.37290
C          3.97730        4.79400       -5.96070
C          6.17270        5.90990       -6.69140
C          7.31040        5.41550       -7.39480
C          8.26710        6.27640       -7.97630
N          9.35510        5.96190       -8.66140
S         10.04320        7.32930       -9.18640
N          8.97710        8.37590       -8.56330
C          8.04750        7.69090       -7.91610
C          6.94370        8.17800       -7.18240
C          6.05110        7.31030       -6.48800
N          5.14690        8.09070       -5.78300
C          4.34160        7.76480       -4.62510
C          5.17810        7.12110       -3.52310
C          5.42580        9.40310       -6.05880
C          6.51780        9.48880       -6.93070
S          6.91280       11.10220       -7.40470
C          5.57250       11.68130       -6.44340
C          4.89260       10.66020       -5.76330
S          3.57660       11.29020       -4.84400
C          3.90800       12.91790       -5.44330
C          5.00790       12.94920       -6.29230
C          5.56580       14.19260       -6.89640
C          6.33520       15.00160       -5.84990
C          3.00930       13.97420       -5.19920
C          2.12580       14.14830       -4.17310
C          2.09220       13.61760       -2.82990
C          3.14420       13.12280       -2.09880
C          2.97620       12.68280       -0.77260
N          2.84680       12.29940        0.30180
C          4.47410       13.09250       -2.55560
N          5.57630       13.11050       -2.87880
C          0.78380       13.93660       -2.28670
C          0.05510       14.70240       -3.24870
C          0.90260       14.96510       -4.41210
O          0.67920       15.66820       -5.37400
C          3.06590        5.45260       -6.99350
C         -1.19040       15.08870       -2.82500
S         -1.44610       14.52200       -1.18450
C          0.10450       13.76490       -1.12040
C          6.94730       -5.70050       -7.40990
S          6.08180       -7.07570       -7.99730
C          4.57040       -6.18760       -8.09930
C          3.37650       -6.81440       -8.54300
S          1.86680       -5.94910       -8.62880
C          1.07740       -7.35210       -9.20870
C          1.91200       -8.42440       -9.33120
C          3.22510       -8.12150       -8.95190
C         -3.30820       14.86780       -8.27180
O         -2.42210       14.29480       -7.67040
C         -4.18690       15.93200       -7.81020
C         -5.11830       16.26980       -8.84200
C         -4.90160       15.38830       -9.97580
C         -5.82200       15.15960      -10.96780
C         -6.97370       15.95850      -11.10230
N         -7.90440       16.61700      -11.23510
C         -5.75820       14.07620      -11.86130
N         -5.76560       13.17210      -12.56930
C         -3.70800       14.62160       -9.68910
C         -2.93990       13.77390      -10.42830
C         -2.85280       13.52510      -11.81820
S         -2.38360       11.87960      -12.24450
C         -2.41460       12.27710      -13.91620
C         -2.71620       13.63110      -14.11370
C         -2.97000       14.34580      -12.93290
C         -3.15320       15.83090      -12.89090
C         -4.26400       16.33130      -13.81420
S         -2.69610       14.08750      -15.80310
C         -2.30420       12.45780      -16.22540
C         -2.19550       11.60530      -15.12140
N         -1.87420       10.33710      -15.52840
C         -1.29780        9.40800      -14.57540
C         -1.77720       10.36160      -16.91000
C         -2.00630       11.69200      -17.36260
C         -1.80060       12.05650      -18.71280
N         -1.93820       13.24770      -19.27310
S         -1.47160       13.14720      -20.81900
N         -1.07480       11.57830      -20.83630
C         -1.29710       11.07480      -19.63270
C         -1.15640        9.73840      -19.19610
C         -1.50130        9.35740      -17.86940
N         -1.40750        7.98160      -17.75870
C         -2.15410        7.11090      -16.87770
C         -3.41570        6.58290      -17.55950
C         -0.95890        7.50360      -18.96340
C         -0.78320        8.56170      -19.86530
S         -0.18990        8.06470      -21.41040
C         -0.17210        6.40930      -20.84610
C         -0.61540        6.27320      -19.52290
S         -0.56390        4.63030      -19.00750
C          0.06980        4.13410      -20.57860
C          0.19370        5.20710      -21.45590
C          0.76090        5.11000      -22.83120
C          2.28680        5.00360      -22.77240
C          0.31120        2.77880      -20.87920
C          0.53480        1.73570      -20.02830
C          0.91960        1.70820      -18.63340
C          1.67610        2.63390      -17.95960
C          2.02160        2.46050      -16.60680
N          2.28450        2.34540      -15.49500
C          2.24200        3.76900      -18.57040
N          2.76170        4.67010      -19.05720
C          0.61200        0.37860      -18.14290
C          0.25650       -0.45620      -19.25410
C          0.27140        0.34270      -20.49000
O          0.07330       -0.01640      -21.62790
C          0.13370        9.02460      -14.93210
C          0.00550       -1.73980      -18.89520
S          0.19080       -1.94750      -17.19200
C          0.62410       -0.29280      -16.96110
C         -6.01430       17.21860       -8.45840
S         -5.74310       17.70740       -6.82410
C         -4.39420       16.60310       -6.62880
C         -3.72170       16.43930       -5.38880
S         -2.23630       15.54920       -5.29620
C         -2.21260       15.73760       -3.57570
C         -3.30090       16.45320       -3.11500
C         -4.13950       16.87170       -4.14220
H          3.44440       -1.22260       -7.18480
H          7.77240       -1.40260       -8.00960
H          8.20370        0.04240       -8.91830
H          5.83430       -1.78960       -9.56830
H          7.37640       -1.73530      -10.42540
H          6.29330       -0.34230      -10.46610
H          3.85930        5.24250       -4.97440
H          3.71130        3.73820       -5.86780
H          3.49390        7.13850       -4.90650
H          3.93200        8.70970       -4.25910
H          5.65390        6.20640       -3.86890
H          4.54780        6.88900       -2.66900
H          5.95750        7.80730       -3.20010
H          4.75720       14.80380       -7.30430
H          6.23790       13.91370       -7.71020
H          5.67400       15.30440       -5.04150
H          6.76390       15.89000       -6.30600
H          7.13690       14.40310       -5.42560
H          2.92200       14.70520       -5.99940
H          3.34710        6.48910       -7.16420
H          2.03470        5.41850       -6.65280
H          3.13470        4.92180       -7.94010
H          0.39720       13.24640       -0.22930
H          7.99320       -5.79290       -7.19570
H          0.02890       -7.31230       -9.43010
H          1.59730       -9.39180       -9.67910
H          4.04120       -8.82220       -8.97190
H         -2.25320       13.18400       -9.82380
H         -2.20980       16.28770      -13.20870
H         -3.34070       16.14940      -11.86540
H         -3.99790       16.17050      -14.85520
H         -4.41820       17.39630      -13.65900
H         -5.20070       15.81460      -13.62280
H         -1.92050        8.51660      -14.45860
H         -1.30210        9.92100      -13.61020
H         -2.44880        7.66930      -15.99550
H         -1.50870        6.27670      -16.58490
H         -4.04590        7.41110      -17.87670
H         -3.97480        5.96600      -16.86160
H         -3.16760        5.98030      -18.42900
H          0.47870        6.00500      -23.38890
H          0.35480        4.23590      -23.34480
H          2.70520        5.86670      -22.26120
H          2.69650        4.95910      -23.77790
H          2.58560        4.10980      -22.23010
H          0.22700        2.50460      -21.92700
H          0.18000        8.47920      -15.87000
H          0.54610        8.39700      -14.14710
H          0.74820        9.91740      -15.02160
H         -0.27010       -2.57230      -19.51090
H          0.84440        0.06460      -15.97520
H         -6.81370       17.66810       -9.01310
H         -3.46490       16.66230       -2.07280
H         -5.03660       17.44780       -3.99820
