194
PYTT-2_dimer.sdf
C         15.18880      -13.41940       18.83860
O         14.25650      -13.80860       19.50320
C         16.56850      -13.13600       19.26290
C         17.27740      -12.64700       18.17000
C         16.44600      -12.54720       17.00570
C         16.75130      -11.82160       15.87640
C         18.02430      -11.24030       15.71510
N         19.06870      -10.78470       15.57590
C         15.82770      -11.51490       14.86230
N         15.09320      -11.21920       14.03080
C         15.18420      -13.16270       17.36420
C         14.10660      -13.56090       16.63570
C         13.93450      -13.77930       15.24800
S         12.28920      -13.55080       14.65230
C         12.76160      -14.01860       13.06540
C         14.11390      -14.37580       13.03360
C         14.78850      -14.24480       14.25530
C         16.19330      -14.72860       14.42360
C         16.28290      -15.90260       15.39930
S         14.64760      -14.92340       11.46040
C         13.04760      -14.66700       10.85750
C         12.15480      -14.17540       11.81480
N         10.91310      -14.01970       11.26290
C          9.77350      -13.80830       12.12590
C         10.97930      -14.43340        9.94290
C         12.31470      -14.85710        9.67780
C         12.68610      -15.44710        8.44970
N         13.87210      -15.90080        8.07540
S         13.72890      -16.55520        6.60230
N         12.14700      -16.28830        6.38580
C         11.67620      -15.67170        7.45850
C         10.36640      -15.20460        7.70280
C         10.01640      -14.51670        8.90130
N          8.69590      -14.10770        8.79640
C          7.98480      -13.05920        9.49620
C          8.73310      -11.73090        9.42210
C          8.21770      -14.54840        7.59130
C          9.21800      -15.23790        6.89990
S          8.70190      -15.86980        5.37700
C          7.10790      -15.20740        5.66450
C          7.00910      -14.53380        6.88910
S          5.40430      -13.97930        7.16430
C          4.88390      -14.61740        5.60570
C          5.91560      -15.25680        4.92850
C          5.77740      -16.07390        3.68180
C          6.75400      -15.65550        2.58200
C          3.49690      -14.53060        5.33710
C          2.81960      -14.45980        4.15900
C          3.23250      -14.12080        2.81290
C          4.29770      -13.34740        2.42560
C          4.51740      -13.03520        1.06950
N          4.70760      -12.79380       -0.03610
C          5.19760      -12.75270        3.32870
N          5.92720      -12.21990        4.03710
C          2.15400      -14.54600        1.95980
C          1.05400      -14.96930        2.69390
C          1.37950      -14.84600        4.12310
O          0.67690      -15.03630        5.09250
C          8.92380      -15.07060       12.25020
C         -0.02370      -15.38920        1.86670
C          0.32200      -15.24640        0.53860
S          1.89500      -14.61520        0.26910
S         18.89520      -12.24900       18.57100
C         18.62170      -12.76530       20.22380
C         17.32890      -13.20350       20.43070
C         19.67810      -12.69520       21.17560
S         19.43620      -13.21340       22.82160
C         21.05900      -12.82450       23.21500
C         21.74710      -12.32690       22.15120
C         20.96490      -12.25100       20.98740
C         -7.36630      -19.54910        0.23270
O         -7.27990      -19.80290       -0.94650
C         -6.42230      -18.80910        1.08650
C         -6.90780      -18.81110        2.39140
C         -8.13200      -19.54900        2.49990
C         -8.67510      -19.98540        3.68590
C         -8.14090      -19.55780        4.91760
N         -7.72220      -19.19290        5.92230
C         -9.69970      -20.93870        3.81020
N        -10.48990      -21.75380        3.98510
C         -8.50280      -19.89930        1.13770
C         -9.64950      -20.40760        0.61370
C        -10.93480      -20.50650        1.20270
S        -11.90840      -21.90640        0.76360
C        -13.17630      -21.38160        1.80350
C        -12.87350      -20.14660        2.38880
C        -11.60520      -19.64490        2.05840
C        -11.11530      -18.29910        2.48660
C        -12.07740      -17.18860        2.06330
S        -14.13670      -19.56150        3.44660
C        -15.05400      -20.98480        3.10420
C        -14.41960      -21.86610        2.22440
N        -15.20590      -22.96630        2.01630
C        -14.89920      -23.86490        0.92720
C        -16.37040      -22.80290        2.74850
C        -16.29720      -21.54820        3.42160
C        -17.37810      -21.02810        4.16610
N        -17.45940      -19.87450        4.81030
S        -18.94770      -19.73990        5.43270
N        -19.54630      -21.14730        4.90210
C        -18.59940      -21.77470        4.22210
C        -18.64540      -23.04950        3.61720
C        -17.52570      -23.60990        2.93610
N        -17.85520      -24.90060        2.55240
C        -17.00470      -26.01760        2.20320
C        -15.97680      -26.30070        3.29550
C        -19.13990      -25.14280        2.95930
C        -19.65940      -24.01700        3.60350
S        -21.28600      -24.21650        4.15020
C        -21.27880      -25.84650        3.51530
C        -20.06740      -26.18850        2.90220
S        -20.13320      -27.77420        2.23700
C        -21.76850      -27.99460        2.85250
C        -22.24590      -26.86360        3.49880
C        -23.65410      -26.65310        3.96290
C        -23.74520      -26.18590        5.41570
C        -22.40580      -29.21860        2.52020
C        -23.31010      -29.94760        3.22380
C        -23.70660      -29.90770        4.62110
C        -22.98320      -29.45810        5.69620
C        -23.48910      -29.57120        7.00720
N        -23.90470      -29.64540        8.07420
C        -21.67970      -28.93440        5.61750
N        -20.60080      -28.54200        5.61690
C        -24.91790      -30.67980        4.70450
C        -25.19130      -31.32270        3.50420
C        -24.15680      -30.96260        2.52280
O        -24.01760      -31.35530        1.38770
C        -15.88040      -23.69690       -0.23050
C        -26.33880      -32.13120        3.56740
C        -26.90420      -32.08120        4.80720
S        -26.05620      -31.07130        5.92280
S         -5.84670      -18.02410        3.48220
C         -4.74090      -17.67600        2.16670
C         -5.19320      -18.16310        0.95520
C         -3.52160      -16.99750        2.43700
S         -2.40020      -16.61170        1.16430
C         -1.28470      -15.91680        2.30720
C         -1.78110      -15.98430        3.58720
C         -3.03750      -16.58790        3.65990
H         13.23030      -13.78370       17.24100
H         16.84550      -13.92280       14.76570
H         16.55350      -15.04720       13.44300
H         15.93970      -15.61650       16.39070
H         17.31270      -16.24250       15.47400
H         15.67040      -16.73010       15.04910
H          9.18610      -12.95700       11.78260
H         10.17310      -13.54630       13.10860
H          7.78000      -13.35160       10.52630
H          7.01880      -12.95490        8.99610
H          9.73270      -11.81510        9.84210
H          8.18520      -10.96690        9.96700
H          8.82660      -11.41580        8.38550
H          4.75120      -16.02730        3.31690
H          5.98660      -17.11550        3.94680
H          6.67330      -14.59460        2.36080
H          6.54750      -16.21520        1.67310
H          7.77750      -15.85700        2.88600
H          2.85600      -14.58240        6.21400
H          8.57370      -15.40830       11.27750
H          8.06500      -14.87840       12.88740
H          9.51160      -15.87020       12.69490
H         -0.29520      -15.48340       -0.30660
H         16.96690      -13.54780       21.38220
H         21.40870      -12.98800       24.21490
H         22.77770      -12.02530       22.19860
H         21.32320      -11.88490       20.04160
H         -9.56420      -20.77020       -0.40690
H        -10.13730      -18.10440        2.04460
H        -11.00980      -18.28780        3.57600
H        -12.21250      -17.19860        0.98390
H        -11.67090      -16.22280        2.35230
H        -13.04690      -17.30950        2.53770
H        -14.86220      -24.89580        1.27910
H        -13.89340      -23.60720        0.58630
H        -16.53240      -25.85430        1.23430
H        -17.66160      -26.88430        2.09670
H        -15.34770      -25.43350        3.48260
H        -15.34700      -27.13670        3.00320
H        -16.48390      -26.55810        4.22240
H        -24.23090      -27.56800        3.82270
H        -24.09920      -25.88170        3.32590
H        -23.21120      -26.85640        6.08380
H        -24.78670      -26.14790        5.72550
H        -23.31680      -25.19350        5.52480
H        -22.16390      -29.62030        1.53970
H        -16.90510      -23.86230        0.09390
H        -15.64310      -24.40100       -1.02330
H        -15.81120      -22.68850       -0.63190
H        -26.72010      -32.71330        2.74910
H        -27.78390      -32.59240        5.14640
H         -4.64640      -18.05960        0.03570
H         -1.24380      -15.61490        4.44160
H         -3.58120      -16.73380        4.57660
