196
PZ1.sdf
C          2.81440       -2.63650       -0.53670
C          1.55840       -2.80050       -1.17690
C          1.22050       -4.03000       -1.69700
C          2.19900       -5.02120       -1.69590
C          3.47410       -4.83380       -1.11640
C          3.76620       -3.65350       -0.47390
C          2.25990       -6.23760       -2.44310
C          3.54170       -6.76680       -2.42160
C          4.39740       -5.99180       -1.45410
C          2.92320       -1.26040       -0.16920
C          1.82030       -0.55160       -0.62720
C          0.80690       -1.48010       -1.24910
S          1.24620       -7.00050       -3.59050
C          2.63800       -7.91460       -4.20240
C          3.75940       -7.71610       -3.42150
S          4.09690       -0.24900        0.55690
C          3.14140        1.16820        0.14040
C          1.94850        0.81920       -0.47980
C          5.69640       -5.49960       -2.11700
C          4.74040       -6.82750       -0.20500
C          3.50870       -7.36450        0.51340
C          5.45580       -4.65910       -3.36560
C          0.53100       -0.97490       -2.68690
C         -0.44900       -1.44680       -0.34910
C          0.15720       -2.00220       -3.74750
C         -1.64100       -2.26510       -0.82350
C          3.60740        2.45660        0.47710
C          2.44180       -8.29340       -5.56170
C          3.26480       -7.92180       -6.57990
C          3.33550        3.58740       -0.24460
C          2.98550        3.58470       -1.68810
C          3.08380        4.98840       -2.11460
C          3.46310        5.79550       -1.02600
C          3.58810        4.95080        0.15950
C          4.57890       -7.24120       -6.42260
C          4.49530       -6.10120       -7.35060
C          3.32790       -6.21650       -8.13190
C          2.72650       -7.52580       -7.87740
C          2.88340        5.53610       -3.36850
C          3.06550        6.89590       -3.53720
C          3.46080        7.71600       -2.47080
C          3.65530        7.14980       -1.20180
C          5.21190       -4.91640       -7.32020
C          4.64610       -3.80110       -7.90650
C          3.39000       -3.86160       -8.52740
C          2.78000       -5.10730       -8.74340
O          2.79970        2.62230       -2.40420
O          5.46290       -7.50520       -5.63990
C          1.80160       -8.17550       -8.63490
C          3.79290        5.38640        1.44300
C          3.99820        6.73430        1.80100
C          3.77440        4.54390        2.57360
C          1.32670       -7.65780       -9.85870
C          1.27580       -9.43490       -8.27180
N          4.17120        7.81260        2.15530
N          3.74110        3.91460        3.53390
N          0.83570      -10.45610       -7.99200
N          0.92520       -7.24290      -10.84970
C          3.67450        9.13180       -2.66450
C          3.63270        9.86050       -3.82790
C          3.90100       11.22690       -3.64010
C          4.14420       11.53730       -2.33790
S          4.05430       10.16850       -1.31540
C         -3.79550        1.17980        2.53830
C         -2.95420        2.12190        3.17700
C         -2.95370        2.21370        4.54970
C         -3.84200        1.40070        5.25140
C         -4.71610        0.49140        4.60770
C         -4.67210        0.35430        3.23990
C         -4.05980        1.27870        6.65680
C         -5.04090        0.31780        6.91120
C         -5.56240       -0.26390        5.62040
C         -3.52540        1.26350        1.14100
C         -2.54160        2.21480        0.87880
C         -2.12130        2.88900        2.16230
S         -3.44880        2.03310        8.06210
C         -4.53280        1.06320        9.04500
C         -5.31510        0.20520        8.25710
S         -4.11850        0.51100       -0.27020
C         -3.01140        1.46840       -1.25500
C         -2.25710        2.33710       -0.47250
C         -5.26790       -1.77090        5.48980
C         -7.06100        0.09320        5.51770
C         -7.76830       -0.35770        4.24680
C         -5.98580       -2.65890        6.49730
C         -0.62420        2.70210        2.47090
C         -2.55950        4.36810        2.07340
C          0.32580        3.50220        1.58980
C         -2.31290        5.20170        3.32360
C         -3.05740        1.23140       -2.64190
C         -4.65880        1.09770       10.44080
C         -4.01980        1.86780       11.37860
C         -2.18090        1.56640       -3.63650
C         -0.82320        2.15830       -3.51820
C         -0.11210        1.72180       -4.73420
C         -1.00690        1.06550       -5.59920
C         -2.33930        1.10970       -5.00670
C         -3.00870        2.89670       11.10260
C         -2.65070        3.47780       12.40880
C         -3.38830        2.83890       13.42110
C         -4.24400        1.82040       12.81080
C          1.24330        1.76340       -5.00980
C          1.70870        1.06240       -6.10760
C          0.84130        0.33640       -6.93370
C         -0.54170        0.38850       -6.70870
C         -1.75260        4.48850       12.68870
C         -1.58970        4.87100       14.01290
C         -2.31460        4.24810       15.01830
C         -3.21780        3.23000       14.73970
O         -0.36950        2.82480       -2.61000
O         -2.55280        3.21760       10.01960
C         -5.08530        0.98340       13.49690
C         -3.51200        0.81980       -5.64810
C         -4.79250        0.94520       -5.06780
C         -3.57320        0.42130       -6.99980
C         -5.24690        0.99490       14.89880
C         -5.90750       -0.01200       12.92880
N         -5.85920        1.04250       -4.65500
N         -3.66580        0.09270       -8.09570
N         -6.60020       -0.84740       12.55090
N         -5.43440        0.94850       16.03050
C          1.36190       -0.64040       -7.86760
C          0.76050       -1.26760       -8.93080
C          1.45690       -2.40060       -9.37890
C          2.60250       -2.65490       -8.66660
S          2.86200       -1.41970       -7.46720
H          0.27210       -4.22530       -2.16930
H          4.72220       -3.47270       -0.00630
H          4.69230       -8.21230       -3.61350
H          1.22200        1.54450       -0.79550
H          6.29800       -6.36940       -2.38580
H          6.25850       -4.91350       -1.38740
H          5.31420       -6.19980        0.47970
H          5.37550       -7.66090       -0.51140
H          3.80900       -7.92770        1.39360
H          2.86120       -6.54990        0.83070
H          2.93820       -8.02450       -0.13600
H          6.40560       -4.30350       -3.75710
H          4.82970       -3.79720       -3.14350
H          4.97000       -5.25020       -4.13830
H         -0.25950       -0.22510       -2.61510
H          1.42890       -0.45800       -3.03510
H         -0.15450       -1.79250        0.64580
H         -0.75420       -0.40060       -0.25610
H         -0.03520       -1.48400       -4.68550
H          0.97310       -2.70080       -3.91500
H         -0.73550       -2.56030       -3.48260
H         -1.38240       -3.31530       -0.92160
H         -2.44450       -2.18270       -0.09430
H         -2.01530       -1.89800       -1.77530
H          4.24980        2.52690        1.34710
H          1.42680       -8.57990       -5.81820
H          2.58250        4.90860       -4.19350
H          2.89980        7.33240       -4.50900
H          3.96430        7.78210       -0.38460
H          6.13760       -4.85230       -6.77010
H          5.13330       -2.84170       -7.81220
H          1.83450       -5.16540       -9.25910
H          3.42430        9.43760       -4.79370
H          3.91320       11.94820       -4.43740
H          4.37370       12.49520       -1.91510
H         -2.29290        2.87280        5.08990
H         -5.27380       -0.36440        2.70610
H         -6.04770       -0.44550        8.70060
H         -1.55370        3.01970       -0.91080
H         -5.53040       -2.08620        4.47900
H         -4.18870       -1.90590        5.60250
H         -7.56610       -0.33920        6.38280
H         -7.14600        1.18000        5.60170
H         -7.36350        0.14650        3.37400
H         -8.82450       -0.10710        4.31770
H         -7.68700       -1.43190        4.10510
H         -5.69650       -2.40670        7.51330
H         -5.71640       -3.69770        6.31900
H         -7.06480       -2.57070        6.40660
H         -0.44810        2.97070        3.51300
H         -0.39500        1.63760        2.36730
H         -2.04020        4.81880        1.22640
H         -3.62910        4.38350        1.84540
H          0.18180        3.27410        0.53760
H          1.34940        3.24890        1.85740
H          0.19570        4.57140        1.73440
H         -2.57450        6.23790        3.12030
H         -1.26960        5.17040        3.62500
H         -2.92840        4.85690        4.14970
H         -3.89510        0.60970       -2.94070
H         -5.39560        0.39530       10.81190
H          1.91750        2.26300       -4.33180
H          2.76950        1.02720       -6.30960
H         -1.20790       -0.17510       -7.34130
H         -1.20060        4.95850       11.88940
H         -0.89520        5.65850       14.26360
H         -2.17710        4.55870       16.04310
H         -3.76640        2.76650       15.54300
H         -0.16620       -0.93610       -9.36460
H          1.11540       -3.02080      -10.18850
