124
QCIC3.sdf
C          8.06210        0.02910       12.59390
C          7.89580       -0.98760       13.52850
C          7.37390       -2.23220       13.16280
C          7.00160       -2.47420       11.84660
C          7.16230       -1.45980       10.92590
C          7.69390       -0.21040       11.28030
C          6.82260       -1.46890        9.48600
C          7.13490       -0.11320        8.99610
C          7.74120        0.63100       10.08540
C          6.84610        0.44880        7.77290
C          6.24010       -0.07190        6.62440
C          5.80130       -1.35310        6.28010
C          5.21540       -1.39700        5.03450
C          5.17490       -0.14030        4.40210
S          5.90720        1.08890        5.32810
C          4.51930       -2.44050        4.18850
C          4.04830       -1.57940        3.03700
C          4.46970       -0.25430        3.18950
C          3.31310       -1.76250        1.87790
C          3.13980       -0.58570        1.15730
S          3.93940        0.77350        1.91420
C          2.32470       -0.38420       -0.00140
C          5.50790       -3.49280        3.64700
C          3.35520       -3.03760        5.00290
C          2.52900       -4.09080        4.27680
C          6.12960       -4.38870        4.70970
O          6.37880       -2.42580        8.88230
C          8.31190        1.87750       10.03520
C          8.88830        2.52600       11.14820
C          8.45120        2.69210        8.89130
N          8.62710        3.41970        8.01970
N          9.37050        3.11680       12.00640
C         -0.69980        0.46510       -2.95220
S         -1.73750       -0.83200       -3.51010
C         -2.80800        0.31030       -4.21280
C         -2.36350        1.62690       -4.05450
C         -1.17290        1.70880       -3.35460
C         -4.07510        0.33120       -4.82640
C         -4.44570        1.66710       -5.07490
C         -3.33840        2.60730       -4.66290
S         -5.30010       -0.77990       -5.24000
C         -6.36780        0.55500       -5.70960
C         -5.72800        1.78850       -5.56150
C         -7.66110        0.19290       -6.10090
C         -8.77390        0.94250       -6.41100
C        -10.06240        0.35420       -6.73030
C        -11.03320        1.44240       -6.84270
C        -10.36210        2.66140       -6.66160
C         -8.92600        2.40950       -6.41290
C        -12.39870        1.44210       -7.07560
C        -13.06720        2.66090       -7.12380
C        -12.38760        3.87010       -6.94650
C        -11.01830        3.87350       -6.71320
O         -8.08610        3.27340       -6.25390
C        -10.35930       -0.97160       -6.92230
C        -11.64950       -1.45510       -7.22810
C         -9.45760       -2.05570       -6.86990
C         -2.66180        3.26130       -5.88860
C         -3.81890        3.65650       -3.64940
C         -4.35320        3.03190       -2.36570
C         -3.56700        4.17440       -6.70420
N        -12.66800       -1.92400       -7.47450
N         -8.80790       -3.00360       -6.85910
C          1.65960       -1.40800       -0.68540
C          0.66530       -1.11430       -1.64280
C          0.40350        0.19040       -2.08320
C          1.23570        1.22840       -1.55930
C          2.13860        0.93770       -0.49960
N          1.16970        2.48000       -2.03920
C          1.92030        3.40740       -1.50060
C          2.77510        3.13050       -0.42480
N          2.87200        1.91530        0.04570
O          1.93180       -2.72060       -0.38330
O         -0.06650       -2.12230       -2.20950
Cl         8.34220       -0.69610       15.16180
Cl         7.18720       -3.46670       14.34270
Cl       -13.24560        5.35680       -7.01310
Cl       -14.76220        2.66820       -7.40510
C         -0.81540       -2.98120       -1.34290
C         -1.36080       -4.12420       -2.18030
C          2.53070       -3.47370       -1.43820
C          3.96060       -3.02550       -1.71130
H          8.46600        0.97450       12.91610
H          6.59480       -3.42790       11.54940
H          7.09150        1.49990        7.67680
H          5.91010       -2.18080        6.95590
H          2.89120       -2.69350        1.55350
H          4.98480       -4.10430        2.90990
H          6.30390       -2.95770        3.12200
H          2.70040       -2.21260        5.29580
H          3.76860       -3.46530        5.91720
H          2.06080       -3.67550        3.38910
H          3.13770       -4.94300        3.98770
H          1.74190       -4.44790        4.93740
H          5.37470       -4.97480        5.22590
H          6.82810       -5.07700        4.23850
H          6.67510       -3.80130        5.44230
H         -0.65610        2.61590       -3.10740
H         -6.23010        2.71090       -5.78750
H         -7.80660       -0.88050       -6.11950
H        -12.95960        0.53320       -7.21600
H        -10.47950        4.79720       -6.57300
H         -1.79850        3.82650       -5.53100
H         -2.28970        2.46110       -6.53360
H         -2.98350        4.31820       -3.41240
H         -4.60920        4.24970       -4.10930
H         -4.69890        3.81010       -1.68970
H         -3.57910        2.45820       -1.86070
H         -5.18910        2.36980       -2.58000
H         -3.90960        5.02100       -6.11630
H         -3.01480        4.55900       -7.55870
H         -4.43290        3.63340       -7.07510
H          1.84660        4.39670       -1.93070
H          3.38450        3.88840        0.04540
H         -0.18340       -3.36100       -0.53590
H         -1.63710       -2.40220       -0.90130
H         -0.54520       -4.69830       -2.61160
H         -1.97630       -3.73520       -2.98610
H         -1.96190       -4.77710       -1.55440
H          1.93150       -3.40240       -2.35220
H          2.51180       -4.50480       -1.07720
H          3.97440       -2.00040       -2.07700
H          4.40670       -3.67120       -2.46230
H          4.55370       -3.07620       -0.80120
