124
QCIC1.sdf
C         -1.92450      -13.01400        7.01830
C         -2.90330      -13.90140        6.59530
C         -3.91150      -13.51590        5.71240
C         -3.96290      -12.22020        5.22500
C         -2.98620      -11.33960        5.64500
C         -1.96970      -11.71540        6.53530
C         -2.81820       -9.91860        5.26530
C         -1.60550       -9.45940        5.96470
C         -1.10910      -10.55560        6.77620
C         -0.97260       -8.23790        5.88100
C         -1.25950       -7.08160        5.14970
C         -2.29850       -6.74030        4.27840
C         -2.15810       -5.47550        3.75490
C         -0.99300       -4.81980        4.20030
S         -0.08950       -5.75780        5.29900
C         -2.91010       -4.60800        2.77460
C         -1.96970       -3.42970        2.68240
C         -0.88540       -3.57320        3.55300
C         -1.91660       -2.25120        1.95910
C         -0.78850       -1.49350        2.25660
S          0.22880       -2.26260        3.45210
C         -0.37270       -0.27750        1.62320
C         -4.24930       -4.10820        3.36150
C         -3.10570       -5.30770        1.42100
C         -1.78500       -5.67170        0.75250
C         -5.26970       -5.20070        3.65100
O         -3.56490       -9.30730        4.52640
C         -0.04570      -10.55040        7.64300
C          0.79540       -9.45810        7.94550
C          0.36450      -11.67180        8.39570
N          0.75640      -12.54070        9.03530
N          1.52970       -8.63550        8.26920
C          1.20460        2.94730       -0.77000
S          0.24220        3.59250       -2.08390
C          1.57190        4.53190       -2.61710
C          2.70240        4.37460       -1.80580
C          2.48440        3.49490       -0.76020
C          1.85780        5.44800       -3.64640
C          3.18520        5.89640       -3.48910
C          3.84760        5.22210       -2.30750
S          1.06090        6.12380       -4.99690
C          2.51400        7.03990       -5.38980
C          3.54700        6.78870       -4.46420
C          2.68940        7.90270       -6.47000
C          1.83520        8.24420       -7.49780
C          2.14660        9.14180       -8.58780
C          0.98060        9.17430       -9.47510
C         -0.01530        8.34100       -8.94020
C          0.47710        7.73690       -7.68300
C          0.74840        9.84810      -10.66330
C         -0.47840        9.66700      -11.28620
C         -1.46010        8.83720      -10.74650
C         -1.23630        8.16110       -9.55760
O         -0.14530        6.97250       -6.96700
C          3.30340        9.85290       -8.78840
C          4.43460        9.84690       -7.94670
C          3.52390       10.71040       -9.88650
C          4.32120        6.23290       -1.25170
C          5.01490        4.36280       -2.84160
C          5.68680        3.47120       -1.80600
C          3.21220        7.17850       -0.80520
N          5.39640        9.90310       -7.32040
N          3.76830       11.42370      -10.75200
C         -1.19600        0.49200        0.79710
C         -0.66040        1.51250       -0.02100
C          0.68010        1.93070        0.09250
C          1.48420        1.28530        1.08170
C          0.96510        0.17470        1.80360
N          2.74170        1.68780        1.33020
C          3.45360        1.04530        2.22070
C          2.94590       -0.06200        2.91370
N          1.72440       -0.47250        2.69430
O         -2.55830        0.28200        0.75580
O         -1.40290        2.18060       -0.92860
F         -2.87420      -15.16050        7.04850
F         -4.83690      -14.40610        5.33100
F         -2.62960        8.69030      -11.38310
F         -0.72010       10.30730      -12.43670
C         -2.53790        1.59850       -1.56270
C         -2.69130        2.23890       -2.93370
C         -3.24980        0.63610        1.95140
C         -3.16550        2.12580        2.25910
H         -1.16860      -13.36580        7.70050
H         -4.73910      -11.91560        4.54130
H         -0.06860       -8.14540        6.47070
H         -3.09010       -7.43060        4.05320
H         -2.63350       -1.95780        1.21480
H         -4.67470       -3.39020        2.65640
H         -4.02980       -3.57210        4.28870
H         -3.68480       -6.21750        1.57920
H         -3.67590       -4.64580        0.76600
H         -1.97310       -6.17550       -0.19250
H         -1.20540       -6.33930        1.38600
H         -1.19020       -4.78260        0.55500
H         -5.56200       -5.72050        2.74310
H         -6.16140       -4.75450        4.08570
H         -4.87450       -5.92530        4.35690
H          3.19440        3.23890        0.00140
H          4.50650        7.26740       -4.55150
H          3.67220        8.35760       -6.49280
H          1.47160       10.50070      -11.12380
H         -1.99150        7.51720       -9.13580
H          4.69000        5.68520       -0.38410
H          5.14750        6.81120       -1.66960
H          5.75580        5.03930       -3.27290
H          4.62860        3.73610       -3.64950
H          6.11300        4.05670       -0.99620
H          4.98000        2.75780       -1.39180
H          6.49290        2.91530       -2.27970
H          2.83910        7.76230       -1.64350
H          3.58980        7.86470       -0.05110
H          2.38180        6.62120       -0.37760
H          4.45670        1.41220        2.38960
H          3.52540       -0.61060        3.64160
H         -3.43230        1.78800       -0.96030
H         -2.40130        0.51700       -1.65480
H         -1.83350        2.01200       -3.55990
H         -3.59030        1.85840       -3.40960
H         -2.76930        3.31760       -2.83480
H         -4.28350        0.34070        1.75750
H         -2.86720        0.05610        2.79990
H         -3.77310        2.34870        3.13140
H         -2.13670        2.41520        2.46620
H         -3.52840        2.71360        1.41910
