122
QOC6-4Cl.sdf
C         -7.47220        1.40480       11.53390
C         -8.02420        2.66420       11.32180
C         -7.90110        3.31260       10.08930
C         -7.21630        2.70450        9.04420
C         -6.67010        1.45700        9.26070
C         -6.78960        0.79540       10.49480
C         -5.89920        0.61130        8.32590
C         -5.55240       -0.59940        9.07180
C         -6.10780       -0.49680       10.40440
C         -4.80690       -1.65370        8.59310
C         -4.20160       -1.85300        7.35140
C         -3.43770       -3.00400        7.07830
C         -2.90700       -3.00880        5.81270
C         -3.24750       -1.84270        5.09810
S         -4.23820       -0.76080        5.97240
C         -1.99770       -3.89980        4.99340
C         -1.85660       -3.05560        3.74570
C         -2.60920       -1.88130        3.84310
C         -1.19750       -3.15710        2.53100
C         -1.42390       -2.05940        1.70810
S         -2.51260       -0.90040        2.43400
C         -0.84810       -1.78420        0.42830
C         -2.67900       -5.22930        4.61160
C         -0.66430       -4.07320        5.74670
C          0.38480       -4.90660        5.02300
C         -2.97270       -6.15780        5.78200
O         -5.62050        0.88690        7.17250
Cl        -8.87060        3.42770       12.60730
Cl        -8.59580        4.86690        9.86230
C         -6.03230       -1.41750       11.41910
C         -6.60540       -1.23660       12.69540
C         -5.38700       -2.66970       11.35420
N         -4.88830       -3.70450       11.38960
N         -7.04430       -1.15660       13.75310
C          1.00750       -0.67610       -3.34180
S          2.67590       -1.12660       -3.63560
C          2.68420       -0.18680       -5.06620
C          1.44560        0.40710       -5.32560
C          0.50230        0.13300       -4.34820
C          3.60680        0.19710       -6.06240
C          2.94540        1.04400       -6.97390
C          1.49690        1.22830       -6.58920
S          5.25890       -0.04220       -6.42270
C          5.09750        1.00530       -7.82930
C          3.78250        1.48920       -7.96500
C          6.10640        1.36360       -8.72590
C          7.44240        1.03300       -8.75440
C          8.40550        1.48760       -9.73510
C          9.70140        0.91120       -9.37360
C          9.54270        0.13090       -8.21540
C          8.12950        0.17420       -7.78820
C         10.95160        1.01900       -9.95890
C         12.02140        0.34670       -9.37620
C         11.85250       -0.42620       -8.22320
C         10.59910       -0.53780       -7.63350
Cl        13.19570       -1.24160       -7.53030
Cl        13.57550        0.47670      -10.09620
O          7.65240       -0.39580       -6.82330
C          8.18350        2.30850      -10.81190
C          9.18510        2.70760      -11.72200
C          6.94570        2.87660      -11.17730
C          1.15740        2.70500       -6.31680
C          0.55170        0.66860       -7.66930
C          0.81960       -0.79490       -7.99800
C          2.00280        3.31630       -5.20630
N          9.94740        3.07280      -12.49890
N          5.98010        3.37970      -11.54490
C          0.15940       -2.53270       -0.16890
C          0.73860       -2.17480       -1.38640
C          0.34660       -1.06800       -2.12930
C         -0.71510       -0.29300       -1.56800
C         -1.27310       -0.64000       -0.31250
N         -1.16410        0.80210       -2.20070
C         -2.10260        1.54140       -1.66130
C         -2.65270        1.20240       -0.39530
N         -2.22590        0.13000        0.22350
F          0.64750       -3.63690        0.42390
F          1.72270       -2.96970       -1.84350
C         -3.74230        1.97210        0.28200
C         -5.11060        1.44570       -0.16010
C         -2.49680        2.76540       -2.43110
C         -1.58930        3.93770       -2.04900
H         -7.58860        0.93830       12.49820
H         -7.11230        3.19310        8.08840
H         -4.63620       -2.47230        9.28180
H         -3.29850       -3.76690        7.82370
H         -0.58540       -3.98860        2.23920
H         -2.04350       -5.74180        3.88810
H         -3.61770       -4.98560        4.10710
H         -0.87970       -4.52320        6.71680
H         -0.25890       -3.07520        5.93290
H          1.27880       -4.97280        5.63910
H          0.03040       -5.91630        4.83530
H          0.66220       -4.45030        4.07740
H         -3.45660       -7.05990        5.41440
H         -3.64120       -5.68340        6.49480
H         -2.06130       -6.44990        6.29570
H         -0.50720        0.49490       -4.33320
H          3.50460        2.14430       -8.77180
H          5.75590        2.01780       -9.51500
H         11.12320        1.60440      -10.84700
H         10.45340       -1.13040       -6.74420
H          0.10220        2.77070       -6.04470
H          1.30430        3.26880       -7.23990
H         -0.47600        0.77860       -7.31760
H          0.66640        1.27100       -8.57240
H          1.83180       -0.92860       -8.37220
H          0.69410       -1.41810       -7.11560
H          0.12480       -1.13710       -8.76090
H          3.06120        3.25540       -5.44860
H          1.74130        4.36330       -5.07360
H          1.83450        2.79790       -4.26520
H         -3.66050        3.03510        0.05740
H         -3.64000        1.82510        1.35750
H         -5.24170        1.54870       -1.23550
H         -5.90020        1.99890        0.34090
H         -5.20370        0.39450        0.10000
H         -3.53840        3.02210       -2.24190
H         -2.37310        2.55590       -3.49430
H         -1.86380        4.82310       -2.61660
H         -1.67400        4.16480       -0.98860
H         -0.55310        3.69060       -2.26650
