150
Qx1b.sdf
C         -0.28860       -0.50660        1.12770
C          0.01300       -1.48680        2.10080
C          1.31850       -1.89510        2.36080
C          2.32180       -1.30830        1.62500
C          2.02280       -0.30710        0.67330
C          0.71750        0.10660        0.41920
C         -1.79030       -0.31250        0.99340
C         -2.30010       -1.30770        2.00200
C         -1.23680       -1.93040        2.63420
C         -3.53860       -1.75230        2.46580
C         -3.41700       -2.69630        3.46280
S         -1.74170       -3.03770        3.84360
C          3.80820       -1.62900        1.62790
C          4.31150       -0.66030        0.59020
C          3.25860        0.08350        0.07350
C          5.53130       -0.31570        0.02190
C          5.40920        0.69180       -0.92520
S          3.75760        1.24430       -1.08600
C         -4.46940       -3.37910        4.16570
C          6.43000        1.23420       -1.76120
C         -2.20850        1.12250        1.35850
C         -2.19760       -0.67260       -0.45070
C         -4.35010       -3.72990        5.50230
C         -5.40770       -4.28910        6.20780
C         -6.62710       -4.55700        5.60530
C         -6.72540       -4.36860        4.19600
C         -5.67480       -3.72440        3.49170
C          7.67280        0.63040       -1.93610
C          8.61190        1.11550       -2.83130
C          8.39590        2.26650       -3.58650
C          7.16200        2.96100       -3.37450
C          6.17670        2.41980       -2.51220
C         -7.73420       -5.10430        6.33790
C         -9.03380       -4.85980        6.05630
C          9.28520        2.84140       -4.54130
C         10.43180        2.40880       -5.13010
C         11.18040        1.15710       -5.04690
N         12.24480        1.17170       -5.93700
C         12.43750        2.28840       -6.68180
S         11.20760        3.47540       -6.30520
C         -9.57970       -3.78500        5.22120
N        -10.95820       -3.92290        5.11870
C        -11.54660       -4.91960        5.82590
S        -10.34330       -5.79440        6.75990
C        -11.72990       -2.99130        4.31880
O         -8.98470       -2.85490        4.72430
S        -13.13810       -5.27870        5.81330
O         10.95780        0.19360       -4.34210
C         13.12720        0.02520       -6.03630
S         13.62650        2.50390       -7.78040
C        -12.34710       -1.89730        5.18030
C         14.37940        0.21310       -5.18960
N         -7.73900       -4.91390        3.51230
C         -7.82090       -4.74360        2.21590
C         -6.89000       -3.88090        1.55190
N         -5.82410       -3.45940        2.18520
C         -8.83410       -5.52750        1.50220
C         -7.04720       -3.46480        0.15540
C         -5.92920       -3.41640       -0.67400
C         -6.06150       -3.04210       -1.99770
C         -7.30440       -2.69410       -2.50020
C         -8.41590       -2.71640       -1.67290
C         -8.29310       -3.10310       -0.35210
C        -10.07780       -5.73820        2.09200
C        -11.04630       -6.48120        1.44570
C        -10.77740       -7.03850        0.20640
C         -9.53320       -6.85690       -0.37590
C         -8.56470       -6.10670        0.26350
N          6.93630        4.14270       -3.96650
C          5.78460        4.75160       -3.79940
C          4.72840        4.11280       -3.07760
N          4.97570        3.00110       -2.42510
C          5.67730        6.10720       -4.34880
C          3.35280        4.61610       -3.03140
C          2.62450        4.50810       -1.84870
C          1.32080        4.96160       -1.78960
C          0.72680        5.51780       -2.91080
C          1.43940        5.60940       -4.09570
C          2.74520        5.16200       -4.16050
C          6.27080        6.39580       -5.57560
C          6.19590        7.67050       -6.10340
C          5.54250        8.67330       -5.40580
C          4.97180        8.39860       -4.17330
C          5.03580        7.12380       -3.64410
C         -1.67270        1.56560        2.71510
C         -3.68320       -0.53790       -0.75780
C          4.44840       -1.37930        3.00260
C          3.96850       -3.09950        1.18340
C          5.40030       -3.54690        0.92120
C          4.19130        0.03200        3.51800
H          1.51530       -2.65490        3.10210
H          0.52340        0.86830       -0.32100
H         -4.49890       -1.40820        2.13160
H          6.47950       -0.74490        0.29000
H         -3.29750        1.17740        1.37460
H         -1.84180        1.79920        0.58380
H         -1.88550       -1.70340       -0.63810
H         -1.63350       -0.02990       -1.13020
H         -3.42520       -3.51350        6.01740
H         -5.29360       -4.47720        7.26550
H          7.90260       -0.27120       -1.38990
H          9.53520        0.57530       -2.95640
H         -7.50330       -5.79810        7.13630
H          8.94340        3.81730       -4.87240
H        -11.03600       -2.55890        3.59400
H        -12.51060       -3.55520        3.80170
H         12.55490       -0.83670       -5.68490
H         13.39440       -0.10410       -7.08770
H        -11.56900       -1.34690        5.70400
H        -12.90060       -1.20780        4.54970
H        -13.03000       -2.32950        5.90770
H         14.94290        1.07610       -5.53590
H         14.11090        0.35790       -4.14570
H         15.00770       -0.66890       -5.27080
H         -4.96730       -3.69190       -0.26830
H         -5.19370       -3.02440       -2.64030
H         -7.40730       -2.40260       -3.53500
H         -9.38350       -2.43370       -2.06020
H         -9.15870       -3.11300        0.29400
H        -10.27160       -5.30490        3.05960
H        -12.00930       -6.63040        1.91140
H        -11.53210       -7.62090       -0.30070
H         -9.31420       -7.30580       -1.33350
H         -7.59090       -5.98720       -0.18790
H          3.09710        4.07330       -0.98170
H          0.76590        4.88160       -0.86630
H         -0.29130        5.87500       -2.86400
H          0.97440        6.03000       -4.97490
H          3.29010        5.21970       -5.09130
H          6.77910        5.60650       -6.10840
H          6.65090        7.88400       -7.05920
H          5.48430        9.66980       -5.81790
H          4.47640        9.18270       -3.62010
H          4.60490        6.91910       -2.67500
H         -2.03310        0.90820        3.50320
H         -0.58510        1.55050        2.72640
H         -2.00580        2.57740        2.93520
H         -4.27860       -1.17060       -0.10710
H         -4.01720        0.49050       -0.65090
H         -3.86880       -0.84320       -1.78520
H          4.04690       -2.10460        3.71320
H          5.52480       -1.53880        2.92660
H          3.38340       -3.23960        0.27060
H          3.52950       -3.73320        1.95690
H          5.83400       -2.98910        0.09600
H          5.40630       -4.60170        0.65520
H          6.02420       -3.41840        1.80160
H          4.59780        0.77130        2.83140
H          4.66370        0.16810        4.48820
H          3.12430        0.21420        3.62520
