138
SeCT-IC.sdf
C          1.26080       -0.01090        0.58150
C          1.07320        1.03590       -0.32390
C         -0.16980        1.61500       -0.42220
C         -1.26020        1.21610        0.40720
C         -1.06290        0.19130        1.33470
C          0.16540       -0.42440        1.39600
Se        -0.65750        2.93690       -1.69270
C         -2.36870        2.79110       -0.95800
C         -2.45550        1.90770        0.10500
Se         0.57920       -1.93140        2.47110
C          2.25740       -1.86850        1.65080
C          2.40550       -0.81940        0.75810
C          4.47590        0.46730        0.71870
C          3.89070       -0.90920       -1.32430
C         -4.02050        2.46000        2.02190
C         -4.36590        0.40870        0.57700
C          3.44420       -2.64190        1.66730
C          4.37800       -2.04650        0.80510
C          3.80560       -0.79230        0.18290
S          3.99910       -4.09390        2.37870
C          5.52060       -3.93050        1.50920
C          5.54500       -2.76690        0.72260
C         -3.66050        3.29750       -1.23610
C         -4.57840        2.75230       -0.33830
C         -3.87020        1.84380        0.64210
S         -4.39440        4.30500       -2.40670
C         -5.97290        3.98640       -1.69770
C         -5.87620        3.17430       -0.57510
C          4.95300        0.49670        2.02310
C          5.52840        1.64310        2.53650
C          5.63640        2.79410        1.76700
C          5.14110        2.76590        0.47070
C          4.56610        1.62050       -0.04850
C          2.79270       -1.25210       -2.09900
C          2.91420       -1.36630       -3.47280
C          4.13150       -1.15410       -4.10390
C          5.23470       -0.83850       -3.31980
C          5.11850       -0.71890       -1.94910
C         -5.26450        2.42600        2.64240
C         -5.45310        3.02450        3.87240
C         -4.40920        3.68040        4.51350
C         -3.16920        3.70800        3.89160
C         -2.97410        3.10970        2.65920
C         -4.74140       -0.13730       -0.64360
C         -5.13390       -1.46010       -0.72510
C         -5.15580       -2.27130        0.40180
C         -4.77910       -1.71920        1.61870
C         -4.38900       -0.39590        1.70870
C          6.59650       -4.82500        1.52670
C          6.74710       -6.03140        2.16570
C          7.90090       -6.90260        2.07340
C          7.60400       -8.10520        2.85370
C          6.32630       -7.97080        3.42470
C          5.75050       -6.67220        3.03010
C          8.33510       -9.26000        3.08150
C          7.77530      -10.25440        3.87430
C          6.51470      -10.11200        4.43490
C          5.77310       -8.95960        4.21350
O          4.66380       -6.23220        3.36350
C          9.06970       -6.67240        1.39370
C         10.15740       -7.57020        1.35980
C          9.37410       -5.52250        0.63620
N         11.08100       -8.24910        1.29180
N          9.70690       -4.62610       -0.00140
C          6.22710        4.04920        2.34120
C          5.14680        4.87810        3.03890
C          4.26810       -1.31290       -5.59040
C          4.66410       -2.74890       -5.93970
C         -4.60460        4.30250        5.86590
C         -4.24070        3.30870        6.97090
C         -5.52360       -3.72340        0.30230
C         -4.27110       -4.57210        0.07310
C         -7.15910        4.54480       -2.22350
C         -7.40510        4.96690       -3.49460
C         -6.71870        4.72090       -4.74430
C         -7.15490        5.75080       -5.68510
C         -8.24680        6.43990       -5.12460
C         -8.51140        5.92370       -3.76510
C         -6.70150        6.08520       -6.95010
C         -7.35550        7.09820       -7.63920
C         -8.44200        7.76330       -7.08890
C         -8.89830        7.44100       -5.81810
O         -9.40200        6.23590       -3.00780
C         -6.03790        3.58080       -5.08380
C         -5.89850        2.47040       -4.22630
C         -5.48700        3.34440       -6.35910
N         -5.00700        3.10750       -7.37460
N         -5.80710        1.52330       -3.58330
H          1.88490        1.34970       -0.96180
H         -1.88000       -0.13500        1.95890
H          6.39830       -2.50820        0.12170
H         -6.74250        2.87400       -0.01490
H          4.87940       -0.38420        2.64400
H          5.90260        1.64170        3.55030
H          5.20900        3.65080       -0.14600
H          4.20380        1.62520       -1.06610
H          1.83350       -1.42820       -1.63520
H          2.04480       -1.62150       -4.06160
H          6.19490       -0.67940       -3.78900
H          5.98420       -0.45940       -1.35710
H         -6.08580        1.91540        2.16170
H         -6.42690        2.98740        4.33950
H         -2.34220        4.21030        4.37290
H         -1.99890        3.15340        2.19730
H         -4.73800        0.47040       -1.53610
H         -5.42870       -1.86450       -1.68230
H         -4.79150       -2.33060        2.51000
H         -4.11340        0.01280        2.67100
H          7.42360       -4.49770        0.90820
H          9.31610       -9.40150        2.65890
H          8.33820      -11.15800        4.05450
H          6.10840      -10.90400        5.04580
H          4.78960       -8.82690        4.63760
H          6.67910        4.64390        1.54500
H          7.00630        3.79440        3.06230
H          4.69160        4.30560        3.84400
H          4.36680        5.15410        2.33270
H          5.57500        5.78620        3.45680
H          3.32110       -1.07180       -6.07700
H          5.03080       -0.62820       -5.96690
H          3.90840       -3.44620       -5.58500
H          4.76580       -2.86400       -7.01610
H          5.61190       -3.00490       -5.47140
H         -3.97450        5.18960        5.95870
H         -5.64570        4.60850        5.98530
H         -4.86690        2.42180        6.90330
H         -3.20150        3.00170        6.87690
H         -4.38260        3.76030        7.94990
H         -6.21790       -3.87440       -0.52630
H         -6.01330       -4.04640        1.22340
H         -3.77730       -4.27450       -0.84920
H         -3.56900       -4.44100        0.89370
H         -4.53220       -5.62550        0.00380
H         -7.96010        4.71580       -1.51020
H         -5.85490        5.58600       -7.39350
H         -7.00930        7.37060       -8.62490
H         -8.93450        8.53980       -7.65460
H         -9.73960        7.94930       -5.37290
