115
SFBRCN.sdf
C          0.66990       -0.39890        3.56150
C          1.56790        3.90830       -3.46620
C          2.16980        5.14780       -3.79810
C          2.23610        5.59040       -5.16500
C          1.73350        4.78880       -6.23130
C          1.13250        3.59380       -5.85610
C          1.04980        3.18230       -4.52670
N          2.70450        6.04190       -2.96480
S          3.23290        7.29850       -3.80960
N          2.81900        6.78160       -5.27590
C          0.33120       -1.43140        4.53430
C          0.76820       -1.38070        5.88250
C          0.48350       -2.45530        6.79800
C         -0.23990       -3.60320        6.38550
C         -0.68250       -3.59070        5.06660
C         -0.40370       -2.55340        4.18130
N          1.44270       -0.39730        6.48220
S          1.69560       -0.77400        8.01780
N          0.96360       -2.20770        8.01220
C         -0.50330       -4.73750        7.21030
C         -0.06740       -5.06020        8.45040
C         -0.45300       -6.35760        9.02580
N          0.14640       -6.55100       10.25790
C          0.94500       -5.53890       10.68260
S          0.98140       -4.19680        9.54370
C          1.66720       -5.45240       11.84520
C         -0.06180       -7.80800       10.95400
C          1.07050       -8.79070       10.68020
O         -1.19020       -7.16750        8.51030
C          1.91570        5.29820       -7.55360
C          1.70130        4.77920       -8.79070
C          1.20080        3.48620       -9.25260
N          1.25140        3.40560      -10.63910
C          1.70830        4.50100      -11.30050
S          2.13100        5.77460      -10.18480
C          1.86930        4.67910      -12.65160
C          0.77420        2.19430      -11.28220
C         -0.66920        2.33790      -11.74900
O          0.79400        2.56020       -8.58340
C          1.74830       -6.41650       12.86420
C          2.43260       -4.29180       12.08760
C          2.37710        5.90590      -13.12980
C          1.58090        3.75000      -13.66550
N          1.86170       -7.16470       13.72850
N          3.06190       -3.35520       12.29390
N          1.36630        3.04260      -14.54480
N          2.79210        6.89720      -13.52980
C          1.86800        0.31550        3.67750
C          2.26160        1.22770        2.71830
C          1.44580        1.43500        1.61610
C          0.22350        0.75010        1.51190
C         -0.17120       -0.15260        2.46740
C          1.62580        2.23830        0.42440
C          0.51810        2.04050       -0.41740
C         -0.49680        1.14250        0.24540
C          2.66650        3.06030        0.01820
C          2.61070        3.63570       -1.23610
C          1.53850        3.39450       -2.10170
C          0.46760        2.60140       -1.66920
C         -1.81050        1.84160        0.51950
C         -2.87050        1.16200       -0.08910
C         -2.33550        0.00550       -0.79140
C         -0.94440       -0.02080       -0.60360
C         -2.04290        2.98490        1.25490
C         -3.34200        3.44170        1.37450
C         -4.41100        2.77010        0.76990
C         -4.17440        1.61630        0.02800
C         -2.95830       -0.96600       -1.54640
C         -2.18770       -1.97910       -2.12560
C         -0.80820       -1.99800       -1.93150
C         -0.18510       -1.01820       -1.16800
O         -2.89750       -2.89840       -2.83580
C         -2.22680       -3.89870       -3.57530
C         -1.60990       -3.36320       -4.86420
O         -5.63270        3.32590        0.99450
C         -6.78010        2.79040        0.36680
C         -6.88520        3.18380       -1.10410
H          0.72930        2.94930       -6.61870
H          0.59270        2.22560       -4.32330
H         -1.24560       -4.43920        4.70640
H         -0.74810       -2.65110        3.16320
H         -1.13550       -5.49790        6.76150
H         -1.00230       -8.21090       10.56830
H         -0.16080       -7.61510       12.02320
H          2.02120       -8.40170       11.03720
H          0.86870       -9.72420       11.19670
H          1.14460       -8.98920        9.61330
H          2.34260        6.29640       -7.54810
H          0.84030        1.40840      -10.52470
H          1.43220        1.94790      -12.11670
H         -0.99620        1.40290      -12.19370
H         -0.76400        3.12210      -12.49630
H         -1.31530        2.56950      -10.90510
H          2.50440        0.12910        4.52720
H          3.19800        1.75520        2.81890
H         -1.12370       -0.65290        2.37670
H          3.51480        3.23550        0.66240
H          3.42110        4.26170       -1.57370
H         -0.39180        2.44260       -2.30370
H         -1.23030        3.51530        1.72890
H         -3.56580        4.33050        1.94270
H         -4.97090        1.06840       -0.44910
H         -4.02460       -0.97230       -1.70680
H         -0.19890       -2.77450       -2.36590
H          0.88570       -1.04570       -1.02610
H         -1.47060       -4.39830       -2.95720
H         -3.00830       -4.62590       -3.81310
H         -2.38200       -2.91110       -5.48170
H         -1.14860       -4.17780       -5.41560
H         -0.85630       -2.60900       -4.65100
H         -6.81330        1.70010        0.48410
H         -7.61720        3.21970        0.92460
H         -6.88770        4.26700       -1.19520
H         -7.80800        2.79180       -1.52290
H         -6.04440        2.79440       -1.67310
