80
SSTI.sdf
C          0.04740        5.10660        4.60040
O          0.14630        4.83430        3.41830
C         -0.73620        6.21630        5.17630
C         -1.54760        7.12740        4.53030
C         -2.20960        8.07490        5.29880
C         -2.05180        8.09650        6.67670
C         -1.23210        7.18380        7.32900
C         -0.56610        6.23370        6.57140
C          0.34090        5.14840        6.94730
C          0.80610        4.91350        8.21600
C          0.44730        5.67830        9.34590
N          0.19840        6.25220       10.30870
C          1.71870        3.90390        8.58610
N          2.46300        3.11740        8.97110
C          0.66170        4.41200        5.74070
C         -1.82720       -4.79580       -3.95240
O         -1.22090       -4.51370       -2.93550
C         -2.75470       -5.93000       -4.12780
C         -3.17040       -6.85850       -3.19450
C         -4.07860       -7.82860       -3.59550
C         -4.54800       -7.85470       -4.90050
C         -4.12810       -6.92420       -5.84290
C         -3.22110       -5.95150       -5.45350
C         -2.60620       -4.84350       -6.18560
C         -2.76170       -4.60220       -7.52680
C         -2.14110       -3.56680       -8.25610
N         -1.67130       -2.75930       -8.92550
C         -3.56300       -5.38430       -8.38500
N         -4.19720       -5.97140       -9.14090
C         -1.80260       -4.09170       -5.24220
C         -1.21680       -2.87630       -5.49880
C         -0.50230       -2.00950       -4.66280
C         -0.10820       -0.71180       -5.05670
S         -0.04560       -2.33010       -3.00680
C          0.58870       -0.73040       -2.84470
C          0.47840       -0.00280       -4.02490
C          1.06200       -0.26430       -1.58870
C          1.18500        1.10020       -1.25090
C          1.46940        1.52790        0.10350
C          1.70000        0.63740        1.17300
C          1.69820       -0.72530        0.80670
C          1.35930       -1.15390       -0.53500
N          1.92310       -1.77140        1.60780
S          1.73680       -3.12810        0.77150
N          1.35960       -2.48340       -0.64130
C          1.82440        1.09890        2.51100
S          1.28590        2.68220        2.94790
C          1.62370        2.36100        4.63200
C          2.18720        1.07710        4.80170
C          2.27150        0.37680        3.61250
C         -0.26010       -0.15340       -6.43570
C          0.84010       -0.68140       -7.36100
C          2.68110        0.52470        6.10070
C          4.06280        1.09000        6.44220
C          1.33270        3.21420        5.70350
N          0.99770        2.14690       -2.06100
S          1.16580        3.50330       -1.22040
N          1.47880        2.85760        0.20760
H         -1.65720        7.08880        3.45740
H         -2.85420        8.79860        4.82300
H         -2.57780        8.83710        7.26030
H         -1.13290        7.22390        8.40130
H         -2.79390       -6.81570       -2.18410
H         -4.42520       -8.56640       -2.88760
H         -5.25790       -8.61300       -5.19470
H         -4.51420       -6.96820       -6.84800
H         -1.37220       -2.48380       -6.49510
H          0.82370        1.01200       -4.10490
H          2.64380       -0.62770        3.52440
H         -1.23490       -0.40470       -6.85710
H         -0.18880        0.93390       -6.37960
H          0.77950       -1.76250       -7.45620
H          0.73200       -0.24620       -8.35040
H          1.82080       -0.42240       -6.96840
H          1.98930        0.75180        6.91350
H          2.75070       -0.56060        6.01220
H          4.77280        0.85660        5.65200
H          4.41960        0.65840        7.37320
H          4.02020        2.16950        6.56190
H          1.64660        2.82450        6.66280
