SY3.sdf
  xtb     12222115453D
 energy: -186.472175338556 gnorm: 0.000363493714 xtb: 6.4.1 (unknown)
 97108  0     0  0            999 V2000
   -5.4741   -3.8251    5.6073 C   0  0  0  0  0  0  0  0  0  0  0  0
   -4.3158   -4.1614    5.4769 O   0  0  0  0  0  0  0  0  0  0  0  0
   -6.3012   -3.9708    6.8219 C   0  0  0  0  0  0  0  0  0  0  0  0
   -5.9719   -4.5684    8.0235 C   0  0  0  0  0  0  0  0  0  0  0  0
   -6.9132   -4.5760    9.0404 C   0  0  0  0  0  0  0  0  0  0  0  0
   -8.1541   -3.9815    8.8392 C   0  0  0  0  0  0  0  0  0  0  0  0
   -9.3063   -3.9919   10.1197 Cl  0  0  0  0  0  0  0  0  0  0  0  0
   -8.4974   -3.3734    7.6353 C   0  0  0  0  0  0  0  0  0  0  0  0
   -7.5572   -3.3732    6.6192 C   0  0  0  0  0  0  0  0  0  0  0  0
   -7.6061   -2.8331    5.2615 C   0  0  0  0  0  0  0  0  0  0  0  0
   -8.7018   -2.2790    4.6538 C   0  0  0  0  0  0  0  0  0  0  0  0
   -9.9449   -2.0792    5.2896 C   0  0  0  0  0  0  0  0  0  0  0  0
  -10.9759   -1.8837    5.7547 N   0  0  0  0  0  0  0  0  0  0  0  0
   -8.7405   -1.8666    3.3048 C   0  0  0  0  0  0  0  0  0  0  0  0
   -8.8463   -1.5348    2.2108 N   0  0  0  0  0  0  0  0  0  0  0  0
   -6.3191   -3.0769    4.6468 C   0  0  0  0  0  0  0  0  0  0  0  0
   -5.8530   -2.5002    3.4957 C   0  0  0  0  0  0  0  0  0  0  0  0
   -4.6649   -2.8393    2.8160 C   0  0  0  0  0  0  0  0  0  0  0  0
   -3.8025   -1.5167    2.0260 S   0  0  0  0  0  0  0  0  0  0  0  0
   -2.5576   -2.5978    1.5314 C   0  0  0  0  0  0  0  0  0  0  0  0
   -2.8507   -3.9190    1.9018 C   0  0  0  0  0  0  0  0  0  0  0  0
   -4.0467   -4.0697    2.6175 C   0  0  0  0  0  0  0  0  0  0  0  0
   -4.6380   -5.3866    2.9914 C   0  0  0  0  0  0  0  0  0  0  0  0
   -4.6874   -6.3567    1.8121 C   0  0  0  0  0  0  0  0  0  0  0  0
   -1.5988   -5.0489    1.4332 S   0  0  0  0  0  0  0  0  0  0  0  0
   -0.6923   -3.7407    0.7644 C   0  0  0  0  0  0  0  0  0  0  0  0
   -1.3282   -2.4995    0.8737 C   0  0  0  0  0  0  0  0  0  0  0  0
   -0.5478   -1.5168    0.3200 N   0  0  0  0  0  0  0  0  0  0  0  0
   -0.7630   -0.1502    0.7472 C   0  0  0  0  0  0  0  0  0  0  0  0
    0.6164   -2.1185   -0.1353 C   0  0  0  0  0  0  0  0  0  0  0  0
    0.5502   -3.5111    0.1564 C   0  0  0  0  0  0  0  0  0  0  0  0
    1.6450   -4.3757   -0.0663 C   0  0  0  0  0  0  0  0  0  0  0  0
    1.7365   -5.6725    0.1822 N   0  0  0  0  0  0  0  0  0  0  0  0
    3.2391   -6.1580   -0.1718 S   0  0  0  0  0  0  0  0  0  0  0  0
    3.8311   -4.7322   -0.6582 N   0  0  0  0  0  0  0  0  0  0  0  0
    2.8720   -3.8250   -0.5627 C   0  0  0  0  0  0  0  0  0  0  0  0
    2.9045   -2.4634   -0.9382 C   0  0  0  0  0  0  0  0  0  0  0  0
    1.7599   -1.6199   -0.8119 C   0  0  0  0  0  0  0  0  0  0  0  0
    2.0438   -0.4091   -1.4096 N   0  0  0  0  0  0  0  0  0  0  0  0
    1.1556    0.6296   -1.8824 C   0  0  0  0  0  0  0  0  0  0  0  0
    1.3391    1.9423   -1.1226 C   0  0  0  0  0  0  0  0  0  0  0  0
    3.3366   -0.4541   -1.8610 C   0  0  0  0  0  0  0  0  0  0  0  0
    3.8971   -1.7060   -1.5715 C   0  0  0  0  0  0  0  0  0  0  0  0
    5.5272   -1.8868   -2.1169 S   0  0  0  0  0  0  0  0  0  0  0  0
    5.4555   -0.2579   -2.7637 C   0  0  0  0  0  0  0  0  0  0  0  0
    4.2175    0.3788   -2.5542 C   0  0  0  0  0  0  0  0  0  0  0  0
    4.1947    1.9715   -3.2102 S   0  0  0  0  0  0  0  0  0  0  0  0
    5.8612    1.7832   -3.7620 C   0  0  0  0  0  0  0  0  0  0  0  0
    6.3850    0.5157   -3.4419 C   0  0  0  0  0  0  0  0  0  0  0  0
    7.7766    0.0505   -3.7195 C   0  0  0  0  0  0  0  0  0  0  0  0
    8.7374    0.5323   -2.6286 C   0  0  0  0  0  0  0  0  0  0  0  0
    6.5987    2.7616   -4.4301 C   0  0  0  0  0  0  0  0  0  0  0  0
    6.2699    4.0442   -4.8066 C   0  0  0  0  0  0  0  0  0  0  0  0
    7.1526    4.9629   -5.4959 C   0  0  0  0  0  0  0  0  0  0  0  0
    8.4509    4.7480   -5.8841 C   0  0  0  0  0  0  0  0  0  0  0  0
    9.2414    5.7000   -6.5621 C   0  0  0  0  0  0  0  0  0  0  0  0
    9.9415    6.4223   -7.1152 N   0  0  0  0  0  0  0  0  0  0  0  0
    9.1935    3.5679   -5.6723 C   0  0  0  0  0  0  0  0  0  0  0  0
    9.8691    2.6479   -5.5375 N   0  0  0  0  0  0  0  0  0  0  0  0
    6.4066    6.2026   -5.7145 C   0  0  0  0  0  0  0  0  0  0  0  0
    6.7626    7.3957   -6.3201 C   0  0  0  0  0  0  0  0  0  0  0  0
    5.8223    8.4195   -6.3816 C   0  0  0  0  0  0  0  0  0  0  0  0
    6.2565    9.9026   -7.1313 Cl  0  0  0  0  0  0  0  0  0  0  0  0
    4.5399    8.2605   -5.8470 C   0  0  0  0  0  0  0  0  0  0  0  0
    3.4032    9.5445   -5.9429 Cl  0  0  0  0  0  0  0  0  0  0  0  0
    4.1796    7.0652   -5.2367 C   0  0  0  0  0  0  0  0  0  0  0  0
    5.1159    6.0544   -5.1781 C   0  0  0  0  0  0  0  0  0  0  0  0
    4.9835    4.7061   -4.5908 C   0  0  0  0  0  0  0  0  0  0  0  0
    3.9910    4.2562   -4.0442 O   0  0  0  0  0  0  0  0  0  0  0  0
    0.0617    0.1676    1.9927 C   0  0  0  0  0  0  0  0  0  0  0  0
   -5.0006   -5.0193    8.1556 H   0  0  0  0  0  0  0  0  0  0  0  0
   -6.6925   -5.0376    9.9897 H   0  0  0  0  0  0  0  0  0  0  0  0
   -9.4672   -2.9178    7.5210 H   0  0  0  0  0  0  0  0  0  0  0  0
   -6.3933   -1.6519    3.0908 H   0  0  0  0  0  0  0  0  0  0  0  0
   -5.6490   -5.2310    3.3717 H   0  0  0  0  0  0  0  0  0  0  0  0
   -4.0417   -5.8165    3.8010 H   0  0  0  0  0  0  0  0  0  0  0  0
   -5.1890   -7.2718    2.1161 H   0  0  0  0  0  0  0  0  0  0  0  0
   -3.6894   -6.6127    1.4685 H   0  0  0  0  0  0  0  0  0  0  0  0
   -5.2407   -5.9192    0.9837 H   0  0  0  0  0  0  0  0  0  0  0  0
   -0.5310    0.5519   -0.0469 H   0  0  0  0  0  0  0  0  0  0  0  0
   -1.8277   -0.0573    0.9760 H   0  0  0  0  0  0  0  0  0  0  0  0
    0.1302    0.2603   -1.8343 H   0  0  0  0  0  0  0  0  0  0  0  0
    1.3905    0.8071   -2.9377 H   0  0  0  0  0  0  0  0  0  0  0  0
    2.3071    2.3752   -1.3588 H   0  0  0  0  0  0  0  0  0  0  0  0
    0.5714    2.6497   -1.4234 H   0  0  0  0  0  0  0  0  0  0  0  0
    1.2847    1.7940   -0.0477 H   0  0  0  0  0  0  0  0  0  0  0  0
    8.1245    0.4055   -4.6905 H   0  0  0  0  0  0  0  0  0  0  0  0
    7.7744   -1.0411   -3.7346 H   0  0  0  0  0  0  0  0  0  0  0  0
    8.4273    0.1538   -1.6574 H   0  0  0  0  0  0  0  0  0  0  0  0
    8.7609    1.6187   -2.5879 H   0  0  0  0  0  0  0  0  0  0  0  0
    9.7410    0.1750   -2.8396 H   0  0  0  0  0  0  0  0  0  0  0  0
    7.5999    2.4413   -4.6832 H   0  0  0  0  0  0  0  0  0  0  0  0
    7.7400    7.5570   -6.7440 H   0  0  0  0  0  0  0  0  0  0  0  0
    3.1944    6.9292   -4.8195 H   0  0  0  0  0  0  0  0  0  0  0  0
   -0.2108   -0.4998    2.8070 H   0  0  0  0  0  0  0  0  0  0  0  0
   -0.1226    1.1909    2.3077 H   0  0  0  0  0  0  0  0  0  0  0  0
    1.1239    0.0453    1.7897 H   0  0  0  0  0  0  0  0  0  0  0  0
  1  2  2  0  0  0  0
  1  3  1  0  0  0  0
  3  4  2  0  0  0  0
  4  5  1  0  0  0  0
  5  6  2  0  0  0  0
  6  7  1  0  0  0  0
  6  8  1  0  0  0  0
  8  9  2  0  0  0  0
  3  9  1  0  0  0  0
  9 10  1  0  0  0  0
 10 11  2  0  0  0  0
 11 12  1  0  0  0  0
 12 13  3  0  0  0  0
 11 14  1  0  0  0  0
 14 15  3  0  0  0  0
 10 16  1  0  0  0  0
  1 16  1  0  0  0  0
 16 17  2  0  0  0  0
 17 18  1  0  0  0  0
 18 19  1  0  0  0  0
 19 20  1  0  0  0  0
 20 21  2  0  0  0  0
 21 22  1  0  0  0  0
 22 23  1  0  0  0  0
 23 24  1  0  0  0  0
 18 22  2  0  0  0  0
 21 25  1  0  0  0  0
 25 26  1  0  0  0  0
 26 27  2  0  0  0  0
 20 27  1  0  0  0  0
 27 28  1  0  0  0  0
 28 29  1  0  0  0  0
 28 30  1  0  0  0  0
 30 31  2  0  0  0  0
 26 31  1  0  0  0  0
 31 32  1  0  0  0  0
 32 33  2  0  0  0  0
 33 34  1  0  0  0  0
 34 35  1  0  0  0  0
 35 36  2  0  0  0  0
 32 36  1  0  0  0  0
 36 37  1  0  0  0  0
 37 38  2  0  0  0  0
 30 38  1  0  0  0  0
 38 39  1  0  0  0  0
 39 40  1  0  0  0  0
 40 41  1  0  0  0  0
 39 42  1  0  0  0  0
 42 43  2  0  0  0  0
 37 43  1  0  0  0  0
 43 44  1  0  0  0  0
 44 45  1  0  0  0  0
 45 46  2  0  0  0  0
 42 46  1  0  0  0  0
 46 47  1  0  0  0  0
 47 48  1  0  0  0  0
 48 49  2  0  0  0  0
 45 49  1  0  0  0  0
 49 50  1  0  0  0  0
 50 51  1  0  0  0  0
 48 52  1  0  0  0  0
 52 53  2  0  0  0  0
 53 54  1  0  0  0  0
 54 55  2  0  0  0  0
 55 56  1  0  0  0  0
 56 57  3  0  0  0  0
 55 58  1  0  0  0  0
 58 59  3  0  0  0  0
 54 60  1  0  0  0  0
 60 61  2  0  0  0  0
 61 62  1  0  0  0  0
 62 63  1  0  0  0  0
 62 64  2  0  0  0  0
 64 65  1  0  0  0  0
 64 66  1  0  0  0  0
 66 67  2  0  0  0  0
 60 67  1  0  0  0  0
 67 68  1  0  0  0  0
 68 69  2  0  0  0  0
 53 68  1  0  0  0  0
 29 70  1  0  0  0  0
  4 71  1  0  0  0  0
  5 72  1  0  0  0  0
  8 73  1  0  0  0  0
 17 74  1  0  0  0  0
 23 75  1  0  0  0  0
 23 76  1  0  0  0  0
 24 77  1  0  0  0  0
 24 78  1  0  0  0  0
 24 79  1  0  0  0  0
 29 80  1  0  0  0  0
 29 81  1  0  0  0  0
 40 82  1  0  0  0  0
 40 83  1  0  0  0  0
 41 84  1  0  0  0  0
 41 85  1  0  0  0  0
 41 86  1  0  0  0  0
 50 87  1  0  0  0  0
 50 88  1  0  0  0  0
 51 89  1  0  0  0  0
 51 90  1  0  0  0  0
 51 91  1  0  0  0  0
 52 92  1  0  0  0  0
 61 93  1  0  0  0  0
 66 94  1  0  0  0  0
 70 95  1  0  0  0  0
 70 96  1  0  0  0  0
 70 97  1  0  0  0  0
M  END
