97
SY3.sdf
C         -5.47410       -3.82510        5.60730
O         -4.31580       -4.16140        5.47690
C         -6.30120       -3.97080        6.82190
C         -5.97190       -4.56840        8.02350
C         -6.91320       -4.57600        9.04040
C         -8.15410       -3.98150        8.83920
Cl        -9.30630       -3.99190       10.11970
C         -8.49740       -3.37340        7.63530
C         -7.55720       -3.37320        6.61920
C         -7.60610       -2.83310        5.26150
C         -8.70180       -2.27900        4.65380
C         -9.94490       -2.07920        5.28960
N        -10.97590       -1.88370        5.75470
C         -8.74050       -1.86660        3.30480
N         -8.84630       -1.53480        2.21080
C         -6.31910       -3.07690        4.64680
C         -5.85300       -2.50020        3.49570
C         -4.66490       -2.83930        2.81600
S         -3.80250       -1.51670        2.02600
C         -2.55760       -2.59780        1.53140
C         -2.85070       -3.91900        1.90180
C         -4.04670       -4.06970        2.61750
C         -4.63800       -5.38660        2.99140
C         -4.68740       -6.35670        1.81210
S         -1.59880       -5.04890        1.43320
C         -0.69230       -3.74070        0.76440
C         -1.32820       -2.49950        0.87370
N         -0.54780       -1.51680        0.32000
C         -0.76300       -0.15020        0.74720
C          0.61640       -2.11850       -0.13530
C          0.55020       -3.51110        0.15640
C          1.64500       -4.37570       -0.06630
N          1.73650       -5.67250        0.18220
S          3.23910       -6.15800       -0.17180
N          3.83110       -4.73220       -0.65820
C          2.87200       -3.82500       -0.56270
C          2.90450       -2.46340       -0.93820
C          1.75990       -1.61990       -0.81190
N          2.04380       -0.40910       -1.40960
C          1.15560        0.62960       -1.88240
C          1.33910        1.94230       -1.12260
C          3.33660       -0.45410       -1.86100
C          3.89710       -1.70600       -1.57150
S          5.52720       -1.88680       -2.11690
C          5.45550       -0.25790       -2.76370
C          4.21750        0.37880       -2.55420
S          4.19470        1.97150       -3.21020
C          5.86120        1.78320       -3.76200
C          6.38500        0.51570       -3.44190
C          7.77660        0.05050       -3.71950
C          8.73740        0.53230       -2.62860
C          6.59870        2.76160       -4.43010
C          6.26990        4.04420       -4.80660
C          7.15260        4.96290       -5.49590
C          8.45090        4.74800       -5.88410
C          9.24140        5.70000       -6.56210
N          9.94150        6.42230       -7.11520
C          9.19350        3.56790       -5.67230
N          9.86910        2.64790       -5.53750
C          6.40660        6.20260       -5.71450
C          6.76260        7.39570       -6.32010
C          5.82230        8.41950       -6.38160
Cl         6.25650        9.90260       -7.13130
C          4.53990        8.26050       -5.84700
Cl         3.40320        9.54450       -5.94290
C          4.17960        7.06520       -5.23670
C          5.11590        6.05440       -5.17810
C          4.98350        4.70610       -4.59080
O          3.99100        4.25620       -4.04420
C          0.06170        0.16760        1.99270
H         -5.00060       -5.01930        8.15560
H         -6.69250       -5.03760        9.98970
H         -9.46720       -2.91780        7.52100
H         -6.39330       -1.65190        3.09080
H         -5.64900       -5.23100        3.37170
H         -4.04170       -5.81650        3.80100
H         -5.18900       -7.27180        2.11610
H         -3.68940       -6.61270        1.46850
H         -5.24070       -5.91920        0.98370
H         -0.53100        0.55190       -0.04690
H         -1.82770       -0.05730        0.97600
H          0.13020        0.26030       -1.83430
H          1.39050        0.80710       -2.93770
H          2.30710        2.37520       -1.35880
H          0.57140        2.64970       -1.42340
H          1.28470        1.79400       -0.04770
H          8.12450        0.40550       -4.69050
H          7.77440       -1.04110       -3.73460
H          8.42730        0.15380       -1.65740
H          8.76090        1.61870       -2.58790
H          9.74100        0.17500       -2.83960
H          7.59990        2.44130       -4.68320
H          7.74000        7.55700       -6.74400
H          3.19440        6.92920       -4.81950
H         -0.21080       -0.49980        2.80700
H         -0.12260        1.19090        2.30770
H          1.12390        0.04530        1.78970
