Th-PhCHO.sdf
  xtb     12222116313D
 energy: -108.336868029962 gnorm: 0.000933262469 xtb: 6.4.1 (unknown)
 64 71  0     0  0            999 V2000
    3.2468    0.0127   -0.1071 C   0  0  0  0  0  0  0  0  0  0  0  0
    1.9950    0.1531   -0.8404 C   0  0  0  0  0  0  0  0  0  0  0  0
    3.8738   -1.1413    0.2632 C   0  0  0  0  0  0  0  0  0  0  0  0
    5.0838   -0.9120    0.9513 C   0  0  0  0  0  0  0  0  0  0  0  0
    5.3516    0.4104    1.1038 C   0  0  0  0  0  0  0  0  0  0  0  0
    4.1479    1.4057    0.3932 S   0  0  0  0  0  0  0  0  0  0  0  0
    0.7706   -0.3101   -0.3456 C   0  0  0  0  0  0  0  0  0  0  0  0
   -0.4318   -0.1885   -1.0959 C   0  0  0  0  0  0  0  0  0  0  0  0
   -0.4501    0.3945   -2.3663 C   0  0  0  0  0  0  0  0  0  0  0  0
    0.7707    0.8734   -2.8317 C   0  0  0  0  0  0  0  0  0  0  0  0
    1.9525    0.7574   -2.0934 C   0  0  0  0  0  0  0  0  0  0  0  0
    1.1007    1.5036   -4.1303 C   0  0  0  0  0  0  0  0  0  0  0  0
    2.4700    1.7209   -4.0967 N   0  0  0  0  0  0  0  0  0  0  0  0
    3.0592    1.2972   -2.9157 C   0  0  0  0  0  0  0  0  0  0  0  0
    3.2059    2.3450   -5.1743 C   0  0  0  0  0  0  0  0  0  0  0  0
    3.3071    3.8530   -4.9737 C   0  0  0  0  0  0  0  0  0  0  0  0
    0.3881    1.7766   -5.0645 O   0  0  0  0  0  0  0  0  0  0  0  0
    4.2414    1.3558   -2.6824 O   0  0  0  0  0  0  0  0  0  0  0  0
    0.4384   -1.8026    3.1576 C   0  0  0  0  0  0  0  0  0  0  0  0
   -0.9198   -2.0640    3.1358 C   0  0  0  0  0  0  0  0  0  0  0  0
   -1.6711   -1.7046    1.9809 C   0  0  0  0  0  0  0  0  0  0  0  0
   -0.9478   -1.1542    0.9207 C   0  0  0  0  0  0  0  0  0  0  0  0
    0.4457   -0.9182    0.9377 C   0  0  0  0  0  0  0  0  0  0  0  0
    1.1377   -1.2326    2.0844 C   0  0  0  0  0  0  0  0  0  0  0  0
   -3.0702   -1.7799    1.7997 C   0  0  0  0  0  0  0  0  0  0  0  0
   -3.6415   -1.3365    0.6312 C   0  0  0  0  0  0  0  0  0  0  0  0
   -2.8926   -0.7976   -0.4289 C   0  0  0  0  0  0  0  0  0  0  0  0
   -1.5281   -0.7113   -0.2904 C   0  0  0  0  0  0  0  0  0  0  0  0
   -1.5632   -2.6990    4.2934 C   0  0  0  0  0  0  0  0  0  0  0  0
   -1.6517    0.4931   -3.1879 C   0  0  0  0  0  0  0  0  0  0  0  0
   -2.3108    1.6132   -3.5914 C   0  0  0  0  0  0  0  0  0  0  0  0
   -3.4206    1.3325   -4.4181 C   0  0  0  0  0  0  0  0  0  0  0  0
   -3.5808    0.0052   -4.6441 C   0  0  0  0  0  0  0  0  0  0  0  0
   -2.3851   -0.9390   -3.8465 S   0  0  0  0  0  0  0  0  0  0  0  0
   -1.3682   -2.1943    5.5764 C   0  0  0  0  0  0  0  0  0  0  0  0
   -1.9717   -2.7920    6.6656 C   0  0  0  0  0  0  0  0  0  0  0  0
   -2.7769   -3.9120    6.5019 C   0  0  0  0  0  0  0  0  0  0  0  0
   -2.9625   -4.4261    5.2245 C   0  0  0  0  0  0  0  0  0  0  0  0
   -2.3643   -3.8281    4.1327 C   0  0  0  0  0  0  0  0  0  0  0  0
   -3.4292   -4.5635    7.6958 C   0  0  0  0  0  0  0  0  0  0  0  0
   -3.6919   -3.6762    8.7566 O   0  0  0  0  0  0  0  0  0  0  0  0
    3.4869   -2.1186    0.0337 H   0  0  0  0  0  0  0  0  0  0  0  0
    5.7211   -1.6979    1.3157 H   0  0  0  0  0  0  0  0  0  0  0  0
    6.1897    0.8674    1.5913 H   0  0  0  0  0  0  0  0  0  0  0  0
    2.6764    2.1178   -6.1028 H   0  0  0  0  0  0  0  0  0  0  0  0
    4.2025    1.8969   -5.1936 H   0  0  0  0  0  0  0  0  0  0  0  0
    3.8622    4.2973   -5.7951 H   0  0  0  0  0  0  0  0  0  0  0  0
    3.8231    4.0729   -4.0418 H   0  0  0  0  0  0  0  0  0  0  0  0
    2.3138    4.2951   -4.9419 H   0  0  0  0  0  0  0  0  0  0  0  0
    0.9961   -2.0709    4.0440 H   0  0  0  0  0  0  0  0  0  0  0  0
    2.1973   -1.0550    2.1800 H   0  0  0  0  0  0  0  0  0  0  0  0
   -3.6941   -2.1641    2.5930 H   0  0  0  0  0  0  0  0  0  0  0  0
   -4.7149   -1.3915    0.5195 H   0  0  0  0  0  0  0  0  0  0  0  0
   -3.4040   -0.4488   -1.3119 H   0  0  0  0  0  0  0  0  0  0  0  0
   -2.0144    2.6045   -3.3001 H   0  0  0  0  0  0  0  0  0  0  0  0
   -4.0631    2.0902   -4.8290 H   0  0  0  0  0  0  0  0  0  0  0  0
   -4.3245   -0.4876   -5.2382 H   0  0  0  0  0  0  0  0  0  0  0  0
   -0.7543   -1.3162    5.7138 H   0  0  0  0  0  0  0  0  0  0  0  0
   -1.8198   -2.3943    7.6585 H   0  0  0  0  0  0  0  0  0  0  0  0
   -3.5785   -5.3034    5.0866 H   0  0  0  0  0  0  0  0  0  0  0  0
   -2.4980   -4.2490    3.1467 H   0  0  0  0  0  0  0  0  0  0  0  0
   -2.7535   -5.3185    8.1145 H   0  0  0  0  0  0  0  0  0  0  0  0
   -4.3516   -5.0741    7.3797 H   0  0  0  0  0  0  0  0  0  0  0  0
   -4.2447   -2.9576    8.4303 H   0  0  0  0  0  0  0  0  0  0  0  0
  1  2  1  0  0  0  0
  1  3  2  0  0  0  0
  3  4  1  0  0  0  0
  4  5  2  0  0  0  0
  5  6  1  0  0  0  0
  6  1  1  0  0  0  0
  2  7  1  0  0  0  0
  7  8  2  0  0  0  0
  8  9  1  0  0  0  0
  9 10  2  0  0  0  0
 10 11  1  0  0  0  0
 11  2  2  0  0  0  0
 10 12  1  0  0  0  0
 12 13  1  0  0  0  0
 13 14  1  0  0  0  0
 14 11  1  0  0  0  0
 13 15  1  0  0  0  0
 15 16  1  0  0  0  0
 12 17  2  0  0  0  0
 14 18  2  0  0  0  0
 19 20  1  0  0  0  0
 20 21  2  0  0  0  0
 21 22  1  0  0  0  0
 22 23  2  0  0  0  0
 23 24  1  0  0  0  0
 24 19  2  0  0  0  0
 21 25  1  0  0  0  0
 25 26  2  0  0  0  0
 26 27  1  0  0  0  0
 27 28  2  0  0  0  0
 28 22  1  0  0  0  0
  8 28  1  0  0  0  0
  7 23  1  0  0  0  0
 20 29  1  0  0  0  0
  9 30  1  0  0  0  0
 30 31  2  0  0  0  0
 31 32  1  0  0  0  0
 32 33  2  0  0  0  0
 33 34  1  0  0  0  0
 34 30  1  0  0  0  0
 29 35  2  0  0  0  0
 35 36  1  0  0  0  0
 36 37  2  0  0  0  0
 37 38  1  0  0  0  0
 38 39  2  0  0  0  0
 39 29  1  0  0  0  0
 37 40  1  0  0  0  0
 40 41  1  0  0  0  0
  3 42  1  0  0  0  0
  4 43  1  0  0  0  0
  5 44  1  0  0  0  0
 15 45  1  0  0  0  0
 15 46  1  0  0  0  0
 16 47  1  0  0  0  0
 16 48  1  0  0  0  0
 16 49  1  0  0  0  0
 19 50  1  0  0  0  0
 24 51  1  0  0  0  0
 25 52  1  0  0  0  0
 26 53  1  0  0  0  0
 27 54  1  0  0  0  0
 31 55  1  0  0  0  0
 32 56  1  0  0  0  0
 33 57  1  0  0  0  0
 35 58  1  0  0  0  0
 36 59  1  0  0  0  0
 38 60  1  0  0  0  0
 39 61  1  0  0  0  0
 40 62  1  0  0  0  0
 40 63  1  0  0  0  0
 41 64  1  0  0  0  0
M  END
