TIDT-BT-R2.sdf
  xtb     12222115463D
 energy: -189.915860443858 gnorm: 0.000407795549 xtb: 6.4.1 (unknown)
111122  0     0  0            999 V2000
    6.0704   -4.0974   -0.6949 C   0  0  0  0  0  0  0  0  0  0  0  0
    6.6245   -5.1581   -1.4018 C   0  0  0  0  0  0  0  0  0  0  0  0
    7.9744   -5.4878   -1.3222 C   0  0  0  0  0  0  0  0  0  0  0  0
    8.8848   -4.7658   -0.5632 C   0  0  0  0  0  0  0  0  0  0  0  0
    8.3518   -3.7205    0.2300 C   0  0  0  0  0  0  0  0  0  0  0  0
    6.9568   -3.3898    0.1586 C   0  0  0  0  0  0  0  0  0  0  0  0
    8.9914   -2.9803    1.1334 N   0  0  0  0  0  0  0  0  0  0  0  0
    7.9547   -1.9443    1.7846 S   0  0  0  0  0  0  0  0  0  0  0  0
    6.6362   -2.3976    0.9850 N   0  0  0  0  0  0  0  0  0  0  0  0
   10.2844   -5.0971   -0.5535 C   0  0  0  0  0  0  0  0  0  0  0  0
   -5.2527    2.3873    1.6743 C   0  0  0  0  0  0  0  0  0  0  0  0
   -5.2120    3.0950    2.8728 C   0  0  0  0  0  0  0  0  0  0  0  0
   -6.2657    3.8610    3.3523 C   0  0  0  0  0  0  0  0  0  0  0  0
   -7.4691    3.9936    2.6637 C   0  0  0  0  0  0  0  0  0  0  0  0
   -7.5512    3.2943    1.4236 C   0  0  0  0  0  0  0  0  0  0  0  0
   -6.4615    2.4962    0.9302 C   0  0  0  0  0  0  0  0  0  0  0  0
   -8.5928    3.2801    0.5960 N   0  0  0  0  0  0  0  0  0  0  0  0
   -8.2418    2.3599   -0.6743 S   0  0  0  0  0  0  0  0  0  0  0  0
   -6.7536    1.9321   -0.2403 N   0  0  0  0  0  0  0  0  0  0  0  0
   -8.6180    4.7422    3.0522 C   0  0  0  0  0  0  0  0  0  0  0  0
    4.6938   -3.7187   -0.7879 C   0  0  0  0  0  0  0  0  0  0  0  0
    3.7116   -4.2397   -1.6069 C   0  0  0  0  0  0  0  0  0  0  0  0
    2.4718   -3.6255   -1.4461 C   0  0  0  0  0  0  0  0  0  0  0  0
    2.4738   -2.6262   -0.4953 C   0  0  0  0  0  0  0  0  0  0  0  0
    4.0547   -2.4462    0.2028 S   0  0  0  0  0  0  0  0  0  0  0  0
    1.3712   -1.8009   -0.0680 C   0  0  0  0  0  0  0  0  0  0  0  0
    1.4760   -1.0308    1.0989 C   0  0  0  0  0  0  0  0  0  0  0  0
    0.4339   -0.2467    1.5454 C   0  0  0  0  0  0  0  0  0  0  0  0
   -0.7448   -0.2279    0.8112 C   0  0  0  0  0  0  0  0  0  0  0  0
   -0.8641   -0.9914   -0.3708 C   0  0  0  0  0  0  0  0  0  0  0  0
    0.1801   -1.7629   -0.8109 C   0  0  0  0  0  0  0  0  0  0  0  0
   -1.9837    0.4609    0.9897 C   0  0  0  0  0  0  0  0  0  0  0  0
   -2.8584    0.1782   -0.0496 C   0  0  0  0  0  0  0  0  0  0  0  0
   -2.2264   -0.7910   -1.0164 C   0  0  0  0  0  0  0  0  0  0  0  0
   -2.6639    1.5274    2.1448 S   0  0  0  0  0  0  0  0  0  0  0  0
   -4.1562    1.5971    1.2174 C   0  0  0  0  0  0  0  0  0  0  0  0
   -4.0865    0.8157    0.0767 C   0  0  0  0  0  0  0  0  0  0  0  0
   -2.0102   -0.2198   -2.4050 C   0  0  0  0  0  0  0  0  0  0  0  0
   -3.0858   -2.0407   -1.0519 C   0  0  0  0  0  0  0  0  0  0  0  0
   -1.7960   -1.0726   -3.4806 C   0  0  0  0  0  0  0  0  0  0  0  0
   -1.5456   -0.5641   -4.7408 C   0  0  0  0  0  0  0  0  0  0  0  0
   -1.5026    0.8062   -4.9619 C   0  0  0  0  0  0  0  0  0  0  0  0
   -1.7102    1.6540   -3.8824 C   0  0  0  0  0  0  0  0  0  0  0  0
   -1.9567    1.1503   -2.6187 C   0  0  0  0  0  0  0  0  0  0  0  0
   -4.2605   -2.0286   -1.7955 C   0  0  0  0  0  0  0  0  0  0  0  0
   -5.0886   -3.1332   -1.8172 C   0  0  0  0  0  0  0  0  0  0  0  0
   -4.7716   -4.2762   -1.0934 C   0  0  0  0  0  0  0  0  0  0  0  0
   -3.6035   -4.2787   -0.3444 C   0  0  0  0  0  0  0  0  0  0  0  0
   -2.7714   -3.1734   -0.3161 C   0  0  0  0  0  0  0  0  0  0  0  0
   -1.1897    1.3584   -6.3227 C   0  0  0  0  0  0  0  0  0  0  0  0
    0.3153    1.5898   -6.4724 C   0  0  0  0  0  0  0  0  0  0  0  0
   -5.6456   -5.4951   -1.1631 C   0  0  0  0  0  0  0  0  0  0  0  0
   -5.2323   -6.3793   -2.3416 C   0  0  0  0  0  0  0  0  0  0  0  0
   -8.9222    5.4880    4.1489 C   0  0  0  0  0  0  0  0  0  0  0  0
   -8.1861    5.8095    5.3705 C   0  0  0  0  0  0  0  0  0  0  0  0
   -8.9580    6.6061    6.2025 N   0  0  0  0  0  0  0  0  0  0  0  0
  -10.2021    6.9472    5.7843 C   0  0  0  0  0  0  0  0  0  0  0  0
  -10.5125    6.2498    4.2080 S   0  0  0  0  0  0  0  0  0  0  0  0
  -11.2609    7.8771    6.6087 S   0  0  0  0  0  0  0  0  0  0  0  0
   -8.4443    7.0239    7.4929 C   0  0  0  0  0  0  0  0  0  0  0  0
   -8.9121    6.0886    8.6006 C   0  0  0  0  0  0  0  0  0  0  0  0
   -7.0617    5.4725    5.6809 O   0  0  0  0  0  0  0  0  0  0  0  0
   11.3005   -4.2099   -0.4842 C   0  0  0  0  0  0  0  0  0  0  0  0
   11.2368   -2.7550   -0.6719 C   0  0  0  0  0  0  0  0  0  0  0  0
   12.4947   -2.2014   -0.4897 N   0  0  0  0  0  0  0  0  0  0  0  0
   13.5312   -3.0462   -0.2656 C   0  0  0  0  0  0  0  0  0  0  0  0
   12.9676   -4.7116   -0.2619 S   0  0  0  0  0  0  0  0  0  0  0  0
   15.0845   -2.6068   -0.0343 S   0  0  0  0  0  0  0  0  0  0  0  0
   12.6866   -0.7694   -0.6157 C   0  0  0  0  0  0  0  0  0  0  0  0
   13.1350   -0.3933   -2.0223 C   0  0  0  0  0  0  0  0  0  0  0  0
   10.2772   -2.0964   -1.0018 O   0  0  0  0  0  0  0  0  0  0  0  0
    5.9910   -5.7489   -2.0444 H   0  0  0  0  0  0  0  0  0  0  0  0
    8.3399   -6.3138   -1.9151 H   0  0  0  0  0  0  0  0  0  0  0  0
   10.5323   -6.1505   -0.6038 H   0  0  0  0  0  0  0  0  0  0  0  0
   -4.3098    3.0403    3.4649 H   0  0  0  0  0  0  0  0  0  0  0  0
   -6.1469    4.3693    4.2943 H   0  0  0  0  0  0  0  0  0  0  0  0
   -9.4077    4.6907    2.3094 H   0  0  0  0  0  0  0  0  0  0  0  0
    3.8852   -5.0380   -2.3058 H   0  0  0  0  0  0  0  0  0  0  0  0
    1.5985   -3.9205   -1.9993 H   0  0  0  0  0  0  0  0  0  0  0  0
    2.3990   -1.0643    1.6587 H   0  0  0  0  0  0  0  0  0  0  0  0
    0.5263    0.3406    2.4463 H   0  0  0  0  0  0  0  0  0  0  0  0
    0.0898   -2.3281   -1.7245 H   0  0  0  0  0  0  0  0  0  0  0  0
   -4.9087    0.7379   -0.6093 H   0  0  0  0  0  0  0  0  0  0  0  0
   -1.8401   -2.1422   -3.3335 H   0  0  0  0  0  0  0  0  0  0  0  0
   -1.3848   -1.2425   -5.5669 H   0  0  0  0  0  0  0  0  0  0  0  0
   -1.6806    2.7240   -4.0318 H   0  0  0  0  0  0  0  0  0  0  0  0
   -2.1132    1.8311   -1.7948 H   0  0  0  0  0  0  0  0  0  0  0  0
   -4.5198   -1.1497   -2.3676 H   0  0  0  0  0  0  0  0  0  0  0  0
   -5.9971   -3.1078   -2.4021 H   0  0  0  0  0  0  0  0  0  0  0  0
   -3.3403   -5.1556    0.2302 H   0  0  0  0  0  0  0  0  0  0  0  0
   -1.8720   -3.1982    0.2818 H   0  0  0  0  0  0  0  0  0  0  0  0
   -1.5248    0.6602   -7.0923 H   0  0  0  0  0  0  0  0  0  0  0  0
   -1.7146    2.3048   -6.4676 H   0  0  0  0  0  0  0  0  0  0  0  0
    0.6661    2.2949   -5.7222 H   0  0  0  0  0  0  0  0  0  0  0  0
    0.5430    1.9888   -7.4582 H   0  0  0  0  0  0  0  0  0  0  0  0
    0.8568    0.6555   -6.3416 H   0  0  0  0  0  0  0  0  0  0  0  0
   -6.6886   -5.1965   -1.2862 H   0  0  0  0  0  0  0  0  0  0  0  0
   -5.5604   -6.0666   -0.2368 H   0  0  0  0  0  0  0  0  0  0  0  0
   -4.1979   -6.6974   -2.2305 H   0  0  0  0  0  0  0  0  0  0  0  0
   -5.3226   -5.8300   -3.2762 H   0  0  0  0  0  0  0  0  0  0  0  0
   -5.8636   -7.2631   -2.3953 H   0  0  0  0  0  0  0  0  0  0  0  0
   -8.7928    8.0420    7.6806 H   0  0  0  0  0  0  0  0  0  0  0  0
   -7.3548    7.0073    7.4141 H   0  0  0  0  0  0  0  0  0  0  0  0
   -8.5716    5.0741    8.4066 H   0  0  0  0  0  0  0  0  0  0  0  0
   -9.9976    6.0941    8.6656 H   0  0  0  0  0  0  0  0  0  0  0  0
   -8.5045    6.4192    9.5513 H   0  0  0  0  0  0  0  0  0  0  0  0
   13.4355   -0.4639    0.1186 H   0  0  0  0  0  0  0  0  0  0  0  0
   11.7238   -0.3071   -0.3869 H   0  0  0  0  0  0  0  0  0  0  0  0
   14.0866   -0.8654   -2.2547 H   0  0  0  0  0  0  0  0  0  0  0  0
   12.3921   -0.7096   -2.7508 H   0  0  0  0  0  0  0  0  0  0  0  0
   13.2551    0.6839   -2.0895 H   0  0  0  0  0  0  0  0  0  0  0  0
  1  2  2  0  0  0  0
  2  3  1  0  0  0  0
  3  4  2  0  0  0  0
  4  5  1  0  0  0  0
  5  6  1  0  0  0  0
  6  1  1  0  0  0  0
  5  7  2  0  0  0  0
  7  8  1  0  0  0  0
  8  9  1  0  0  0  0
  9  6  2  0  0  0  0
  4 10  1  0  0  0  0
 11 12  2  0  0  0  0
 12 13  1  0  0  0  0
 13 14  2  0  0  0  0
 14 15  1  0  0  0  0
 15 16  1  0  0  0  0
 16 11  1  0  0  0  0
 15 17  2  0  0  0  0
 17 18  1  0  0  0  0
 18 19  1  0  0  0  0
 19 16  2  0  0  0  0
 14 20  1  0  0  0  0
 21 22  2  0  0  0  0
 22 23  1  0  0  0  0
 23 24  2  0  0  0  0
 24 25  1  0  0  0  0
 25 21  1  0  0  0  0
 24 26  1  0  0  0  0
  1 21  1  0  0  0  0
 26 27  2  0  0  0  0
 27 28  1  0  0  0  0
 28 29  2  0  0  0  0
 29 30  1  0  0  0  0
 30 31  2  0  0  0  0
 31 26  1  0  0  0  0
 29 32  1  0  0  0  0
 32 33  2  0  0  0  0
 33 34  1  0  0  0  0
 34 30  1  0  0  0  0
 32 35  1  0  0  0  0
 35 36  1  0  0  0  0
 36 37  2  0  0  0  0
 37 33  1  0  0  0  0
 34 38  1  0  0  0  0
 34 39  1  0  0  0  0
 38 40  2  0  0  0  0
 40 41  1  0  0  0  0
 41 42  2  0  0  0  0
 42 43  1  0  0  0  0
 43 44  2  0  0  0  0
 44 38  1  0  0  0  0
 39 45  2  0  0  0  0
 45 46  1  0  0  0  0
 46 47  2  0  0  0  0
 47 48  1  0  0  0  0
 48 49  2  0  0  0  0
 49 39  1  0  0  0  0
 42 50  1  0  0  0  0
 50 51  1  0  0  0  0
 47 52  1  0  0  0  0
 52 53  1  0  0  0  0
 11 36  1  0  0  0  0
 20 54  2  0  0  0  0
 54 55  1  0  0  0  0
 55 56  1  0  0  0  0
 56 57  1  0  0  0  0
 57 58  1  0  0  0  0
 58 54  1  0  0  0  0
 57 59  2  0  0  0  0
 56 60  1  0  0  0  0
 60 61  1  0  0  0  0
 55 62  2  0  0  0  0
 10 63  2  0  0  0  0
 63 64  1  0  0  0  0
 64 65  1  0  0  0  0
 65 66  1  0  0  0  0
 66 67  1  0  0  0  0
 67 63  1  0  0  0  0
 66 68  2  0  0  0  0
 65 69  1  0  0  0  0
 69 70  1  0  0  0  0
 64 71  2  0  0  0  0
  2 72  1  0  0  0  0
  3 73  1  0  0  0  0
 10 74  1  0  0  0  0
 12 75  1  0  0  0  0
 13 76  1  0  0  0  0
 20 77  1  0  0  0  0
 22 78  1  0  0  0  0
 23 79  1  0  0  0  0
 27 80  1  0  0  0  0
 28 81  1  0  0  0  0
 31 82  1  0  0  0  0
 37 83  1  0  0  0  0
 40 84  1  0  0  0  0
 41 85  1  0  0  0  0
 43 86  1  0  0  0  0
 44 87  1  0  0  0  0
 45 88  1  0  0  0  0
 46 89  1  0  0  0  0
 48 90  1  0  0  0  0
 49 91  1  0  0  0  0
 50 92  1  0  0  0  0
 50 93  1  0  0  0  0
 51 94  1  0  0  0  0
 51 95  1  0  0  0  0
 51 96  1  0  0  0  0
 52 97  1  0  0  0  0
 52 98  1  0  0  0  0
 53 99  1  0  0  0  0
 53100  1  0  0  0  0
 53101  1  0  0  0  0
 60102  1  0  0  0  0
 60103  1  0  0  0  0
 61104  1  0  0  0  0
 61105  1  0  0  0  0
 61106  1  0  0  0  0
 69107  1  0  0  0  0
 69108  1  0  0  0  0
 70109  1  0  0  0  0
 70110  1  0  0  0  0
 70111  1  0  0  0  0
M  END
