111
TIDT-BT-R2.sdf
C          6.07040       -4.09740       -0.69490
C          6.62450       -5.15810       -1.40180
C          7.97440       -5.48780       -1.32220
C          8.88480       -4.76580       -0.56320
C          8.35180       -3.72050        0.23000
C          6.95680       -3.38980        0.15860
N          8.99140       -2.98030        1.13340
S          7.95470       -1.94430        1.78460
N          6.63620       -2.39760        0.98500
C         10.28440       -5.09710       -0.55350
C         -5.25270        2.38730        1.67430
C         -5.21200        3.09500        2.87280
C         -6.26570        3.86100        3.35230
C         -7.46910        3.99360        2.66370
C         -7.55120        3.29430        1.42360
C         -6.46150        2.49620        0.93020
N         -8.59280        3.28010        0.59600
S         -8.24180        2.35990       -0.67430
N         -6.75360        1.93210       -0.24030
C         -8.61800        4.74220        3.05220
C          4.69380       -3.71870       -0.78790
C          3.71160       -4.23970       -1.60690
C          2.47180       -3.62550       -1.44610
C          2.47380       -2.62620       -0.49530
S          4.05470       -2.44620        0.20280
C          1.37120       -1.80090       -0.06800
C          1.47600       -1.03080        1.09890
C          0.43390       -0.24670        1.54540
C         -0.74480       -0.22790        0.81120
C         -0.86410       -0.99140       -0.37080
C          0.18010       -1.76290       -0.81090
C         -1.98370        0.46090        0.98970
C         -2.85840        0.17820       -0.04960
C         -2.22640       -0.79100       -1.01640
S         -2.66390        1.52740        2.14480
C         -4.15620        1.59710        1.21740
C         -4.08650        0.81570        0.07670
C         -2.01020       -0.21980       -2.40500
C         -3.08580       -2.04070       -1.05190
C         -1.79600       -1.07260       -3.48060
C         -1.54560       -0.56410       -4.74080
C         -1.50260        0.80620       -4.96190
C         -1.71020        1.65400       -3.88240
C         -1.95670        1.15030       -2.61870
C         -4.26050       -2.02860       -1.79550
C         -5.08860       -3.13320       -1.81720
C         -4.77160       -4.27620       -1.09340
C         -3.60350       -4.27870       -0.34440
C         -2.77140       -3.17340       -0.31610
C         -1.18970        1.35840       -6.32270
C          0.31530        1.58980       -6.47240
C         -5.64560       -5.49510       -1.16310
C         -5.23230       -6.37930       -2.34160
C         -8.92220        5.48800        4.14890
C         -8.18610        5.80950        5.37050
N         -8.95800        6.60610        6.20250
C        -10.20210        6.94720        5.78430
S        -10.51250        6.24980        4.20800
S        -11.26090        7.87710        6.60870
C         -8.44430        7.02390        7.49290
C         -8.91210        6.08860        8.60060
O         -7.06170        5.47250        5.68090
C         11.30050       -4.20990       -0.48420
C         11.23680       -2.75500       -0.67190
N         12.49470       -2.20140       -0.48970
C         13.53120       -3.04620       -0.26560
S         12.96760       -4.71160       -0.26190
S         15.08450       -2.60680       -0.03430
C         12.68660       -0.76940       -0.61570
C         13.13500       -0.39330       -2.02230
O         10.27720       -2.09640       -1.00180
H          5.99100       -5.74890       -2.04440
H          8.33990       -6.31380       -1.91510
H         10.53230       -6.15050       -0.60380
H         -4.30980        3.04030        3.46490
H         -6.14690        4.36930        4.29430
H         -9.40770        4.69070        2.30940
H          3.88520       -5.03800       -2.30580
H          1.59850       -3.92050       -1.99930
H          2.39900       -1.06430        1.65870
H          0.52630        0.34060        2.44630
H          0.08980       -2.32810       -1.72450
H         -4.90870        0.73790       -0.60930
H         -1.84010       -2.14220       -3.33350
H         -1.38480       -1.24250       -5.56690
H         -1.68060        2.72400       -4.03180
H         -2.11320        1.83110       -1.79480
H         -4.51980       -1.14970       -2.36760
H         -5.99710       -3.10780       -2.40210
H         -3.34030       -5.15560        0.23020
H         -1.87200       -3.19820        0.28180
H         -1.52480        0.66020       -7.09230
H         -1.71460        2.30480       -6.46760
H          0.66610        2.29490       -5.72220
H          0.54300        1.98880       -7.45820
H          0.85680        0.65550       -6.34160
H         -6.68860       -5.19650       -1.28620
H         -5.56040       -6.06660       -0.23680
H         -4.19790       -6.69740       -2.23050
H         -5.32260       -5.83000       -3.27620
H         -5.86360       -7.26310       -2.39530
H         -8.79280        8.04200        7.68060
H         -7.35480        7.00730        7.41410
H         -8.57160        5.07410        8.40660
H         -9.99760        6.09410        8.66560
H         -8.50450        6.41920        9.55130
H         13.43550       -0.46390        0.11860
H         11.72380       -0.30710       -0.38690
H         14.08660       -0.86540       -2.25470
H         12.39210       -0.70960       -2.75080
H         13.25510        0.68390       -2.08950
