164
TPD3.sdf
C         -0.37960       -0.74920       -2.65410
C         -1.58240       -1.01380       -1.95530
C         -1.66000       -1.98710       -0.96180
C         -0.49280       -2.62730       -0.61940
C          0.72920       -2.29110       -1.25090
C          0.78740       -1.39160       -2.31230
C         -0.58850        0.33270       -3.70120
C         -1.99300        0.77160       -3.37830
C         -2.53720       -0.04780       -2.39750
C         -2.80410        1.84640       -3.71450
C         -3.97750        1.85400       -2.97470
S         -4.08730        0.47640       -1.88930
C         -0.26630       -3.63360        0.49670
C          1.23950       -3.64280        0.56470
C          1.76700       -2.92280       -0.50000
C          2.20570       -4.13150        1.43300
C          3.48280       -3.75250        1.04550
S          3.47790       -2.84170       -0.45640
C          4.67290       -3.89500        1.79480
C         -0.70090       -5.04350        0.12440
C         -0.95400       -3.16060        1.76050
C          0.32660        1.53520       -3.58130
C         -0.45990       -0.33610       -5.06060
C         -6.81010        4.43310       -2.15680
C         -7.92630        5.02840       -1.49700
C         -7.96470        6.33480       -1.15260
C          8.36440       -3.16170        2.95720
C          8.82330       -2.74160        4.15790
C          8.01530       -2.33600        5.32000
N          8.83870       -2.02020        6.38780
C         10.17490       -2.04500        6.15130
S         10.52160       -2.49740        4.49300
C         -6.82200        7.26360       -1.11270
N         -7.25980        8.54830       -0.83530
C         -8.58030        8.68930       -0.55970
S         -9.41450        7.14600       -0.61170
C         -6.30590        9.63740       -0.94430
O         -5.65210        6.97580       -1.19920
C         -9.26780        9.82780       -0.23070
C         -8.74330       11.12970       -0.14160
C        -10.64660        9.74800        0.06240
C          0.41800        2.42120       -4.64860
C          1.20520        3.55150       -4.55560
C          1.91750        3.83090       -3.39570
C          1.80650        2.95350       -2.32660
C          1.01650        1.82070       -2.41260
C          0.79920       -0.53040       -5.61470
C          0.93940       -1.17160       -6.83030
C         -0.17030       -1.63730       -7.52410
C         -1.42490       -1.44890       -6.96120
C         -1.57070       -0.80970       -5.74350
C         -1.12660       -5.37540       -1.15270
C         -1.48310       -6.67860       -1.45250
C         -1.41880       -7.67750       -0.49150
C         -0.97940       -7.33980        0.78290
C         -0.62310       -6.04140        1.08910
C         -2.27780       -3.50820        2.00000
C         -2.93180       -3.04570        3.12560
C         -2.28470       -2.22440        4.03980
C         -0.96630       -1.86990        3.78920
C         -0.30810       -2.32730        2.66230
O          6.81560       -2.19830        5.36300
C          8.22290       -1.62410        7.64150
C         11.20100       -1.75790        7.01270
C         11.08540       -1.36590        8.35860
C         12.53460       -1.83460        6.55520
N         -8.38580       12.21720       -0.05130
N        -11.76570        9.69830        0.30690
N         13.62240       -1.88680        6.19660
N         11.06730       -1.03040        9.45670
C         -1.76470       -9.09790       -0.83420
C         -3.01310       -1.69180        5.23980
C         -0.01410       -2.36930       -8.82570
C          2.73880        5.08300       -3.28570
C          1.86760        6.25090       -2.81890
C          0.11110       -3.87450       -8.58100
C         -0.52620       -9.84250       -1.33700
C         -3.74590       -0.39570        4.88720
C          8.10000       -0.10930        7.75290
C         -6.39120       10.29130       -2.31830
C         -5.99160        4.96910       -3.11670
C         -4.95410        4.11510       -3.55510
C         -4.94170        2.88620       -2.92110
S         -6.30100        2.79140       -1.81680
S          6.18060       -3.19770        1.23140
C          7.01230       -3.55500        2.73260
C          6.16250       -4.23150        3.56750
C          4.86120       -4.43150        3.05550
C         -5.91020        6.22930       -3.87320
N         -4.80770        6.07520       -4.69280
C         -4.17430        4.83990       -4.56450
C         -4.36270        7.09190       -5.62130
C         -5.13240        7.01820       -6.93520
C          6.24790       -4.86570        4.89400
N          4.98090       -5.37690        5.11710
C          4.08620       -5.15060        4.07440
C          4.59920       -6.02570        6.35290
C          4.05410       -5.01320        7.35400
O         -3.19380        4.51780       -5.19270
O         -6.61870        7.20910       -3.84260
O          7.18500       -4.97820        5.64790
O          2.93420       -5.51580        4.08130
H         -2.59050       -2.18900       -0.45390
H          1.72520       -1.17170       -2.79850
H         -2.56230        2.61470       -4.42590
H          2.01960       -4.69400        2.32960
H         -8.78090        4.39790       -1.28950
H          9.04820       -3.21860        2.12020
H         -5.32230        9.17900       -0.80930
H         -6.48020       10.35980       -0.14570
H         -0.12770        2.22020       -5.55870
H          1.26730        4.22740       -5.39610
H          2.34430        3.15670       -1.41130
H          0.94000        1.15850       -1.56220
H          1.67410       -0.16240       -5.09890
H          1.92610       -1.30850       -7.24940
H         -2.30230       -1.80290       -7.48370
H         -2.55900       -0.67370       -5.32920
H         -1.18600       -4.61720       -1.92000
H         -1.81920       -6.91960       -2.45110
H         -0.91710       -8.10280        1.54540
H         -0.28930       -5.79580        2.08630
H         -2.79570       -4.15530        1.30640
H         -3.95970       -3.33100        3.29940
H         -0.44470       -1.22910        4.48580
H          0.71760       -2.03580        2.48880
H          8.80170       -2.03390        8.47000
H          7.22750       -2.07580        7.63830
H         -2.53400       -9.11570       -1.60880
H         -2.15620       -9.60690        0.04880
H         -2.30480       -1.49700        6.04740
H         -3.73730       -2.42980        5.59060
H         -0.88010       -2.17980       -9.46310
H          0.87750       -2.01400       -9.34590
H          3.55260        4.93260       -2.57350
H          3.17450        5.32590       -4.25700
H          2.45770        7.16160       -2.74640
H          1.43820        6.03560       -1.84300
H          1.05300        6.41790       -3.52000
H         -0.77530       -4.25060       -8.07500
H          0.97620       -4.08550       -7.95630
H          0.22490       -4.40510       -9.52340
H         -0.77490      -10.87190       -1.58420
H          0.24870       -9.84540       -0.57370
H         -0.12830       -9.35760       -2.22570
H         -3.03900        0.35770        4.54660
H         -4.27490       -0.00920        5.75520
H         -4.46600       -0.57230        4.09130
H          9.07790        0.36620        7.73880
H          7.61250        0.14260        8.68980
H          7.50200        0.27890        6.93150
H         -7.32870       10.82880       -2.43860
H         -5.57410       10.99670       -2.43590
H         -6.32040        9.52780       -3.09050
H         -3.29650        6.92550       -5.79180
H         -4.51480        8.06430       -5.14630
H         -4.77940        7.79110       -7.61210
H         -6.19460        7.16800       -6.75620
H         -4.98530        6.04780       -7.40380
H          5.49060       -6.51620        6.75090
H          3.83870       -6.77240        6.11220
H          3.80340       -5.51200        8.28580
H          3.16010       -4.53810        6.95700
H          4.80030       -4.24740        7.55310
