TPDCIC.sdf
  xtb     12222115553D
 energy: -195.375898001875 gnorm: 0.000709561836 xtb: 6.4.1 (unknown)
113124  0     0  0            999 V2000
   -1.2882    2.5648   -9.7705 C   0  0  0  0  0  0  0  0  0  0  0  0
   -1.4974    2.1289   -8.6518 O   0  0  0  0  0  0  0  0  0  0  0  0
   -2.2324    2.5631  -10.9021 C   0  0  0  0  0  0  0  0  0  0  0  0
   -3.5248    2.0798  -10.9509 C   0  0  0  0  0  0  0  0  0  0  0  0
   -4.2212    2.1928  -12.1464 C   0  0  0  0  0  0  0  0  0  0  0  0
   -3.6250    2.7768  -13.2543 C   0  0  0  0  0  0  0  0  0  0  0  0
   -2.3247    3.2643  -13.2079 C   0  0  0  0  0  0  0  0  0  0  0  0
   -1.6196    3.1570  -12.0198 C   0  0  0  0  0  0  0  0  0  0  0  0
   -0.2623    3.5647  -11.6535 C   0  0  0  0  0  0  0  0  0  0  0  0
    0.6288    4.1835  -12.4921 C   0  0  0  0  0  0  0  0  0  0  0  0
    0.3579    4.5087  -13.8382 C   0  0  0  0  0  0  0  0  0  0  0  0
    0.2119    4.8000  -14.9391 N   0  0  0  0  0  0  0  0  0  0  0  0
    1.9368    4.5892  -12.1552 C   0  0  0  0  0  0  0  0  0  0  0  0
    3.0091    4.9553  -11.9632 N   0  0  0  0  0  0  0  0  0  0  0  0
   -0.0588    3.1933  -10.2674 C   0  0  0  0  0  0  0  0  0  0  0  0
    1.0911    3.3849   -9.5428 C   0  0  0  0  0  0  0  0  0  0  0  0
   -4.1080   -4.4807    9.1691 C   0  0  0  0  0  0  0  0  0  0  0  0
   -2.9213   -4.2348    9.2612 O   0  0  0  0  0  0  0  0  0  0  0  0
   -4.9882   -4.8572   10.2918 C   0  0  0  0  0  0  0  0  0  0  0  0
   -4.6663   -4.9728   11.6299 C   0  0  0  0  0  0  0  0  0  0  0  0
   -5.6710   -5.3332   12.5162 C   0  0  0  0  0  0  0  0  0  0  0  0
   -6.9602   -5.5655   12.0589 C   0  0  0  0  0  0  0  0  0  0  0  0
   -7.2857   -5.4530   10.7134 C   0  0  0  0  0  0  0  0  0  0  0  0
   -6.2882   -5.0975    9.8187 C   0  0  0  0  0  0  0  0  0  0  0  0
   -6.2994   -4.9060    8.3695 C   0  0  0  0  0  0  0  0  0  0  0  0
   -7.3686   -5.1729    7.5544 C   0  0  0  0  0  0  0  0  0  0  0  0
   -8.6257   -5.6160    8.0187 C   0  0  0  0  0  0  0  0  0  0  0  0
   -9.6729   -5.9768    8.3210 N   0  0  0  0  0  0  0  0  0  0  0  0
   -7.3889   -5.0889    6.1456 C   0  0  0  0  0  0  0  0  0  0  0  0
   -7.5005   -5.0660    5.0024 N   0  0  0  0  0  0  0  0  0  0  0  0
   -4.9758   -4.4555    7.9700 C   0  0  0  0  0  0  0  0  0  0  0  0
   -4.6862   -3.9964    6.7097 C   0  0  0  0  0  0  0  0  0  0  0  0
   -3.4891   -3.5384    6.1363 C   0  0  0  0  0  0  0  0  0  0  0  0
   -3.6140   -2.8696    4.5034 S   0  0  0  0  0  0  0  0  0  0  0  0
   -1.9382   -2.5513    4.4965 C   0  0  0  0  0  0  0  0  0  0  0  0
   -1.3039   -2.9416    5.6888 C   0  0  0  0  0  0  0  0  0  0  0  0
   -2.1739   -3.5084    6.5977 C   0  0  0  0  0  0  0  0  0  0  0  0
   -0.9733   -2.0101    3.6217 C   0  0  0  0  0  0  0  0  0  0  0  0
    0.2779   -2.0496    4.2449 C   0  0  0  0  0  0  0  0  0  0  0  0
    0.1723   -2.6322    5.6336 C   0  0  0  0  0  0  0  0  0  0  0  0
   -0.9069   -1.3293    2.0490 S   0  0  0  0  0  0  0  0  0  0  0  0
    0.8202   -1.0801    2.2320 C   0  0  0  0  0  0  0  0  0  0  0  0
    1.2903   -1.5196    3.4620 C   0  0  0  0  0  0  0  0  0  0  0  0
    1.5743   -0.4757    1.1984 C   0  0  0  0  0  0  0  0  0  0  0  0
    2.3476    1.1641   -2.2879 C   0  0  0  0  0  0  0  0  0  0  0  0
    0.9462    1.0809   -3.3384 S   0  0  0  0  0  0  0  0  0  0  0  0
    1.8291    1.8746   -4.5747 C   0  0  0  0  0  0  0  0  0  0  0  0
    3.1395    2.1842   -4.1930 C   0  0  0  0  0  0  0  0  0  0  0  0
    3.4272    1.7911   -2.8960 C   0  0  0  0  0  0  0  0  0  0  0  0
    1.6064    2.3125   -5.8967 C   0  0  0  0  0  0  0  0  0  0  0  0
    2.7869    2.9192   -6.3645 C   0  0  0  0  0  0  0  0  0  0  0  0
    3.8672    2.9044   -5.3053 C   0  0  0  0  0  0  0  0  0  0  0  0
    0.3474    2.2647   -7.0535 S   0  0  0  0  0  0  0  0  0  0  0  0
    1.4011    3.0529   -8.2182 C   0  0  0  0  0  0  0  0  0  0  0  0
    2.6676    3.3229   -7.6730 C   0  0  0  0  0  0  0  0  0  0  0  0
    4.2212    4.3233   -4.8157 C   0  0  0  0  0  0  0  0  0  0  0  0
    4.8836    5.2131   -5.8586 C   0  0  0  0  0  0  0  0  0  0  0  0
    5.0759    2.1051   -5.8307 C   0  0  0  0  0  0  0  0  0  0  0  0
    6.2425    1.9860   -4.8591 C   0  0  0  0  0  0  0  0  0  0  0  0
    0.5715   -1.5335    6.6444 C   0  0  0  0  0  0  0  0  0  0  0  0
    0.4408   -1.9264    8.1097 C   0  0  0  0  0  0  0  0  0  0  0  0
    1.0329   -3.8954    5.7953 C   0  0  0  0  0  0  0  0  0  0  0  0
    0.7649   -4.9331    4.7113 C   0  0  0  0  0  0  0  0  0  0  0  0
    0.8214   -0.0333   -0.3232 S   0  0  0  0  0  0  0  0  0  0  0  0
    2.3092    0.6199   -0.9828 C   0  0  0  0  0  0  0  0  0  0  0  0
    3.3162    0.4887   -0.0481 C   0  0  0  0  0  0  0  0  0  0  0  0
    2.9086   -0.1262    1.1633 C   0  0  0  0  0  0  0  0  0  0  0  0
    4.7452    0.8020    0.0597 C   0  0  0  0  0  0  0  0  0  0  0  0
    5.1171    0.3538    1.3196 N   0  0  0  0  0  0  0  0  0  0  0  0
    4.0778   -0.2101    2.0463 C   0  0  0  0  0  0  0  0  0  0  0  0
    6.4584    0.4981    1.8432 C   0  0  0  0  0  0  0  0  0  0  0  0
    6.6217    1.8174    2.5899 C   0  0  0  0  0  0  0  0  0  0  0  0
    4.1984   -0.6634    3.1617 O   0  0  0  0  0  0  0  0  0  0  0  0
    5.5045    1.3238   -0.7252 O   0  0  0  0  0  0  0  0  0  0  0  0
   -3.9676    1.6291  -10.0761 H   0  0  0  0  0  0  0  0  0  0  0  0
   -5.2333    1.8241  -12.2160 H   0  0  0  0  0  0  0  0  0  0  0  0
   -4.1805    2.8567  -14.1767 H   0  0  0  0  0  0  0  0  0  0  0  0
   -1.8893    3.7121  -14.0860 H   0  0  0  0  0  0  0  0  0  0  0  0
    1.9146    3.8632  -10.0591 H   0  0  0  0  0  0  0  0  0  0  0  0
   -3.6566   -4.7842   11.9612 H   0  0  0  0  0  0  0  0  0  0  0  0
   -5.4507   -5.4322   13.5685 H   0  0  0  0  0  0  0  0  0  0  0  0
   -7.7319   -5.8404   12.7623 H   0  0  0  0  0  0  0  0  0  0  0  0
   -8.2971   -5.6365   10.3905 H   0  0  0  0  0  0  0  0  0  0  0  0
   -5.5251   -3.9454    6.0253 H   0  0  0  0  0  0  0  0  0  0  0  0
   -1.9074   -3.8987    7.5619 H   0  0  0  0  0  0  0  0  0  0  0  0
    2.3257   -1.4430    3.7407 H   0  0  0  0  0  0  0  0  0  0  0  0
    4.3599    1.9347   -2.3825 H   0  0  0  0  0  0  0  0  0  0  0  0
    3.4393    3.7874   -8.2608 H   0  0  0  0  0  0  0  0  0  0  0  0
    3.2954    4.7982   -4.4804 H   0  0  0  0  0  0  0  0  0  0  0  0
    4.8729    4.2272   -3.9465 H   0  0  0  0  0  0  0  0  0  0  0  0
    4.2259    5.3705   -6.7087 H   0  0  0  0  0  0  0  0  0  0  0  0
    5.8171    4.7843   -6.2116 H   0  0  0  0  0  0  0  0  0  0  0  0
    5.1029    6.1830   -5.4179 H   0  0  0  0  0  0  0  0  0  0  0  0
    5.4178    2.5757   -6.7538 H   0  0  0  0  0  0  0  0  0  0  0  0
    4.7212    1.1035   -6.0877 H   0  0  0  0  0  0  0  0  0  0  0  0
    6.6616    2.9595   -4.6214 H   0  0  0  0  0  0  0  0  0  0  0  0
    5.9389    1.5029   -3.9355 H   0  0  0  0  0  0  0  0  0  0  0  0
    7.0266    1.3842   -5.3132 H   0  0  0  0  0  0  0  0  0  0  0  0
   -0.0553   -0.6585    6.4531 H   0  0  0  0  0  0  0  0  0  0  0  0
    1.6055   -1.2525    6.4344 H   0  0  0  0  0  0  0  0  0  0  0  0
    1.1015   -2.7519    8.3582 H   0  0  0  0  0  0  0  0  0  0  0  0
   -0.5794   -2.2081    8.3528 H   0  0  0  0  0  0  0  0  0  0  0  0
    0.7151   -1.0778    8.7324 H   0  0  0  0  0  0  0  0  0  0  0  0
    0.8219   -4.3369    6.7693 H   0  0  0  0  0  0  0  0  0  0  0  0
    2.0838   -3.6025    5.7673 H   0  0  0  0  0  0  0  0  0  0  0  0
    1.0066   -4.5388    3.7269 H   0  0  0  0  0  0  0  0  0  0  0  0
   -0.2804   -5.2345    4.7150 H   0  0  0  0  0  0  0  0  0  0  0  0
    1.3752   -5.8160    4.8846 H   0  0  0  0  0  0  0  0  0  0  0  0
    6.6392   -0.3443    2.5150 H   0  0  0  0  0  0  0  0  0  0  0  0
    7.1453    0.4529    0.9949 H   0  0  0  0  0  0  0  0  0  0  0  0
    5.9286    1.8632    3.4268 H   0  0  0  0  0  0  0  0  0  0  0  0
    6.4271    2.6534    1.9220 H   0  0  0  0  0  0  0  0  0  0  0  0
    7.6357    1.9016    2.9700 H   0  0  0  0  0  0  0  0  0  0  0  0
  1  2  2  0  0  0  0
  1  3  1  0  0  0  0
  3  4  2  0  0  0  0
  4  5  1  0  0  0  0
  5  6  2  0  0  0  0
  6  7  1  0  0  0  0
  7  8  2  0  0  0  0
  3  8  1  0  0  0  0
  8  9  1  0  0  0  0
  9 10  2  0  0  0  0
 10 11  1  0  0  0  0
 11 12  3  0  0  0  0
 10 13  1  0  0  0  0
 13 14  3  0  0  0  0
  9 15  1  0  0  0  0
  1 15  1  0  0  0  0
 15 16  2  0  0  0  0
 17 18  2  0  0  0  0
 17 19  1  0  0  0  0
 19 20  2  0  0  0  0
 20 21  1  0  0  0  0
 21 22  2  0  0  0  0
 22 23  1  0  0  0  0
 23 24  2  0  0  0  0
 19 24  1  0  0  0  0
 24 25  1  0  0  0  0
 25 26  2  0  0  0  0
 26 27  1  0  0  0  0
 27 28  3  0  0  0  0
 26 29  1  0  0  0  0
 29 30  3  0  0  0  0
 25 31  1  0  0  0  0
 17 31  1  0  0  0  0
 31 32  2  0  0  0  0
 32 33  1  0  0  0  0
 33 34  1  0  0  0  0
 34 35  1  0  0  0  0
 35 36  2  0  0  0  0
 36 37  1  0  0  0  0
 37 33  2  0  0  0  0
 35 38  1  0  0  0  0
 38 39  2  0  0  0  0
 39 40  1  0  0  0  0
 40 36  1  0  0  0  0
 38 41  1  0  0  0  0
 41 42  1  0  0  0  0
 42 43  2  0  0  0  0
 43 39  1  0  0  0  0
 42 44  1  0  0  0  0
 45 46  1  0  0  0  0
 46 47  1  0  0  0  0
 47 48  2  0  0  0  0
 48 49  1  0  0  0  0
 49 45  2  0  0  0  0
 47 50  1  0  0  0  0
 50 51  2  0  0  0  0
 51 52  1  0  0  0  0
 52 48  1  0  0  0  0
 50 53  1  0  0  0  0
 53 54  1  0  0  0  0
 54 55  2  0  0  0  0
 55 51  1  0  0  0  0
 54 16  1  0  0  0  0
 52 56  1  0  0  0  0
 56 57  1  0  0  0  0
 52 58  1  0  0  0  0
 58 59  1  0  0  0  0
 40 60  1  0  0  0  0
 60 61  1  0  0  0  0
 40 62  1  0  0  0  0
 62 63  1  0  0  0  0
 44 64  1  0  0  0  0
 64 65  1  0  0  0  0
 65 66  2  0  0  0  0
 66 67  1  0  0  0  0
 67 44  2  0  0  0  0
 66 68  1  0  0  0  0
 68 69  1  0  0  0  0
 69 70  1  0  0  0  0
 70 67  1  0  0  0  0
 69 71  1  0  0  0  0
 71 72  1  0  0  0  0
 70 73  2  0  0  0  0
 68 74  2  0  0  0  0
 65 45  1  0  0  0  0
  4 75  1  0  0  0  0
  5 76  1  0  0  0  0
  6 77  1  0  0  0  0
  7 78  1  0  0  0  0
 16 79  1  0  0  0  0
 20 80  1  0  0  0  0
 21 81  1  0  0  0  0
 22 82  1  0  0  0  0
 23 83  1  0  0  0  0
 32 84  1  0  0  0  0
 37 85  1  0  0  0  0
 43 86  1  0  0  0  0
 49 87  1  0  0  0  0
 55 88  1  0  0  0  0
 56 89  1  0  0  0  0
 56 90  1  0  0  0  0
 57 91  1  0  0  0  0
 57 92  1  0  0  0  0
 57 93  1  0  0  0  0
 58 94  1  0  0  0  0
 58 95  1  0  0  0  0
 59 96  1  0  0  0  0
 59 97  1  0  0  0  0
 59 98  1  0  0  0  0
 60 99  1  0  0  0  0
 60100  1  0  0  0  0
 61101  1  0  0  0  0
 61102  1  0  0  0  0
 61103  1  0  0  0  0
 62104  1  0  0  0  0
 62105  1  0  0  0  0
 63106  1  0  0  0  0
 63107  1  0  0  0  0
 63108  1  0  0  0  0
 71109  1  0  0  0  0
 71110  1  0  0  0  0
 72111  1  0  0  0  0
 72112  1  0  0  0  0
 72113  1  0  0  0  0
M  END
