145
TPIC.sdf
C         -2.38630        1.07260        7.06360
C         -3.42690        1.58870        7.79350
C         -3.47090        1.55700        9.24580
C         -4.81060        1.96850        9.66150
C         -5.54110        2.33270        8.51920
C         -4.70770        2.15360        7.31300
C         -5.40900        2.04590       10.90960
C         -6.72270        2.48980       10.98840
C         -7.43480        2.85430        9.85490
C         -6.84600        2.77750        8.60080
O         -5.04930        2.42380        6.17890
C         -2.44200        1.26520       10.10380
C         -1.11260        0.95840        9.74290
C         -2.55850        1.27140       11.51010
N         -0.00490        0.71910        9.55250
N         -2.57640        1.24790       12.65800
C         -2.14910        1.01720        5.68090
S         -0.69910        0.13200        5.18230
C         -1.03610        0.47660        3.54590
C         -2.19240        1.24000        3.38840
C         -2.82280        1.54240        4.58130
C          4.27600       -2.27740       -8.14850
C          3.89590       -1.99950       -9.43850
C          4.57200       -2.45380      -10.63560
C          3.83890       -1.91630      -11.78320
C          2.74900       -1.16360      -11.31220
C          2.73980       -1.18870       -9.83730
C          4.04750       -2.03450      -13.14810
C          3.16400       -1.39930      -14.01200
C          2.09150       -0.65870      -13.53780
C          1.87280       -0.53320      -12.17270
O          1.92990       -0.64000       -9.11160
C          5.68650       -3.25030      -10.71650
C          6.28420       -3.65860      -11.92710
C          6.40070       -3.78800       -9.62640
N          6.82370       -4.03400      -12.86900
N          7.04220       -4.26170       -8.79840
C         -0.44780        0.18250        2.27970
C         -1.27390        0.77110        1.29310
C         -2.45740        1.48390        1.92480
C          0.70080       -0.53490        1.94970
C          1.00700       -0.65160        0.61550
C          0.19260       -0.04590       -0.36840
C         -0.95260        0.67460       -0.04050
C          2.16340       -1.41090       -0.02970
C          1.93610       -1.09110       -1.49240
C          0.78600       -0.32740       -1.63540
C          2.51600       -1.35980       -2.73750
C          1.75460       -0.79920       -3.80030
S          0.35930        0.07530       -3.26290
N          3.60130       -2.01370       -3.25860
C          3.52520       -1.90410       -4.62410
C          2.38270       -1.14400       -4.99280
C          4.25910       -2.33500       -5.71120
C          3.69730       -1.92020       -6.92500
S          2.22990       -0.96450       -6.69710
C         -2.40370        2.94680        1.52530
C          4.65150       -2.70600       -2.55620
C          4.35830       -4.19700       -2.40590
C         -3.80080        0.85800        1.59300
C          1.94160       -2.87830        0.29250
C          3.50680       -0.86100        0.41370
C         -3.90490       -0.39640        1.01100
C         -5.14850       -0.95280        0.76900
C         -6.31250       -0.28030        1.11260
C         -6.20080        0.97090        1.70660
C         -4.96300        1.53280        1.94830
C         -1.71220        3.87430        2.29130
C         -1.63680        5.19620        1.89260
C         -2.24150        5.62380        0.71860
C         -2.91960        4.68810       -0.05220
C         -3.00010        3.36650        0.34290
C          3.66570        0.51790        0.49840
C          4.88250        1.06840        0.85100
C          5.98000        0.26070        1.12120
C          5.82020       -1.11480        1.03060
C          4.60320       -1.67190        0.67790
C          1.32990       -3.73100       -0.61720
C          1.08250       -5.05310       -0.29140
C          1.43240       -5.56080        0.95140
C          2.02320       -4.70030        1.86800
C          2.26940       -3.37910        1.54810
C         -7.65990       -0.86810        0.80670
C         -8.12680       -0.43610       -0.58490
C         -2.12160        7.05040        0.26620
C         -0.88480        7.22790       -0.61700
C          1.12690       -6.98380        1.31780
C         -0.25510       -7.08150        1.96720
C          7.29020        0.85570        1.54790
C          7.35480        0.96620        3.07270
H         -1.60150        0.59740        7.64110
H         -4.88340        1.76660       11.80770
H         -7.19690        2.55100       11.95650
H         -8.45390        3.19780        9.95110
H         -7.38000        3.05300        7.70430
H         -3.72750        2.11170        4.68310
H          5.16960       -2.87820       -8.02910
H          4.87150       -2.60250      -13.54760
H          3.32000       -1.48720      -15.07680
H          1.42330       -0.17740      -14.23610
H          1.04540        0.03770      -11.77990
H          1.31140       -0.97070        2.72440
H         -1.55810        1.12790       -0.80990
H          5.15550       -2.92770       -5.67180
H          4.77270       -2.24020       -1.57650
H          5.57670       -2.56580       -3.12300
H          3.46480       -4.35150       -1.80550
H          5.19530       -4.68810       -1.91750
H          4.20750       -4.65350       -3.38140
H         -3.01440       -0.94620        0.74280
H         -5.21210       -1.92960        0.31040
H         -7.09390        1.50920        1.98930
H         -4.89590        2.50570        2.41210
H         -1.23270        3.56710        3.20940
H         -1.10190        5.90680        2.50660
H         -3.39480        4.99890       -0.97170
H         -3.54350        2.65750       -0.26480
H          2.82640        1.16500        0.28680
H          4.98230        2.14250        0.91350
H          6.65990       -1.76420        1.23380
H          4.51290       -2.74730        0.62210
H          1.03590       -3.36560       -1.59030
H          0.61130       -5.69870       -1.01900
H          2.29440       -5.06910        2.84690
H          2.73040       -2.73510        2.28190
H         -7.60650       -1.95800        0.84610
H         -8.38650       -0.53410        1.54990
H         -7.42000       -0.77010       -1.34130
H         -8.19900        0.64790       -0.63950
H         -9.10240       -0.86130       -0.80880
H         -2.04190        7.70870        1.13350
H         -3.01100        7.33580       -0.29920
H          0.01440        6.96050       -0.06630
H         -0.95100        6.58770       -1.49380
H         -0.79680        8.26070       -0.94610
H          1.14960       -7.60990        0.42350
H          1.87930       -7.35640        2.01580
H         -0.29420       -6.47240        2.86750
H         -1.02120       -6.72640        1.28150
H         -0.47770       -8.11170        2.23430
H          7.40560        1.84900        1.10980
H          8.11310        0.22920        1.19770
H          8.30310        1.39880        3.38230
H          7.25600       -0.01660        3.52830
H          6.54830        1.59620        3.44100
