126
TPQ-Cl.sdf
C          8.97090        2.14270        2.36600
O          8.29840        1.21800        1.96210
C         10.44790        2.19620        2.42780
C         11.35430        1.20400        2.11630
C         12.70920        1.48620        2.24150
Cl        13.86870        0.27570        1.87110
C         13.12990        2.75140        2.66660
Cl        14.80750        3.08850        2.81010
C         12.21260        3.75030        2.97500
C         10.86160        3.46970        2.85530
C          9.67900        4.28890        3.10370
C          9.67110        5.55370        3.63020
C          8.50330        6.27690        3.95390
N          7.59580        6.90930        4.26180
C         10.83460        6.28630        3.94570
N         11.74470        6.93230        4.21350
C          8.51600        3.48860        2.77960
C          7.23690        3.95420        2.62700
C          6.07360        3.17460        2.46640
S          4.80820        3.85530        1.43980
C          3.84480        2.44820        1.66620
C          4.45150        1.54620        2.55400
C          5.70860        1.95180        3.02350
C          6.48620        1.23580        4.07480
C          5.62760        0.83150        5.27160
S          3.49860        0.10000        2.80220
C          2.30880        0.71190        1.71320
C          2.61990        1.97350        1.19060
N          1.62340        2.38950        0.33980
C          1.91290        3.32480       -0.72900
C          3.00950        2.78840       -1.64860
C          0.66650        1.39460        0.32480
C          1.08860        0.31300        1.14150
C          0.37750       -0.91190        1.20220
N          0.71650       -1.87990        2.04700
C          0.08980       -3.04100        1.98040
C          0.37290       -3.98320        3.06680
C         -0.82840       -3.29410        0.92210
C         -1.31270       -4.62850        0.55730
N         -1.26510       -2.29700        0.17330
C         -0.73430       -1.08890        0.33010
C         -1.23720        0.04760       -0.35250
C         -0.60380        1.31640       -0.28010
N         -1.39060        2.26490       -0.90170
C         -1.46430        3.67540       -0.57660
C         -2.56850        3.94860        0.44410
C         -2.48850        1.60790       -1.40400
C         -2.41050        0.24260       -1.10110
S         -3.74750       -0.67500       -1.69070
C         -4.44780        0.78890       -2.34470
C         -3.65310        1.92130       -2.10950
S         -4.37360        3.34310       -2.75740
C         -5.79420        2.41830       -3.25190
C         -5.65740        1.05580       -3.00120
C         -6.60290        0.00780       -3.48130
C         -5.89600       -1.12760       -4.21930
C         -6.83730        3.14520       -3.86150
C         -8.17830        2.89010       -3.75020
C         -9.23430        3.53800       -4.50090
C         -9.08330        4.25470       -5.65880
C         -7.85050        4.46360       -6.31310
N         -6.88460        4.64890       -6.90530
C        -10.14970        4.85070       -6.36410
N        -10.97510        5.36300       -6.97500
C        -10.50130        3.20960       -3.85410
C        -11.80260        3.58610       -4.14240
C        -12.82950        3.10160       -3.33920
Cl       -14.44660        3.56290       -3.68680
C        -12.56620        2.25230       -2.25860
Cl       -13.85840        1.66900       -1.29040
C        -11.26080        1.87810       -1.96380
C        -10.24590        2.35760       -2.76560
C         -8.79170        2.11220       -2.65070
O         -8.23260        1.48690       -1.77510
C          1.64540       -3.99720        3.63660
C          1.93430       -4.84850        4.68390
C          0.94430       -5.69140        5.17320
C         -0.33520       -5.66880        4.63100
C         -0.61860       -4.81720        3.58230
C         -0.49330       -5.75200        0.65970
C         -0.96300       -6.99280        0.27810
C         -2.25800       -7.11810       -0.21000
C         -3.07570       -6.00230       -0.33990
C         -2.60060       -4.76350        0.04040
C         -2.75790       -8.46310       -0.65310
F         -2.20440       -9.47670        0.02930
F         -4.08690       -8.59420       -0.52120
F         -2.48770       -8.69710       -1.95400
F          0.92410       -6.01920        7.51390
F          2.53150       -6.93700        6.42060
C          1.23670       -6.59660        6.33530
F          0.54210       -7.74380        6.28870
H         11.01730        0.23390        1.78700
H         12.57210        4.71520        3.29290
H          7.08880        5.02540        2.55190
H          7.29980        1.87890        4.41540
H          6.93740        0.34650        3.62510
H          5.12640        1.70100        5.69150
H          6.26050        0.39500        6.03980
H          4.87690        0.09800        4.99200
H          2.22930        4.27380       -0.28500
H          1.01390        3.48010       -1.32250
H          3.17730        3.49060       -2.46010
H          3.94330        2.65610       -1.10970
H          2.71090        1.83110       -2.07060
H         -1.66010        4.23420       -1.49700
H         -0.51600        3.99540       -0.14950
H         -3.54440        3.68600        0.04600
H         -2.57360        5.00470        0.69820
H         -2.39370        3.37170        1.34980
H         -7.33730        0.46750       -4.14500
H         -7.14390       -0.39100       -2.61820
H         -5.30150       -0.73470       -5.04130
H         -6.63650       -1.81090       -4.62640
H         -5.24460       -1.68770       -3.55480
H         -6.52760        4.02700       -4.41070
H        -12.04150        4.24350       -4.96230
H        -11.04400        1.22690       -1.13180
H          2.39690       -3.32870        3.24720
H          2.92050       -4.86430        5.12180
H         -1.10060       -6.31550        5.03140
H         -1.61740       -4.78630        3.17470
H          0.51860       -5.65240        1.02130
H         -0.33080       -7.86360        0.35730
H         -4.07460       -6.10950       -0.73380
H         -3.21570       -3.88320       -0.05950
