126
TPQ-F.sdf
C          1.08170       -4.55960        7.26740
O          1.08120       -4.59250        6.04910
C          1.62570       -5.60050        8.16350
C          2.24910       -6.78450        7.82410
C          2.68180       -7.60100        8.85650
F          3.29400       -8.75710        8.57460
C          2.48590       -7.22820       10.18650
F          2.91420       -8.03490       11.16310
C          1.85770       -6.03870       10.52610
C          1.42340       -5.21540        9.49940
C          0.74560       -3.91730        9.51770
C          0.37660       -3.23950       10.65100
C          0.60170       -3.71060       11.96250
N          0.75470       -4.03410       13.05270
C         -0.27580       -1.98930       10.68990
N         -0.80390       -0.97540       10.80590
C          0.55160       -3.51270        8.13980
C         -0.02160       -2.32960        7.73340
C         -0.24140       -1.80660        6.45770
S          0.15530       -2.62450        4.94420
C         -0.41520       -1.26870        4.04930
C         -0.88180       -0.24000        4.88890
C         -0.80170       -0.53270        6.24210
C         -1.20290        0.43600        7.30540
C          0.00740        1.23320        7.80070
S         -1.43990        1.17780        4.01970
C         -1.03970        0.38590        2.53730
C         -0.52200       -0.90480        2.70460
N         -0.20390       -1.43890        1.48430
C          0.58360       -2.64890        1.41620
C         -0.27190       -3.90160        1.59530
C         -0.51590       -0.50770        0.51850
C         -1.01110        0.66450        1.16480
C         -1.28960        1.87500        0.48240
N         -1.82770        2.92180        1.10150
C         -1.96770        4.05380        0.43330
C         -2.71890        5.11010        1.11930
C         -1.43480        4.18240       -0.87970
C         -1.27400        5.46110       -1.57970
N         -1.00990        3.11450       -1.53310
C         -0.97490        1.94690       -0.89820
C         -0.60340        0.74990       -1.56000
C         -0.43860       -0.50090       -0.89610
N         -0.17010       -1.47270       -1.84300
C         -0.41490       -2.89920       -1.79890
C         -1.91420       -3.19040       -1.80430
C         -0.14700       -0.85740       -3.06930
C         -0.38980        0.51340       -2.92470
S         -0.37770        1.38990       -4.41300
C         -0.04140       -0.11180       -5.25490
C          0.04980       -1.22760       -4.40240
S          0.39180       -2.67630       -5.26730
C          0.41410       -1.77670       -6.78670
C          0.15180       -0.40650       -6.59660
C          0.14050        0.63750       -7.66420
C          1.56050        1.13000       -7.95880
C          0.67290       -2.33020       -8.04210
C          0.98850       -3.61620       -8.41600
C          1.26100       -4.04950       -9.77170
C          1.21370       -3.29840      -10.91780
C          0.88170       -1.92940      -10.99460
N          0.62240       -0.81960      -11.14060
C          1.49040       -3.80430      -12.20620
N          1.70470       -4.15120      -13.27890
C          1.59890       -5.47340       -9.71490
C          1.95770       -6.37250      -10.70660
C          2.22660       -7.68150      -10.33360
F          2.57650       -8.56330      -11.27600
C          2.14200       -8.09830       -9.00500
F          2.41030       -9.37110       -8.69030
C          1.78370       -7.20600       -8.00740
C          1.51820       -5.90350       -8.37980
C          1.12530       -4.76610       -7.52290
O          0.95180       -4.80510       -6.31740
C         -2.59900        5.23450        2.50240
C         -3.30600        6.20570        3.18270
C         -4.14700        7.05730        2.47840
C         -4.29880        6.92380        1.10300
C         -3.58760        5.95310        0.42720
C         -0.91990        6.62510       -0.89900
C         -0.74540        7.80850       -1.58820
C         -0.92300        7.83510       -2.96610
C         -1.24890        6.67590       -3.65920
C         -1.41980        5.49480       -2.96580
C         -0.70570        9.11590       -3.71980
F         -0.98360       10.20560       -2.98890
F          0.57460        9.25210       -4.12230
F         -1.45440        9.19910       -4.83050
F         -5.02120        9.25750        2.51260
F         -6.21790        7.71400        3.41030
C         -4.94490        8.10580        3.19950
F         -4.44400        8.41270        4.40440
H          2.39840       -7.06820        6.79460
H          1.73230       -5.79880       11.56910
H         -0.35120       -1.67160        8.52540
H         -1.93300        1.12660        6.87890
H         -1.66880       -0.07590        8.14850
H          0.46040        1.78330        6.97930
H          0.75570        0.57170        8.23070
H         -0.30620        1.93900        8.56410
H          1.14100       -2.65490        0.47860
H          1.31320       -2.60990        2.23220
H         -1.09990       -3.92500        0.89190
H         -0.67750       -3.92990        2.60290
H          0.34020       -4.78740        1.45220
H          0.04670       -3.32660       -2.69250
H          0.05100       -3.35180       -0.92980
H         -2.39600       -2.74040       -0.93820
H         -2.37450       -2.78530       -2.70230
H         -2.08190       -4.26340       -1.78470
H         -0.30870        0.25690       -8.58250
H         -0.46070        1.47820       -7.31230
H          2.00830        1.55290       -7.06260
H          1.53070        1.89490       -8.72910
H          2.18750        0.31350       -8.30890
H          0.62660       -1.60640       -8.84400
H          2.03850       -6.10360      -11.74690
H          1.71730       -7.52290       -6.97890
H         -1.94660        4.55750        3.03110
H         -3.20730        6.30730        4.25240
H         -4.97040        7.57960        0.57060
H         -3.71920        5.83840       -0.63780
H         -0.76320        6.60150        0.16850
H         -0.47330        8.71090       -1.06290
H         -1.36860        6.70500       -4.73130
H         -1.66430        4.58200       -3.48570
