126
TPQx-4F.sdf
C         -1.45400        5.27560        7.35450
O         -1.67080        5.16050        6.16080
C         -1.66390        6.49780        8.15940
C         -2.11680        7.73300        7.74210
C         -2.22230        8.73350        8.69510
F         -2.65520        9.94840        8.33540
C         -1.88010        8.48680       10.02420
F         -1.98870        9.47180       10.92330
C         -1.42720        7.24380       10.44280
C         -1.31910        6.23780        9.49610
C         -0.88070        4.84440        9.60580
C         -0.49160        4.23380       10.77130
C         -0.45890        4.87570       12.02730
N         -0.40600        5.33620       13.07730
C         -0.07590        2.89260       10.90270
N          0.27380        1.81500       11.09620
C         -0.94880        4.26500        8.28130
C         -0.57840        2.97760        7.95920
C         -0.56590        2.30480        6.73840
S         -1.09780        2.98600        5.19750
C         -0.68360        1.52080        4.39190
C         -0.16240        0.56020        5.28090
C         -0.09950        0.98230        6.59910
C          0.46220        0.13560        7.69350
C          1.94570        0.44580        7.91310
S          0.29110       -0.94540        4.50270
C         -0.21770       -0.27700        2.99400
C         -0.70970        1.03100        3.08440
N         -1.07510        1.47810        1.84240
C         -1.87540        2.67670        1.72990
C         -3.34170        2.34300        1.46430
C         -0.83410        0.45960        0.93580
C         -0.30580       -0.65770        1.65130
C          0.03290       -1.89910        1.05600
N          0.64650       -2.85770        1.74820
C          0.90600       -4.00550        1.14240
C          1.75840       -4.90670        1.88160
C          0.41150       -4.24890       -0.17810
C          0.38190       -5.54570       -0.80340
N         -0.08720       -3.25680       -0.89740
C         -0.24070       -2.06760       -0.31870
C         -0.69560       -0.94120       -1.04830
C         -0.95620        0.33850       -0.47110
N         -1.30650        1.20750       -1.49020
C         -1.38130        2.65040       -1.52290
C         -0.01610        3.28430       -1.26550
C         -1.26620        0.51180       -2.66930
C         -0.91580       -0.82210       -2.42430
S         -0.83480       -1.80550       -3.84080
C         -1.26430       -0.39690       -4.79460
C         -1.46070        0.76900       -4.02790
S         -1.84660        2.12990       -5.01130
C         -1.75410        1.12500       -6.46130
C         -1.43570       -0.21380       -6.15740
C         -1.22960       -1.30810       -7.15230
C          0.19430       -1.26810       -7.71480
C         -1.96240        1.57590       -7.76350
C         -2.23630        2.83360       -8.25520
C         -2.41900        3.15890       -9.65340
C         -2.42160        2.29900      -10.72270
C         -2.61540        2.70250      -12.06070
N         -2.76480        2.96250      -13.16870
C         -2.24420        0.90130      -10.65910
N         -2.10960       -0.23940      -10.69400
C         -2.62460        4.60650       -9.74190
C         -2.82260        5.44130      -10.83000
C         -2.98770        6.79780      -10.58920
F         -3.17700        7.62040      -11.62740
C         -2.96010        7.32230       -9.29750
F         -3.12430        8.63820       -9.11140
C         -2.76220        6.49440       -8.20400
C         -2.59550        5.14570       -8.44510
C         -2.36270        4.05920       -7.46970
O         -2.29480        4.18820       -6.25970
C          1.90890       -4.93480        3.24240
C          2.89980       -5.83600        3.67010
C          3.52660       -6.47780        2.64380
S          2.88240       -5.98720        1.11190
S          0.39020       -5.62480       -2.53790
C          0.23810       -7.34760       -2.49940
C          0.15940       -7.80900       -1.21750
C          0.23560       -6.79120       -0.25200
C          0.24450       -8.13870       -3.76170
C          1.63570       -8.15060       -4.39880
C          4.65520       -7.44770        2.70790
C          5.96650       -6.79620        2.26250
H         -2.37930        7.91910        6.71300
H         -1.17620        7.10690       11.48160
H         -0.21800        2.37540        8.78160
H          0.35790       -0.91100        7.40100
H         -0.08180        0.28600        8.62690
H          2.33940       -0.18510        8.70470
H          2.50970        0.25890        7.00240
H          2.08390        1.48530        8.20080
H         -1.46760        3.33890        0.96720
H         -1.79300        3.19770        2.68690
H         -3.74970        1.77640        2.29800
H         -3.91660        3.25840        1.35590
H         -3.45330        1.74540        0.56190
H         -1.71940        2.92280       -2.52570
H         -2.13290        3.00940       -0.82090
H         -0.10380        4.36720       -1.26670
H          0.67970        2.99430       -2.04930
H          0.39510        2.96250       -0.31100
H         -1.38410       -2.26240       -6.64520
H         -1.94570       -1.23550       -7.97210
H          0.32870       -2.07240       -8.43220
H          0.38430       -0.32260       -8.21750
H          0.92000       -1.38820       -6.91390
H         -1.87910        0.79260       -8.50420
H         -2.85220        5.08840      -11.84760
H         -2.73910        6.89530       -7.20330
H          1.31210       -4.32630        3.89680
H          3.14490       -6.00310        4.70410
H          0.04750       -8.85030       -0.97160
H          0.15890       -6.96640        0.80640
H         -0.06760       -9.16120       -3.53940
H         -0.46790       -7.70810       -4.46920
H          2.36090       -8.58510       -3.71480
H          1.94800       -7.13630       -4.63510
H          1.62630       -8.73590       -5.31480
H          4.75290       -7.80760        3.73410
H          4.44380       -8.30280        2.06150
H          6.78240       -7.51190        2.32070
H          6.20150       -5.94650        2.89950
H          5.88200       -6.44590        1.23640
