132
TSeTIC.sdf
C          0.76050       -2.85030        7.51430
O          0.61600       -2.43260        6.25620
C          1.94410       -2.64770        8.30840
C          1.67340       -3.21590        9.60310
C          0.32590       -3.76640        9.59110
C         -0.29140       -4.41370       10.63030
C          0.36110       -4.60030       11.86440
N          0.88950       -4.74990       12.87210
C         -1.59810       -4.93190       10.55980
N         -2.66690       -5.34970       10.52790
C         -0.19730       -3.50020        8.27260
C         -1.46870       -3.84790        7.66830
C         -1.64350       -3.36920        6.27930
C         -0.57350       -2.61010        5.64000
C         -0.74820       -2.08800        4.39490
C         -1.84930       -2.17130        3.56580
Se        -1.35880       -5.35840        6.32630
C         -1.55950       -1.57890        2.35770
C         -2.29610       -1.42490        1.05210
C         -3.53270       -0.54830        1.15120
C         -3.62160        0.44500        2.11610
C         -4.72790        1.27170        2.17130
C         -5.76630        1.13640        1.25950
C         -6.98750        2.00520        1.35260
C         -8.01410        1.38260        2.30090
C         -5.66730        0.14730        0.28990
C         -4.56380       -0.68280        0.23120
C         -2.64350       -2.81780        0.55960
C         -3.60460       -3.53690        1.26160
C         -3.93440       -4.82150        0.88060
C         -3.31150       -5.42520       -0.20580
C         -3.70940       -6.80430       -0.64670
C         -4.90110       -6.73560       -1.60390
C         -2.34660       -4.70610       -0.89520
C         -2.00820       -3.41830       -0.51560
C         -1.27340       -0.69250        0.21120
C         -0.09010       -0.44850        0.94870
C         -0.26510       -1.00990        2.24430
S          0.71260       -1.13880        3.61790
C          1.00020        0.22660        0.39610
C          0.89080        0.63380       -0.90980
C          1.91130        1.37780       -1.75410
C          3.19060        0.60960       -2.02860
C          4.27250        1.28570       -2.58160
C          5.43200        0.60920       -2.90590
C          5.54020       -0.75950       -2.69170
C          6.81880       -1.48360       -2.99840
C          7.76090       -1.43490       -1.79370
C          4.45450       -1.43000       -2.14550
C          3.28830       -0.75840       -1.82340
C          2.19720        2.71740       -1.09880
C          3.14950        2.80120       -0.09060
C          3.40030        4.00540        0.53800
C          2.70980        5.15600        0.17860
C          2.95690        6.45400        0.89100
C          2.05700        6.56560        2.12350
C          1.75320        5.06420       -0.82260
C          1.49550        3.86040       -1.45290
C          1.16820        1.49420       -3.05720
C         -0.08860        0.91890       -2.95880
C         -0.29760        0.39410       -1.64650
C         -1.39350       -0.25850       -1.08960
S         -1.00150        0.96790       -4.42500
C          0.33330        1.76930       -5.21000
C          1.42660        1.97590       -4.33680
Se         2.82710        2.81960       -5.20810
C          1.71600        2.79850       -6.76830
C          0.48610        2.21010       -6.51650
C          2.27910        3.34400       -7.93530
C          1.81380        3.48160       -9.21800
C          2.61990        4.07240      -10.27880
C          3.89750        4.56970      -10.22110
C          4.74310        4.62360       -9.09640
N          5.49690        4.70260       -8.23220
C          4.51930        5.10610      -11.36820
N          5.04420        5.54780      -12.28830
C          1.82260        4.04950      -11.48890
C          0.55160        3.46220      -11.19640
C          0.49330        3.08930       -9.77710
O         -0.44900        2.57500       -9.21060
C          3.18640       -2.10930        8.20690
S          4.04680       -2.28660        9.69470
C          2.72100       -3.09300       10.45730
C         -0.26930        3.39240      -12.27410
S          0.50290        4.04740      -13.67060
C          1.94190        4.41710      -12.79430
H         -2.34200       -3.94730        8.30120
H         -2.63320       -3.13320        5.90530
H         -2.82410        0.57010        2.83440
H         -4.78340        2.03700        2.93270
H         -7.43550        2.12220        0.36380
H         -6.71060        2.99490        1.72190
H         -8.31070        0.39900        1.94350
H         -8.89980        2.01000        2.36880
H         -7.59000        1.27040        3.29620
H         -6.46320        0.02660       -0.43140
H         -4.50890       -1.44890       -0.52890
H         -4.08490       -3.08060        2.11380
H         -4.68180       -5.36830        1.43730
H         -3.98130       -7.40560        0.22320
H         -2.87080       -7.29010       -1.14960
H         -5.75070       -6.26290       -1.11620
H         -5.19350       -7.73390       -1.92110
H         -4.64470       -6.15190       -2.48540
H         -1.84490       -5.15860       -1.73920
H         -1.24450       -2.88700       -1.06540
H          1.88920        0.40420        0.98120
H          4.21060        2.35600       -2.73990
H          6.26240        1.15110       -3.33450
H          7.30900       -1.02040       -3.85680
H          6.60500       -2.52510       -3.24640
H          7.29440       -1.90250       -0.92930
H          8.68760       -1.95920       -2.01440
H          7.99700       -0.40400       -1.53950
H          4.51680       -2.49530       -1.97440
H          2.45370       -1.30500       -1.40890
H          3.70990        1.92180        0.19200
H          4.14860        4.05410        1.31620
H          2.75240        7.28990        0.21930
H          4.00180        6.51280        1.20200
H          2.25610        5.74810        2.81290
H          1.00980        6.51930        1.83270
H          2.23340        7.50640        2.63940
H          1.20290        5.94620       -1.11770
H          0.74290        3.81730       -2.22710
H         -2.29270       -0.42140       -1.66380
H         -0.26910        2.10810       -7.27610
H          3.28510        3.71890       -7.77300
H          3.65100       -1.62810        7.37010
H          2.81370       -3.41490       11.47530
H         -1.26560        3.00370      -12.34060
H          2.76410        4.87560      -13.30580
