TTIDIC.mol
  xtb     01102219003D
 energy: -258.040102702355 gnorm: 0.000378554095 xtb: 6.4.1 (unknown)
152167  0     0  0            999 V2000
  -10.9563   -2.7157    8.0701 O   0  0  0  0  0  0  0  0  0  0  0  0
  -11.1470   -3.3015    9.1206 C   0  0  0  0  0  0  0  0  0  0  0  0
  -12.0538   -2.8637   10.2041 C   0  0  0  0  0  0  0  0  0  0  0  0
  -12.8437   -1.7333   10.2565 C   0  0  0  0  0  0  0  0  0  0  0  0
  -13.6114   -1.5390   11.3937 C   0  0  0  0  0  0  0  0  0  0  0  0
  -14.3929   -0.4554   11.4893 F   0  0  0  0  0  0  0  0  0  0  0  0
  -13.5767   -2.4608   12.4392 C   0  0  0  0  0  0  0  0  0  0  0  0
  -14.3275   -2.2482   13.5268 F   0  0  0  0  0  0  0  0  0  0  0  0
  -12.7823   -3.5972   12.3847 C   0  0  0  0  0  0  0  0  0  0  0  0
  -12.0117   -3.7990   11.2509 C   0  0  0  0  0  0  0  0  0  0  0  0
  -11.0811   -4.8706   10.8866 C   0  0  0  0  0  0  0  0  0  0  0  0
  -10.7825   -5.9509   11.6778 C   0  0  0  0  0  0  0  0  0  0  0  0
  -11.3442   -6.1769   12.9522 C   0  0  0  0  0  0  0  0  0  0  0  0
  -11.7628   -6.4211   13.9927 N   0  0  0  0  0  0  0  0  0  0  0  0
   -9.8824   -6.9885   11.3582 C   0  0  0  0  0  0  0  0  0  0  0  0
   -9.1662   -7.8704   11.1852 N   0  0  0  0  0  0  0  0  0  0  0  0
  -10.5524   -4.5578    9.5767 C   0  0  0  0  0  0  0  0  0  0  0  0
   -9.6353   -5.3157    8.8817 C   0  0  0  0  0  0  0  0  0  0  0  0
   -9.0179   -5.0980    7.6496 C   0  0  0  0  0  0  0  0  0  0  0  0
   -9.2669   -3.7264    6.5741 S   0  0  0  0  0  0  0  0  0  0  0  0
   -8.0479   -5.9799    7.1382 C   0  0  0  0  0  0  0  0  0  0  0  0
   -7.5251   -5.5568    5.9402 C   0  0  0  0  0  0  0  0  0  0  0  0
   -8.0868   -4.3494    5.5110 C   0  0  0  0  0  0  0  0  0  0  0  0
   -7.4927   -3.9433    4.2810 C   0  0  0  0  0  0  0  0  0  0  0  0
   -7.7421   -2.8233    3.4876 C   0  0  0  0  0  0  0  0  0  0  0  0
   -6.9848   -2.6722    2.3528 C   0  0  0  0  0  0  0  0  0  0  0  0
   -6.0202   -3.6468    1.9998 C   0  0  0  0  0  0  0  0  0  0  0  0
   -5.3543   -3.1602    0.8350 C   0  0  0  0  0  0  0  0  0  0  0  0
   -3.9886   -3.6342   -0.0959 S   0  0  0  0  0  0  0  0  0  0  0  0
   -4.0671   -2.1252   -0.9823 C   0  0  0  0  0  0  0  0  0  0  0  0
   -3.0352   -1.7765   -1.8920 C   0  0  0  0  0  0  0  0  0  0  0  0
   -1.9318   -2.5202   -2.2452 C   0  0  0  0  0  0  0  0  0  0  0  0
   -1.0376   -1.7812   -3.0230 C   0  0  0  0  0  0  0  0  0  0  0  0
    0.5397   -2.0729   -3.6667 S   0  0  0  0  0  0  0  0  0  0  0  0
    0.6444   -0.4066   -4.2208 C   0  0  0  0  0  0  0  0  0  0  0  0
    1.8694    0.0903   -4.7373 C   0  0  0  0  0  0  0  0  0  0  0  0
    3.0461   -0.6053   -4.9436 C   0  0  0  0  0  0  0  0  0  0  0  0
    4.0960    0.2353   -5.3057 C   0  0  0  0  0  0  0  0  0  0  0  0
    3.7251    1.5665   -5.3755 C   0  0  0  0  0  0  0  0  0  0  0  0
    2.0599    1.8084   -5.0254 S   0  0  0  0  0  0  0  0  0  0  0  0
    4.8509    2.3958   -5.6556 C   0  0  0  0  0  0  0  0  0  0  0  0
    5.9776    1.5407   -5.7611 C   0  0  0  0  0  0  0  0  0  0  0  0
    7.2180    2.0668   -6.0309 C   0  0  0  0  0  0  0  0  0  0  0  0
    7.3230    3.4552   -6.1280 C   0  0  0  0  0  0  0  0  0  0  0  0
    8.4693    4.2894   -6.2813 C   0  0  0  0  0  0  0  0  0  0  0  0
   10.1576    4.0509   -6.3504 S   0  0  0  0  0  0  0  0  0  0  0  0
   10.4007    5.7942   -6.3517 C   0  0  0  0  0  0  0  0  0  0  0  0
   11.6214    6.4697   -6.3486 C   0  0  0  0  0  0  0  0  0  0  0  0
   12.9145    5.9952   -6.3201 C   0  0  0  0  0  0  0  0  0  0  0  0
   13.3095    4.5871   -6.2972 C   0  0  0  0  0  0  0  0  0  0  0  0
   14.7861    4.5809   -6.2072 C   0  0  0  0  0  0  0  0  0  0  0  0
   15.6366    3.4962   -6.1392 C   0  0  0  0  0  0  0  0  0  0  0  0
   16.9958    3.7511   -6.0504 C   0  0  0  0  0  0  0  0  0  0  0  0
   17.8590    2.7292   -5.9798 F   0  0  0  0  0  0  0  0  0  0  0  0
   17.4726    5.0611   -6.0324 C   0  0  0  0  0  0  0  0  0  0  0  0
   18.7903    5.2788   -5.9437 F   0  0  0  0  0  0  0  0  0  0  0  0
   16.6164    6.1507   -6.1025 C   0  0  0  0  0  0  0  0  0  0  0  0
   15.2556    5.9045   -6.1909 C   0  0  0  0  0  0  0  0  0  0  0  0
   14.1079    6.8115   -6.2724 C   0  0  0  0  0  0  0  0  0  0  0  0
   14.1915    8.1808   -6.2980 C   0  0  0  0  0  0  0  0  0  0  0  0
   13.1045    9.0751   -6.3849 C   0  0  0  0  0  0  0  0  0  0  0  0
   12.2818    9.8744   -6.4548 N   0  0  0  0  0  0  0  0  0  0  0  0
   15.4039    8.9000   -6.2436 C   0  0  0  0  0  0  0  0  0  0  0  0
   16.3523    9.5456   -6.2008 N   0  0  0  0  0  0  0  0  0  0  0  0
   12.5927    3.6035   -6.3409 O   0  0  0  0  0  0  0  0  0  0  0  0
    9.1739    6.4824   -6.3137 C   0  0  0  0  0  0  0  0  0  0  0  0
    8.0901    5.6384   -6.2758 C   0  0  0  0  0  0  0  0  0  0  0  0
    6.5942    5.7621   -6.1711 C   0  0  0  0  0  0  0  0  0  0  0  0
    6.1701    6.6093   -4.9615 C   0  0  0  0  0  0  0  0  0  0  0  0
    6.6725    6.0372   -3.6408 C   0  0  0  0  0  0  0  0  0  0  0  0
    5.9696    6.2858   -7.4838 C   0  0  0  0  0  0  0  0  0  0  0  0
    6.4232    7.6790   -7.8985 C   0  0  0  0  0  0  0  0  0  0  0  0
    6.1978    4.3046   -6.0138 C   0  0  0  0  0  0  0  0  0  0  0  0
    4.9471    3.7781   -5.7939 C   0  0  0  0  0  0  0  0  0  0  0  0
    5.5791    0.0930   -5.5316 C   0  0  0  0  0  0  0  0  0  0  0  0
    6.1771   -0.4859   -4.2277 C   0  0  0  0  0  0  0  0  0  0  0  0
    7.6950   -0.5900   -4.1699 C   0  0  0  0  0  0  0  0  0  0  0  0
    5.9006   -0.7909   -6.7465 C   0  0  0  0  0  0  0  0  0  0  0  0
    5.1813   -0.3300   -8.0089 C   0  0  0  0  0  0  0  0  0  0  0  0
   -0.5055    0.3036   -3.9588 C   0  0  0  0  0  0  0  0  0  0  0  0
   -1.4485   -0.4711   -3.2805 C   0  0  0  0  0  0  0  0  0  0  0  0
   -2.9930   -0.1552   -2.5742 S   0  0  0  0  0  0  0  0  0  0  0  0
   -5.1298   -1.3388   -0.5776 C   0  0  0  0  0  0  0  0  0  0  0  0
   -5.8600   -1.9286    0.4512 C   0  0  0  0  0  0  0  0  0  0  0  0
   -7.0137   -1.5438    1.3360 C   0  0  0  0  0  0  0  0  0  0  0  0
   -8.3596   -1.6225    0.5805 C   0  0  0  0  0  0  0  0  0  0  0  0
   -8.4677   -0.7009   -0.6270 C   0  0  0  0  0  0  0  0  0  0  0  0
   -6.8077   -0.1683    1.9874 C   0  0  0  0  0  0  0  0  0  0  0  0
   -5.5365   -0.1016    2.8261 C   0  0  0  0  0  0  0  0  0  0  0  0
   -5.8006   -4.7874    2.7692 C   0  0  0  0  0  0  0  0  0  0  0  0
   -6.5225   -4.9160    3.9338 C   0  0  0  0  0  0  0  0  0  0  0  0
   -6.4426   -6.0029    4.9905 C   0  0  0  0  0  0  0  0  0  0  0  0
   -6.7121   -7.3990    4.4104 C   0  0  0  0  0  0  0  0  0  0  0  0
   -8.0852   -7.5022    3.7565 C   0  0  0  0  0  0  0  0  0  0  0  0
   -5.1103   -5.9562    5.7766 C   0  0  0  0  0  0  0  0  0  0  0  0
   -3.8451   -6.2121    4.9689 C   0  0  0  0  0  0  0  0  0  0  0  0
  -12.8659   -1.0234    9.4452 H   0  0  0  0  0  0  0  0  0  0  0  0
  -12.7929   -4.2769   13.2206 H   0  0  0  0  0  0  0  0  0  0  0  0
   -9.3080   -6.2305    9.3610 H   0  0  0  0  0  0  0  0  0  0  0  0
   -7.7687   -6.8758    7.6644 H   0  0  0  0  0  0  0  0  0  0  0  0
   -8.4905   -2.1045    3.7839 H   0  0  0  0  0  0  0  0  0  0  0  0
   -1.7769   -3.5342   -1.9250 H   0  0  0  0  0  0  0  0  0  0  0  0
    3.1123   -1.6707   -4.8124 H   0  0  0  0  0  0  0  0  0  0  0  0
    8.0952    1.4529   -6.1594 H   0  0  0  0  0  0  0  0  0  0  0  0
   11.5064    7.5469   -6.3466 H   0  0  0  0  0  0  0  0  0  0  0  0
   15.2623    2.4851   -6.1526 H   0  0  0  0  0  0  0  0  0  0  0  0
   17.0374    7.1423   -6.0839 H   0  0  0  0  0  0  0  0  0  0  0  0
    9.1370    7.5572   -6.2895 H   0  0  0  0  0  0  0  0  0  0  0  0
    5.0803    6.6697   -4.9403 H   0  0  0  0  0  0  0  0  0  0  0  0
    6.5633    7.6191   -5.0829 H   0  0  0  0  0  0  0  0  0  0  0  0
    7.7585    5.9752   -3.6366 H   0  0  0  0  0  0  0  0  0  0  0  0
    6.3631    6.6752   -2.8164 H   0  0  0  0  0  0  0  0  0  0  0  0
    6.2718    5.0399   -3.4734 H   0  0  0  0  0  0  0  0  0  0  0  0
    4.8840    6.2781   -7.3663 H   0  0  0  0  0  0  0  0  0  0  0  0
    6.2210    5.5804   -8.2801 H   0  0  0  0  0  0  0  0  0  0  0  0
    6.1644    8.4206   -7.1481 H   0  0  0  0  0  0  0  0  0  0  0  0
    5.9331    7.9564   -8.8289 H   0  0  0  0  0  0  0  0  0  0  0  0
    7.4970    7.7037   -8.0621 H   0  0  0  0  0  0  0  0  0  0  0  0
    4.0670    4.3971   -5.7078 H   0  0  0  0  0  0  0  0  0  0  0  0
    5.8368    0.1384   -3.3972 H   0  0  0  0  0  0  0  0  0  0  0  0
    5.7470   -1.4806   -4.0892 H   0  0  0  0  0  0  0  0  0  0  0  0
    8.0861   -1.1732   -4.9989 H   0  0  0  0  0  0  0  0  0  0  0  0
    8.1552    0.3937   -4.1786 H   0  0  0  0  0  0  0  0  0  0  0  0
    7.9823   -1.0861   -3.2454 H   0  0  0  0  0  0  0  0  0  0  0  0
    6.9763   -0.7716   -6.9238 H   0  0  0  0  0  0  0  0  0  0  0  0
    5.6113   -1.8186   -6.5169 H   0  0  0  0  0  0  0  0  0  0  0  0
    5.4529    0.6950   -8.2524 H   0  0  0  0  0  0  0  0  0  0  0  0
    4.1025   -0.3773   -7.8789 H   0  0  0  0  0  0  0  0  0  0  0  0
    5.4533   -0.9667   -8.8473 H   0  0  0  0  0  0  0  0  0  0  0  0
   -0.6329    1.3377   -4.2214 H   0  0  0  0  0  0  0  0  0  0  0  0
   -5.3161   -0.3693   -1.0043 H   0  0  0  0  0  0  0  0  0  0  0  0
   -9.1580   -1.3907    1.2882 H   0  0  0  0  0  0  0  0  0  0  0  0
   -8.4995   -2.6552    0.2502 H   0  0  0  0  0  0  0  0  0  0  0  0
   -7.6991   -0.9322   -1.3597 H   0  0  0  0  0  0  0  0  0  0  0  0
   -9.4381   -0.8358   -1.0993 H   0  0  0  0  0  0  0  0  0  0  0  0
   -8.3759    0.3427   -0.3389 H   0  0  0  0  0  0  0  0  0  0  0  0
   -7.6712    0.0544    2.6169 H   0  0  0  0  0  0  0  0  0  0  0  0
   -6.7553    0.5885    1.2038 H   0  0  0  0  0  0  0  0  0  0  0  0
   -4.6606   -0.3042    2.2137 H   0  0  0  0  0  0  0  0  0  0  0  0
   -5.4282    0.8892    3.2609 H   0  0  0  0  0  0  0  0  0  0  0  0
   -5.5669   -0.8303    3.6330 H   0  0  0  0  0  0  0  0  0  0  0  0
   -5.0807   -5.5238    2.4484 H   0  0  0  0  0  0  0  0  0  0  0  0
   -6.6357   -8.1321    5.2159 H   0  0  0  0  0  0  0  0  0  0  0  0
   -5.9473   -7.6294    3.6682 H   0  0  0  0  0  0  0  0  0  0  0  0
   -8.8739   -7.3087    4.4800 H   0  0  0  0  0  0  0  0  0  0  0  0
   -8.1791   -6.7825    2.9461 H   0  0  0  0  0  0  0  0  0  0  0  0
   -8.2309   -8.5000    3.3499 H   0  0  0  0  0  0  0  0  0  0  0  0
   -5.1791   -6.6975    6.5759 H   0  0  0  0  0  0  0  0  0  0  0  0
   -5.0323   -4.9717    6.2453 H   0  0  0  0  0  0  0  0  0  0  0  0
   -2.9899   -6.2238    5.6410 H   0  0  0  0  0  0  0  0  0  0  0  0
   -3.8847   -7.1712    4.4600 H   0  0  0  0  0  0  0  0  0  0  0  0
   -3.6845   -5.4265    4.2360 H   0  0  0  0  0  0  0  0  0  0  0  0
  1  2  2  0  0  0  0
  2  3  1  0  0  0  0
  3  4  2  0  0  0  0
  4  5  1  0  0  0  0
  5  6  1  0  0  0  0
  5  7  2  0  0  0  0
  7  8  1  0  0  0  0
  7  9  1  0  0  0  0
  3 10  1  0  0  0  0
  9 10  2  0  0  0  0
 10 11  1  0  0  0  0
 11 12  2  0  0  0  0
 12 13  1  0  0  0  0
 13 14  3  0  0  0  0
 12 15  1  0  0  0  0
 15 16  3  0  0  0  0
  2 17  1  0  0  0  0
 11 17  1  0  0  0  0
 17 18  2  0  0  0  0
 18 19  1  0  0  0  0
 19 20  1  0  0  0  0
 19 21  2  0  0  0  0
 21 22  1  0  0  0  0
 22 23  2  0  0  0  0
 20 23  1  0  0  0  0
 23 24  1  0  0  0  0
 24 25  2  0  0  0  0
 25 26  1  0  0  0  0
 26 27  2  0  0  0  0
 27 28  1  0  0  0  0
 28 29  1  0  0  0  0
 29 30  1  0  0  0  0
 30 31  1  0  0  0  0
 31 32  2  0  0  0  0
 32 33  1  0  0  0  0
 33 34  1  0  0  0  0
 34 35  1  0  0  0  0
 35 36  1  0  0  0  0
 36 37  2  0  0  0  0
 37 38  1  0  0  0  0
 38 39  2  0  0  0  0
 39 40  1  0  0  0  0
 36 40  1  0  0  0  0
 39 41  1  0  0  0  0
 41 42  2  0  0  0  0
 42 43  1  0  0  0  0
 43 44  2  0  0  0  0
 44 45  1  0  0  0  0
 45 46  1  0  0  0  0
 46 47  1  0  0  0  0
 47 48  1  0  0  0  0
 48 49  2  0  0  0  0
 49 50  1  0  0  0  0
 50 51  1  0  0  0  0
 51 52  2  0  0  0  0
 52 53  1  0  0  0  0
 53 54  1  0  0  0  0
 53 55  2  0  0  0  0
 55 56  1  0  0  0  0
 55 57  1  0  0  0  0
 57 58  2  0  0  0  0
 51 58  1  0  0  0  0
 58 59  1  0  0  0  0
 49 59  1  0  0  0  0
 59 60  2  0  0  0  0
 60 61  1  0  0  0  0
 61 62  3  0  0  0  0
 60 63  1  0  0  0  0
 63 64  3  0  0  0  0
 50 65  2  0  0  0  0
 47 66  2  0  0  0  0
 45 67  2  0  0  0  0
 66 67  1  0  0  0  0
 67 68  1  0  0  0  0
 68 69  1  0  0  0  0
 69 70  1  0  0  0  0
 68 71  1  0  0  0  0
 71 72  1  0  0  0  0
 44 73  1  0  0  0  0
 68 73  1  0  0  0  0
 73 74  2  0  0  0  0
 41 74  1  0  0  0  0
 42 75  1  0  0  0  0
 38 75  1  0  0  0  0
 75 76  1  0  0  0  0
 76 77  1  0  0  0  0
 75 78  1  0  0  0  0
 78 79  1  0  0  0  0
 35 80  2  0  0  0  0
 33 81  2  0  0  0  0
 80 81  1  0  0  0  0
 81 82  1  0  0  0  0
 31 82  1  0  0  0  0
 30 83  2  0  0  0  0
 28 84  2  0  0  0  0
 83 84  1  0  0  0  0
 84 85  1  0  0  0  0
 26 85  1  0  0  0  0
 85 86  1  0  0  0  0
 86 87  1  0  0  0  0
 85 88  1  0  0  0  0
 88 89  1  0  0  0  0
 27 90  1  0  0  0  0
 24 91  1  0  0  0  0
 90 91  2  0  0  0  0
 91 92  1  0  0  0  0
 22 92  1  0  0  0  0
 92 93  1  0  0  0  0
 93 94  1  0  0  0  0
 92 95  1  0  0  0  0
 95 96  1  0  0  0  0
  4 97  1  0  0  0  0
  9 98  1  0  0  0  0
 18 99  1  0  0  0  0
 21100  1  0  0  0  0
 25101  1  0  0  0  0
 32102  1  0  0  0  0
 37103  1  0  0  0  0
 43104  1  0  0  0  0
 48105  1  0  0  0  0
 52106  1  0  0  0  0
 57107  1  0  0  0  0
 66108  1  0  0  0  0
 69109  1  0  0  0  0
 69110  1  0  0  0  0
 70111  1  0  0  0  0
 70112  1  0  0  0  0
 70113  1  0  0  0  0
 71114  1  0  0  0  0
 71115  1  0  0  0  0
 72116  1  0  0  0  0
 72117  1  0  0  0  0
 72118  1  0  0  0  0
 74119  1  0  0  0  0
 76120  1  0  0  0  0
 76121  1  0  0  0  0
 77122  1  0  0  0  0
 77123  1  0  0  0  0
 77124  1  0  0  0  0
 78125  1  0  0  0  0
 78126  1  0  0  0  0
 79127  1  0  0  0  0
 79128  1  0  0  0  0
 79129  1  0  0  0  0
 80130  1  0  0  0  0
 83131  1  0  0  0  0
 86132  1  0  0  0  0
 86133  1  0  0  0  0
 87134  1  0  0  0  0
 87135  1  0  0  0  0
 87136  1  0  0  0  0
 88137  1  0  0  0  0
 88138  1  0  0  0  0
 89139  1  0  0  0  0
 89140  1  0  0  0  0
 89141  1  0  0  0  0
 90142  1  0  0  0  0
 93143  1  0  0  0  0
 93144  1  0  0  0  0
 94145  1  0  0  0  0
 94146  1  0  0  0  0
 94147  1  0  0  0  0
 95148  1  0  0  0  0
 95149  1  0  0  0  0
 96150  1  0  0  0  0
 96151  1  0  0  0  0
 96152  1  0  0  0  0
M  END
