117
TTPTTT-2F.sdf
C          1.21850        0.71370       -2.33930
C          1.67070        2.02160       -2.40750
C          1.26030        0.23800       -0.99170
C          1.72300        1.30750       -0.18890
C          2.05380        2.52250       -1.04050
C          3.53570        2.81560       -0.88720
C          1.19980        3.74370       -0.74910
C          0.90610       -0.99320       -0.44680
C          0.99700       -1.12410        0.91900
C          1.42170       -0.04190        1.72610
C          1.81250        1.17680        1.17720
C          0.63330       -2.32760        1.77130
C          0.79480       -1.75140        3.15240
C          1.29390       -0.46000        3.08740
C          1.62320       -3.47710        1.65640
C         -0.77870       -2.76990        1.44180
C          0.58970       -2.15810        4.46720
C          0.92490       -1.15140        5.39920
S          1.53030        0.28900        4.62830
C          0.24370        3.51540       -9.42650
C         -0.35970        2.82060      -10.44410
C         -0.67980        3.34270      -11.75810
C         -1.32000        2.26240      -12.51210
C         -1.39190        1.11930      -11.69610
C         -0.79790        1.42130      -10.38140
C         -1.82220        2.21910      -13.80190
C         -2.38130        1.02040      -14.22550
C         -2.45690       -0.11260      -13.42910
C         -1.95260       -0.06360      -12.13920
O         -0.69510        0.65240       -9.44260
C         -0.45290        4.60720      -12.23440
C          0.15230        5.66340      -11.52070
C         -0.80450        5.04090      -13.53100
N         -1.06280        5.46080      -14.56730
N          0.63170        6.57570      -11.01320
F         -2.87450        0.95700      -15.47210
C         -1.86910       -2.24040        2.11760
C         -3.15490       -2.62810        1.78370
C         -3.36500       -3.53950        0.76400
C         -2.28180       -4.05930        0.07600
C         -0.99610       -3.67640        0.41130
C          1.31280       -4.68690        2.26720
C          2.20820       -5.73910        2.23140
C          3.42510       -5.59400        1.58590
C          3.74100       -4.38980        0.98260
C          2.84780       -3.33220        1.02130
C          3.97710        3.59200        0.17750
C          5.32680        3.83450        0.35450
C          6.25180        3.30140       -0.52730
C          5.81850        2.52070       -1.58410
C          4.46800        2.27460       -1.76110
C          1.59350        4.97820       -1.25240
C          0.80580        6.09720       -1.05630
C         -0.38600        5.99500       -0.35880
C         -0.78790        4.76610        0.13370
C         -0.00320        3.64290       -0.06510
C          1.56660        2.53580       -3.69720
C          1.03090        1.59890       -4.59970
S          0.67080        0.07520       -3.84980
S          1.91430        4.06910       -4.43970
C          1.30860        3.45850       -5.95940
C          0.87590        2.11980       -5.88560
C          1.13300        4.01760       -7.20850
C          0.55410        3.12560       -8.11610
S          0.24880        1.55250       -7.38430
C         -0.31110       -3.51470        7.93730
C         -0.47950       -3.18930        9.25790
C         -0.98450       -4.12390       10.25040
C         -1.29480       -3.36280       11.46000
C         -0.89900       -2.02950       11.26480
C         -0.33380       -1.86830        9.90990
O          0.13620       -0.84250        9.46260
C         -1.10210       -5.48320       10.12940
C         -1.59680       -6.32680       11.14780
N         -1.99330       -7.07040       11.92680
C         -0.72180       -6.25570        9.01030
N         -0.42410       -6.96700        8.15910
C         -1.87350       -3.74160       12.66030
C         -2.03010       -2.75720       13.62660
C         -1.63610       -1.43920       13.44750
C         -1.05930       -1.06710       12.24400
F         -2.59530       -3.09970       14.79520
S         -0.03020       -3.54890        5.25780
C          0.12950       -2.75950        6.83650
C          0.67130       -1.48760        6.71970
H          0.56060       -1.79860       -1.07620
H          2.14460        1.98530        1.80940
H          0.52170        4.54130       -9.63530
H         -1.79770        3.05920      -14.47570
H         -2.90590       -1.00900      -13.82630
H         -1.99190       -0.92180      -11.48690
H         -1.71670       -1.52210        2.91030
H         -3.99440       -2.21520        2.32320
H         -4.36830       -3.84280        0.50550
H         -2.43730       -4.76790       -0.72410
H         -0.15400       -4.09400       -0.12150
H          0.36220       -4.80480        2.76710
H          1.95500       -6.67270        2.71060
H          4.12460       -6.41580        1.55580
H          4.68890       -4.26730        0.47970
H          3.10840       -2.39420        0.55320
H          3.25970        4.02100        0.86170
H          5.65660        4.44330        1.18330
H          7.30530        3.49400       -0.39080
H          6.53300        2.09970       -2.27580
H          4.14130        1.65980       -2.58720
H          2.52400        5.06260       -1.79500
H          1.12400        7.05020       -1.45160
H         -1.00050        6.86900       -0.20350
H         -1.71900        4.67660        0.67350
H         -0.33050        2.68610        0.31500
H          1.39220        5.02700       -7.47210
H         -0.60420       -4.52090        7.66000
H         -2.20530       -4.74530       12.86720
H         -1.78760       -0.72910       14.24490
H         -0.74090       -0.05250       12.06240
H          0.85060       -0.84970        7.56510
