96
TTz2.sdf
C         -0.70110        1.92000       -5.57140
C         -0.94740        3.10310       -4.79920
C         -1.63760        3.02540       -3.59550
C         -1.63470        4.04600       -2.65390
C         -0.98680        5.25480       -2.86190
C         -0.41930        5.44540       -4.14720
C         -0.37060        4.36520       -5.10340
N          0.18280        6.54100       -4.60290
S          0.73750        6.25430       -6.08300
N          0.26460        4.72330       -6.21720
C         -0.83420        6.23480       -1.81980
C         -0.61230        5.92340       -0.52490
C         -0.47010        6.91210        0.55000
N         -0.09230        6.28890        1.73450
C          0.10430        4.94950        1.66840
S         -0.32320        4.30690        0.10010
C          0.59720        4.10580        2.63300
C          0.00380        7.06780        2.95560
C         -1.25830        6.91720        3.79670
O         -0.63420        8.10400        0.44920
C          0.81710        2.75520        2.30970
C          0.91740        4.40700        3.96710
N          1.18640        4.54240        5.07610
N          1.04140        1.66060        2.04620
C          0.16810       -4.47310        2.42100
C         -0.19930       -5.04700        3.63270
C         -0.16880       -4.33940        4.83190
C          0.16640       -2.98990        4.91120
C          0.58940       -2.38470        3.70300
C          0.62870       -3.13390        2.48460
N          1.03410       -1.13910        3.52850
S          1.44960       -0.92780        1.99500
N          1.10310       -2.40390        1.47520
C          0.08740       -2.27150        6.14700
C         -0.08690       -0.94240        6.33200
C         -0.16090       -0.37460        7.68360
N         -0.54280        0.95710        7.63490
C         -0.80880        1.44410        6.39600
S         -0.39920        0.29470        5.13570
C         -1.34480        2.66590        6.07120
C         -0.57300        1.73720        8.85860
C          0.65340        2.63540        8.96860
O          0.05550       -0.96800        8.71550
C         -1.68610        3.70970        6.94970
C         -1.64340        2.97690        4.73410
N         -1.90910        3.28570        3.65940
N         -2.00020        4.60800        7.59310
C          0.25690        1.69900       -6.53730
C          0.49390        0.34200       -6.81070
C         -0.33220       -0.48530       -6.07640
S         -1.43810        0.42000       -5.08680
C          1.51900       -0.15950       -7.77780
C          0.86450       -0.88370       -8.95480
C         -0.24830       -1.86500       -5.71370
S          1.34800       -2.54430       -5.24840
C          0.49140       -3.68590       -4.28750
C         -0.88480       -3.55060       -4.49970
N         -1.26770       -2.53650       -5.28020
N          0.86240       -4.47570       -3.27550
C         -0.16390       -4.99020       -2.67930
S         -1.74580       -4.59410       -3.43610
C         -0.13940       -5.42250       -1.31580
S          0.69760       -4.31990       -0.25960
C          0.02030       -5.09340        1.13430
C         -0.75040       -6.17880        0.77110
C         -0.87730       -6.35340       -0.61590
C         -1.66890       -7.44700       -1.25970
C         -0.76600       -8.63350       -1.60260
H         -2.13860        2.10170       -3.34820
H         -2.15930        3.88490       -1.72480
H         -0.83080        7.28170       -2.09380
H          0.88600        6.75110        3.51530
H          0.12740        8.10770        2.64180
H         -2.11630        7.31720        3.26150
H         -1.14150        7.46040        4.72930
H         -1.44890        5.87200        4.03080
H         -0.52360       -6.07590        3.64820
H         -0.46710       -4.84640        5.73810
H          0.13350       -2.85800        7.05820
H         -0.58140        1.00870        9.67400
H         -1.49160        2.32580        8.89140
H          1.56010        2.03430        8.96990
H          0.60490        3.19780        9.89610
H          0.69930        3.34080        8.14210
H          0.81320        2.50390       -6.98300
H          2.10460        0.68460       -8.14420
H          2.19530       -0.84740       -7.26410
H          0.29360       -1.74060       -8.60470
H          0.19010       -0.21440       -9.48410
H          1.62360       -1.23290       -9.65000
H         -1.26440       -6.79990        1.48330
H         -2.13600       -7.07290       -2.17260
H         -2.45740       -7.77170       -0.57890
H         -1.34440       -9.42430       -2.07360
H          0.02100       -8.32220       -2.28560
H         -0.30240       -9.02990       -0.70220
