TTz2.sdf
  xtb     12222116303D
 energy: -181.892711435410 gnorm: 0.000705757735 xtb: 6.4.1 (unknown)
 96105  0     0  0            999 V2000
   -0.7011    1.9200   -5.5714 C   0  0  0  0  0  0  0  0  0  0  0  0
   -0.9474    3.1031   -4.7992 C   0  0  0  0  0  0  0  0  0  0  0  0
   -1.6376    3.0254   -3.5955 C   0  0  0  0  0  0  0  0  0  0  0  0
   -1.6347    4.0460   -2.6539 C   0  0  0  0  0  0  0  0  0  0  0  0
   -0.9868    5.2548   -2.8619 C   0  0  0  0  0  0  0  0  0  0  0  0
   -0.4193    5.4454   -4.1472 C   0  0  0  0  0  0  0  0  0  0  0  0
   -0.3706    4.3652   -5.1034 C   0  0  0  0  0  0  0  0  0  0  0  0
    0.1828    6.5410   -4.6029 N   0  0  0  0  0  0  0  0  0  0  0  0
    0.7375    6.2543   -6.0830 S   0  0  0  0  0  0  0  0  0  0  0  0
    0.2646    4.7233   -6.2172 N   0  0  0  0  0  0  0  0  0  0  0  0
   -0.8342    6.2348   -1.8198 C   0  0  0  0  0  0  0  0  0  0  0  0
   -0.6123    5.9234   -0.5249 C   0  0  0  0  0  0  0  0  0  0  0  0
   -0.4701    6.9121    0.5500 C   0  0  0  0  0  0  0  0  0  0  0  0
   -0.0923    6.2889    1.7345 N   0  0  0  0  0  0  0  0  0  0  0  0
    0.1043    4.9495    1.6684 C   0  0  0  0  0  0  0  0  0  0  0  0
   -0.3232    4.3069    0.1001 S   0  0  0  0  0  0  0  0  0  0  0  0
    0.5972    4.1058    2.6330 C   0  0  0  0  0  0  0  0  0  0  0  0
    0.0038    7.0678    2.9556 C   0  0  0  0  0  0  0  0  0  0  0  0
   -1.2583    6.9172    3.7967 C   0  0  0  0  0  0  0  0  0  0  0  0
   -0.6342    8.1040    0.4492 O   0  0  0  0  0  0  0  0  0  0  0  0
    0.8171    2.7552    2.3097 C   0  0  0  0  0  0  0  0  0  0  0  0
    0.9174    4.4070    3.9671 C   0  0  0  0  0  0  0  0  0  0  0  0
    1.1864    4.5424    5.0761 N   0  0  0  0  0  0  0  0  0  0  0  0
    1.0414    1.6606    2.0462 N   0  0  0  0  0  0  0  0  0  0  0  0
    0.1681   -4.4731    2.4210 C   0  0  0  0  0  0  0  0  0  0  0  0
   -0.1993   -5.0470    3.6327 C   0  0  0  0  0  0  0  0  0  0  0  0
   -0.1688   -4.3394    4.8319 C   0  0  0  0  0  0  0  0  0  0  0  0
    0.1664   -2.9899    4.9112 C   0  0  0  0  0  0  0  0  0  0  0  0
    0.5894   -2.3847    3.7030 C   0  0  0  0  0  0  0  0  0  0  0  0
    0.6287   -3.1339    2.4846 C   0  0  0  0  0  0  0  0  0  0  0  0
    1.0341   -1.1391    3.5285 N   0  0  0  0  0  0  0  0  0  0  0  0
    1.4496   -0.9278    1.9950 S   0  0  0  0  0  0  0  0  0  0  0  0
    1.1031   -2.4039    1.4752 N   0  0  0  0  0  0  0  0  0  0  0  0
    0.0874   -2.2715    6.1470 C   0  0  0  0  0  0  0  0  0  0  0  0
   -0.0869   -0.9424    6.3320 C   0  0  0  0  0  0  0  0  0  0  0  0
   -0.1609   -0.3746    7.6836 C   0  0  0  0  0  0  0  0  0  0  0  0
   -0.5428    0.9571    7.6349 N   0  0  0  0  0  0  0  0  0  0  0  0
   -0.8088    1.4441    6.3960 C   0  0  0  0  0  0  0  0  0  0  0  0
   -0.3992    0.2947    5.1357 S   0  0  0  0  0  0  0  0  0  0  0  0
   -1.3448    2.6659    6.0712 C   0  0  0  0  0  0  0  0  0  0  0  0
   -0.5730    1.7372    8.8586 C   0  0  0  0  0  0  0  0  0  0  0  0
    0.6534    2.6354    8.9686 C   0  0  0  0  0  0  0  0  0  0  0  0
    0.0555   -0.9680    8.7155 O   0  0  0  0  0  0  0  0  0  0  0  0
   -1.6861    3.7097    6.9497 C   0  0  0  0  0  0  0  0  0  0  0  0
   -1.6434    2.9769    4.7341 C   0  0  0  0  0  0  0  0  0  0  0  0
   -1.9091    3.2857    3.6594 N   0  0  0  0  0  0  0  0  0  0  0  0
   -2.0002    4.6080    7.5931 N   0  0  0  0  0  0  0  0  0  0  0  0
    0.2569    1.6990   -6.5373 C   0  0  0  0  0  0  0  0  0  0  0  0
    0.4939    0.3420   -6.8107 C   0  0  0  0  0  0  0  0  0  0  0  0
   -0.3322   -0.4853   -6.0764 C   0  0  0  0  0  0  0  0  0  0  0  0
   -1.4381    0.4200   -5.0868 S   0  0  0  0  0  0  0  0  0  0  0  0
    1.5190   -0.1595   -7.7778 C   0  0  0  0  0  0  0  0  0  0  0  0
    0.8645   -0.8837   -8.9548 C   0  0  0  0  0  0  0  0  0  0  0  0
   -0.2483   -1.8650   -5.7137 C   0  0  0  0  0  0  0  0  0  0  0  0
    1.3480   -2.5443   -5.2484 S   0  0  0  0  0  0  0  0  0  0  0  0
    0.4914   -3.6859   -4.2875 C   0  0  0  0  0  0  0  0  0  0  0  0
   -0.8848   -3.5506   -4.4997 C   0  0  0  0  0  0  0  0  0  0  0  0
   -1.2677   -2.5365   -5.2802 N   0  0  0  0  0  0  0  0  0  0  0  0
    0.8624   -4.4757   -3.2755 N   0  0  0  0  0  0  0  0  0  0  0  0
   -0.1639   -4.9902   -2.6793 C   0  0  0  0  0  0  0  0  0  0  0  0
   -1.7458   -4.5941   -3.4361 S   0  0  0  0  0  0  0  0  0  0  0  0
   -0.1394   -5.4225   -1.3158 C   0  0  0  0  0  0  0  0  0  0  0  0
    0.6976   -4.3199   -0.2596 S   0  0  0  0  0  0  0  0  0  0  0  0
    0.0203   -5.0934    1.1343 C   0  0  0  0  0  0  0  0  0  0  0  0
   -0.7504   -6.1788    0.7711 C   0  0  0  0  0  0  0  0  0  0  0  0
   -0.8773   -6.3534   -0.6159 C   0  0  0  0  0  0  0  0  0  0  0  0
   -1.6689   -7.4470   -1.2597 C   0  0  0  0  0  0  0  0  0  0  0  0
   -0.7660   -8.6335   -1.6026 C   0  0  0  0  0  0  0  0  0  0  0  0
   -2.1386    2.1017   -3.3482 H   0  0  0  0  0  0  0  0  0  0  0  0
   -2.1593    3.8849   -1.7248 H   0  0  0  0  0  0  0  0  0  0  0  0
   -0.8308    7.2817   -2.0938 H   0  0  0  0  0  0  0  0  0  0  0  0
    0.8860    6.7511    3.5153 H   0  0  0  0  0  0  0  0  0  0  0  0
    0.1274    8.1077    2.6418 H   0  0  0  0  0  0  0  0  0  0  0  0
   -2.1163    7.3172    3.2615 H   0  0  0  0  0  0  0  0  0  0  0  0
   -1.1415    7.4604    4.7293 H   0  0  0  0  0  0  0  0  0  0  0  0
   -1.4489    5.8720    4.0308 H   0  0  0  0  0  0  0  0  0  0  0  0
   -0.5236   -6.0759    3.6482 H   0  0  0  0  0  0  0  0  0  0  0  0
   -0.4671   -4.8464    5.7381 H   0  0  0  0  0  0  0  0  0  0  0  0
    0.1335   -2.8580    7.0582 H   0  0  0  0  0  0  0  0  0  0  0  0
   -0.5814    1.0087    9.6740 H   0  0  0  0  0  0  0  0  0  0  0  0
   -1.4916    2.3258    8.8914 H   0  0  0  0  0  0  0  0  0  0  0  0
    1.5601    2.0343    8.9699 H   0  0  0  0  0  0  0  0  0  0  0  0
    0.6049    3.1978    9.8961 H   0  0  0  0  0  0  0  0  0  0  0  0
    0.6993    3.3408    8.1421 H   0  0  0  0  0  0  0  0  0  0  0  0
    0.8132    2.5039   -6.9830 H   0  0  0  0  0  0  0  0  0  0  0  0
    2.1046    0.6846   -8.1442 H   0  0  0  0  0  0  0  0  0  0  0  0
    2.1953   -0.8474   -7.2641 H   0  0  0  0  0  0  0  0  0  0  0  0
    0.2936   -1.7406   -8.6047 H   0  0  0  0  0  0  0  0  0  0  0  0
    0.1901   -0.2144   -9.4841 H   0  0  0  0  0  0  0  0  0  0  0  0
    1.6236   -1.2329   -9.6500 H   0  0  0  0  0  0  0  0  0  0  0  0
   -1.2644   -6.7999    1.4833 H   0  0  0  0  0  0  0  0  0  0  0  0
   -2.1360   -7.0729   -2.1726 H   0  0  0  0  0  0  0  0  0  0  0  0
   -2.4574   -7.7717   -0.5789 H   0  0  0  0  0  0  0  0  0  0  0  0
   -1.3444   -9.4243   -2.0736 H   0  0  0  0  0  0  0  0  0  0  0  0
    0.0210   -8.3222   -2.2856 H   0  0  0  0  0  0  0  0  0  0  0  0
   -0.3024   -9.0299   -0.7022 H   0  0  0  0  0  0  0  0  0  0  0  0
  2  3  2  0  0  0  0
  3  4  1  0  0  0  0
  4  5  2  0  0  0  0
  5  6  1  0  0  0  0
  6  7  1  0  0  0  0
  7  2  1  0  0  0  0
  6  8  2  0  0  0  0
  8  9  1  0  0  0  0
  9 10  1  0  0  0  0
 10  7  2  0  0  0  0
  2  1  1  0  0  0  0
 11 12  2  0  0  0  0
 12 13  1  0  0  0  0
 13 14  1  0  0  0  0
 14 15  1  0  0  0  0
 15 16  1  0  0  0  0
 16 12  1  0  0  0  0
 15 17  2  0  0  0  0
 14 18  1  0  0  0  0
 18 19  1  0  0  0  0
 13 20  2  0  0  0  0
 17 21  1  0  0  0  0
 17 22  1  0  0  0  0
 22 23  3  0  0  0  0
 21 24  3  0  0  0  0
 11  5  1  0  0  0  0
 25 26  2  0  0  0  0
 26 27  1  0  0  0  0
 27 28  2  0  0  0  0
 28 29  1  0  0  0  0
 29 30  1  0  0  0  0
 30 25  1  0  0  0  0
 29 31  2  0  0  0  0
 31 32  1  0  0  0  0
 32 33  1  0  0  0  0
 33 30  2  0  0  0  0
 34 35  2  0  0  0  0
 35 36  1  0  0  0  0
 36 37  1  0  0  0  0
 37 38  1  0  0  0  0
 38 39  1  0  0  0  0
 39 35  1  0  0  0  0
 38 40  2  0  0  0  0
 37 41  1  0  0  0  0
 41 42  1  0  0  0  0
 36 43  2  0  0  0  0
 40 44  1  0  0  0  0
 40 45  1  0  0  0  0
 45 46  3  0  0  0  0
 44 47  3  0  0  0  0
 28 34  1  0  0  0  0
  1 48  2  0  0  0  0
 48 49  1  0  0  0  0
 49 50  2  0  0  0  0
 50 51  1  0  0  0  0
 51  1  1  0  0  0  0
 49 52  1  0  0  0  0
 52 53  1  0  0  0  0
 50 54  1  0  0  0  0
 54 55  1  0  0  0  0
 55 56  1  0  0  0  0
 56 57  2  0  0  0  0
 57 58  1  0  0  0  0
 58 54  2  0  0  0  0
 56 59  1  0  0  0  0
 59 60  2  0  0  0  0
 60 61  1  0  0  0  0
 61 57  1  0  0  0  0
 60 62  1  0  0  0  0
 62 63  1  0  0  0  0
 63 64  1  0  0  0  0
 64 65  2  0  0  0  0
 65 66  1  0  0  0  0
 66 62  2  0  0  0  0
 66 67  1  0  0  0  0
 67 68  1  0  0  0  0
 64 25  1  0  0  0  0
  3 69  1  0  0  0  0
  4 70  1  0  0  0  0
 11 71  1  0  0  0  0
 18 72  1  0  0  0  0
 18 73  1  0  0  0  0
 19 74  1  0  0  0  0
 19 75  1  0  0  0  0
 19 76  1  0  0  0  0
 26 77  1  0  0  0  0
 27 78  1  0  0  0  0
 34 79  1  0  0  0  0
 41 80  1  0  0  0  0
 41 81  1  0  0  0  0
 42 82  1  0  0  0  0
 42 83  1  0  0  0  0
 42 84  1  0  0  0  0
 48 85  1  0  0  0  0
 52 86  1  0  0  0  0
 52 87  1  0  0  0  0
 53 88  1  0  0  0  0
 53 89  1  0  0  0  0
 53 90  1  0  0  0  0
 65 91  1  0  0  0  0
 67 92  1  0  0  0  0
 67 93  1  0  0  0  0
 68 94  1  0  0  0  0
 68 95  1  0  0  0  0
 68 96  1  0  0  0  0
M  END
