142
UF-Qx-2Cl.sdf
C          7.46090       12.77290        4.79350
C          8.75300       12.81080        4.28030
C          9.17610       11.89830        3.30860
C          8.30330       10.92630        2.83680
C          7.02410       10.89210        3.35190
C          6.58800       11.80490        4.32440
C          5.92980        9.95480        3.01810
C          4.80050       10.33640        3.88750
C          5.19470       11.50610        4.65300
C          3.58940        9.70380        4.05080
C          3.03040        8.57800        3.43490
C          3.46110        7.74610        2.39920
C          2.57280        6.72760        2.13450
C          1.43840        6.75320        2.96510
S          1.46000        8.05230        4.06750
C          2.52120        5.54570        1.19340
C          1.20810        4.92820        1.60490
C          0.61400        5.65770        2.63780
C          0.45240        3.82610        1.22920
C         -0.70290        3.68880        1.97630
S         -0.87630        4.98080        3.15200
C         -1.66550        2.62150        1.92470
C          3.72170        4.62390        1.50350
C          2.51110        5.98600       -0.28000
C          1.43170        7.01950       -0.58030
C          3.75880        3.31920        0.71780
O          6.00240        9.06780        2.19080
Cl         9.84260       14.00600        4.86000
Cl        10.77900       11.97550        2.69640
C          4.42450       12.24830        5.51200
C          4.89360       13.37750        6.21700
C          3.06300       12.03990        5.81970
N          1.95820       11.96560        6.12660
N          5.20130       14.30240        6.82360
C         -4.36090       -0.72820        1.87770
S         -3.94090       -2.08430        2.88790
C         -4.56720       -3.16110        1.70450
C         -5.10560       -2.49970        0.60200
C         -5.00760       -1.11380        0.72460
C         -4.50740       -4.54190        1.43630
C         -5.00850       -4.77410        0.14270
C         -5.48400       -3.48160       -0.48450
S         -3.82040       -5.93010        2.14280
C         -4.12590       -6.84650        0.65560
C         -4.78690       -6.06130       -0.29330
C         -3.54850       -8.11550        0.58250
C         -3.53920       -9.05550       -0.42550
C         -2.71840      -10.24760       -0.37850
C         -3.18300      -11.15150       -1.42730
C         -4.16570      -10.48790       -2.17950
C         -4.39930       -9.13690       -1.61830
C         -2.81320      -12.44260       -1.76250
C         -3.43440      -13.05080       -2.84850
C         -4.40710      -12.38030       -3.59630
C         -4.77930      -11.08410       -3.26110
Cl        -5.14980      -13.15990       -4.93520
Cl        -2.99070      -14.65670       -3.26860
O         -5.16760       -8.31180       -2.07280
C         -1.61440      -10.45240        0.41050
C         -0.85150      -11.63780        0.40480
C         -1.04480       -9.48900        1.26870
C         -7.00920       -3.46030       -0.69980
C         -4.65960       -3.26640       -1.77140
C         -4.94850       -1.98320       -2.53730
C         -7.51430       -4.46290       -1.72900
N         -0.19700      -12.57980        0.45410
N         -0.49480       -8.73810        1.94240
C         -2.86640        2.70470        2.61370
C         -3.80740        1.67060        2.64370
C         -3.55660        0.49120        1.99250
C         -2.32600        0.35500        1.29220
C         -1.38990        1.41110        1.21500
N         -2.07350       -0.82300        0.69990
C         -0.96070       -1.00370        0.03420
C         -0.02090        0.06720       -0.07090
N         -0.26160        1.22290        0.50940
C          1.25340       -0.04180       -0.78630
C         -0.84820       -2.34640       -0.55120
C         -1.23170       -3.42790        0.24240
C         -1.27880       -4.70100       -0.28270
C         -0.97440       -4.93030       -1.62040
C         -0.57570       -3.85290       -2.40240
C         -0.50610       -2.57350       -1.87970
C          2.04750       -1.18210       -0.69280
C          3.26150       -1.23620       -1.34850
C          3.71100       -0.16810       -2.11630
C          2.91630        0.96920       -2.20320
C          1.70680        1.03680       -1.54300
C          5.05080       -0.21550       -2.78950
C          6.12620        0.36620       -1.86890
C         -1.08320       -6.31860       -2.18250
C          0.00770       -7.23590       -1.62800
H          7.17520       13.49290        5.54210
H          8.61400       10.21440        2.08860
H          2.94380       10.12790        4.81070
H          4.39210        7.91290        1.89010
H          0.70400        3.12300        0.45950
H          4.63270        5.19260        1.30580
H          3.70140        4.39280        2.57150
H          2.34480        5.10730       -0.90390
H          3.49050        6.40200       -0.52250
H          1.44870        7.27820       -1.63630
H          0.44530        6.62900       -0.33920
H          1.59260        7.92780       -0.00450
H          3.80990        3.50050       -0.35200
H          2.88660        2.70680        0.92730
H          4.64250        2.75340        1.00450
H         -5.33700       -0.39610       -0.00420
H         -5.05050       -6.45500       -1.25740
H         -2.98890       -8.38290        1.47200
H         -2.06970      -12.99010       -1.20670
H         -5.52870      -10.55630       -3.82960
H         -7.30130       -2.45060       -0.99370
H         -7.48150       -3.66930        0.26380
H         -4.83500       -4.12300       -2.42330
H         -3.60320       -3.27880       -1.49110
H         -5.99990       -1.89990       -2.79850
H         -4.65660       -1.11160       -1.95940
H         -4.36960       -1.98110       -3.45840
H         -8.59970       -4.41310       -1.78010
H         -7.12000       -4.24740       -2.71800
H         -7.23340       -5.47590       -1.45530
H         -3.08640        3.61350        3.15570
H         -4.72830        1.80730        3.19000
H         -1.49130       -3.25200        1.27530
H         -1.56590       -5.53080        0.34550
H         -0.32960       -4.01270       -3.44250
H         -0.21630       -1.74620       -2.51130
H          1.72370       -2.01690       -0.08930
H          3.87170       -2.12380       -1.26350
H          3.25080        1.80750       -2.79760
H          1.08820        1.91860       -1.62300
H          5.02130        0.36070       -3.71650
H          5.30700       -1.24760       -3.03530
H          5.89480        1.39980       -1.62160
H          6.17940       -0.20280       -0.94350
H          7.09870        0.33340       -2.35380
H         -2.06230       -6.73200       -1.92400
H         -1.00790       -6.28320       -3.27100
H         -0.09100       -8.23540       -2.04650
H          0.99190       -6.85060       -1.88450
H         -0.05950       -7.30720       -0.54490
