105
Y-T.sdf
C          1.76160       -1.46290        7.47720
C          1.53550       -0.62990        6.38370
S          1.03730       -1.17730        4.78220
C          1.03470        0.44870        4.21250
C          1.40240        1.35990        5.21940
C          1.68220        0.76930        6.44200
C          2.13570        1.54840        7.63280
C          3.66230        1.52420        7.74950
S          1.40430        3.03360        4.69020
C          0.90480        2.50210        3.12210
C          0.76140        1.11440        3.01380
N          0.34230        0.78800        1.75320
C         -0.03050       -0.58140        1.48300
C          0.22010        1.95330        1.02160
C          0.54740        3.04590        1.88370
C          0.41570        4.39400        1.48370
N          0.65950        5.49100        2.18310
S          0.28240        6.77400        1.26960
N         -0.20480        5.97690       -0.05310
C         -0.08820        4.67840        0.17470
C         -0.34900        3.60220       -0.70190
C         -0.14930        2.23790       -0.32400
N         -0.37630        1.45430       -1.43850
C         -0.15280        0.05350       -1.71160
C         -1.46360       -0.72940       -1.78870
C         -0.73950        2.27300       -2.47250
C         -0.74090        3.60540       -2.04500
S         -1.16430        4.73670       -3.28270
C         -1.32970        3.39560       -4.40300
C         -1.06410        2.14030       -3.82580
S         -1.21560        0.86010       -4.96880
C         -1.65620        2.01670       -6.22640
C         -1.67390        3.33960       -5.74490
C         -1.95970        4.55890       -6.55860
C         -0.71230        5.00580       -7.32600
C         -1.95660        1.68450       -7.54560
C         -1.96440        0.49440       -8.24500
C          1.19000       -1.46800        1.23590
C         -2.33950        0.60210       -9.65210
N         -2.33080       -0.58100      -10.38120
C         -2.01490       -1.80040       -9.85920
N         -1.64570       -1.87080       -8.54390
C         -1.63330       -0.78770       -7.68000
O         -1.34380       -0.96590       -6.50190
O         -2.64290        1.65210      -10.18610
C         -2.72760       -0.48440      -11.78160
C         -4.21540       -0.75820      -11.95550
S         -2.06910       -3.16250      -10.79200
C         -1.29630       -3.16550       -7.97000
C         -2.53190       -3.90370       -7.47280
C          1.70630       -2.83080        7.65430
C          1.35300       -3.77470        6.62620
N          1.36490       -5.11420        6.97990
C          1.63910       -5.57450        8.23850
N          1.98970       -4.67180        9.19840
C          2.03690       -3.29750        8.99780
O          2.34350       -2.55260        9.90940
O          1.05040       -3.46140        5.47990
C          1.00040       -6.06580        5.93610
C         -0.49500       -6.35330        5.94660
S          1.55450       -7.18790        8.58200
C          2.29840       -5.14260       10.54410
C          1.03660       -5.28680       11.38430
H          2.04840       -0.94340        8.38710
H          1.69170        1.15100        8.54650
H          1.80350        2.58140        7.51050
H          4.02170        0.50730        7.88780
H          3.97850        2.12280        8.59940
H          4.11510        1.93300        6.84940
H         -0.55150       -0.95570        2.37070
H         -0.72910       -0.61040        0.65210
H          0.52350       -0.35760       -0.96800
H          0.34280       -0.01130       -2.68610
H         -2.02180       -0.43400       -2.67260
H         -1.25230       -1.79240       -1.85880
H         -2.09050       -0.54900       -0.91760
H         -2.26620        5.35730       -5.87970
H         -2.77440        4.37300       -7.25980
H         -0.39140        4.23390       -8.02140
H          0.10160        5.21060       -6.63450
H         -0.92680        5.91130       -7.88700
H         -2.23670        2.52840       -8.16970
H          1.76030       -1.58030        2.15370
H          0.86730       -2.45350        0.91300
H          1.84760       -1.04470        0.47920
H         -2.49370        0.53260      -12.10100
H         -2.13620       -1.19970      -12.35510
H         -4.45690       -1.76810      -11.63230
H         -4.48210       -0.65560      -13.00310
H         -4.79800       -0.04760      -11.37390
H         -0.61750       -2.96700       -7.13870
H         -0.78430       -3.74920       -8.73640
H         -3.21270       -4.10090       -8.29730
H         -2.23520       -4.85140       -7.03300
H         -3.04480       -3.31150       -6.71860
H          1.56750       -6.98320        6.09990
H          1.28970       -5.61470        4.98530
H         -0.78830       -6.79980        6.89370
H         -0.73650       -7.04650        5.14620
H         -1.05510       -5.43350        5.79570
H          2.81580       -6.09970       10.46130
H          2.96150       -4.39830       10.98860
H          1.30360       -5.61630       12.38400
H          0.36720       -6.02130       10.94300
H          0.52250       -4.33120       11.45560
