104
Y18.sdf
C          4.33810        3.69580        5.39070
O          3.38590        3.05110        4.98760
C          4.63220        4.01610        6.80380
C          3.90680        3.67970        7.92870
C          4.39140        4.10420        9.15570
C          5.57140        4.84290        9.23570
C          6.30040        5.17930        8.10400
C          5.82210        4.75950        6.87320
C          6.33890        4.94670        5.51540
C          7.50320        5.60180        5.20220
C          8.35990        6.19100        6.15600
N          9.09910        6.69140        6.87770
C          8.02620        5.78180        3.90490
N          8.52050        5.96980        2.88460
C          5.41060        4.30680        4.60810
C          5.51830        4.30550        3.23450
C          4.71110        3.73530        2.25110
S          3.27660        2.75030        2.55870
C          3.04260        2.54590        0.86530
C          4.02130        3.22020        0.10990
C          4.96940        3.88220        0.87290
S          3.80300        3.05730       -1.62220
C          2.40380        2.08270       -1.32550
C          2.12930        1.89120        0.03890
N          1.01750        1.10010        0.18890
C          0.19530        1.21220        1.37830
C         -0.29260        2.64630        1.58040
C          0.58330        0.77080       -1.08200
C          1.40800        1.41250       -2.04820
C          1.05020        1.36020       -3.41330
N          1.59260        1.89670       -4.50690
N          0.76600        1.57090       -5.46880
C          0.97400        2.00400       -6.82010
C          0.42960        3.41530       -7.02030
N         -0.28320        0.86690       -5.12520
C         -0.14850        0.69940       -3.80900
C         -0.89070       -0.03960       -2.86170
C         -0.45120       -0.08720       -1.50890
N         -1.21090       -1.00540       -0.80760
C         -0.77200       -1.80340        0.32100
C         -0.24530       -3.16390       -0.13400
C         -2.15190       -1.49460       -1.67910
C         -1.99160       -0.90250       -2.94300
S         -3.14510       -1.44280       -4.11470
C         -3.84840       -2.48990       -2.89680
C         -3.20340       -2.41070       -1.64740
S         -3.90570       -3.47230       -0.48780
C         -5.08120       -4.02110       -1.68770
C         -4.91010       -3.37920       -2.93130
C         -6.07070       -4.97730       -1.46280
C         -6.36380       -5.73490       -0.35000
C         -7.42820       -6.71180       -0.26440
C         -8.35140       -7.03550       -1.22660
C         -9.36500       -8.00210       -1.05610
N        -10.21080       -8.77480       -0.98540
C         -8.43910       -6.46460       -2.51320
N         -8.57970       -6.05240       -3.57680
C         -7.36160       -7.31510        1.06880
C         -8.12540       -8.30310        1.66920
C         -7.81030       -8.67060        2.96950
C         -6.76060       -8.07350        3.66690
C         -5.99210       -7.08460        3.07390
C         -6.30590       -6.72100        1.78000
C         -5.65030       -5.70830        0.92520
O         -4.70740       -5.00580        1.24550
C          6.07410        4.69010        0.27510
C          5.69640        6.17290        0.21560
C         -5.70780       -3.64360       -4.16590
C         -5.17840       -4.87530       -4.90580
F          6.01600        5.24140       10.43310
F          3.71940        3.80280       10.27390
F         -6.49170       -8.45950        4.92050
F         -8.53520       -9.62430        3.56550
H          2.99480        3.10840        7.86160
H          7.20520        5.75230        8.22200
H          6.36590        4.84260        2.83200
H         -0.67420        0.56630        1.27380
H          0.78790        0.89850        2.24290
H          0.53980        3.32090        1.75810
H         -0.95370        2.68390        2.44130
H         -0.84000        2.98500        0.70300
H          0.45680        1.29570       -7.46980
H          2.04820        1.98060       -7.01480
H          0.59870        3.73430       -8.04460
H         -0.63830        3.43870       -6.81710
H          0.93220        4.10700       -6.34880
H          0.03130       -1.28080        0.83640
H         -1.61850       -1.94350        1.00010
H          0.56300       -3.03420       -0.85080
H          0.13340       -3.70920        0.72560
H         -1.03240       -3.75400       -0.59400
H         -6.70070       -5.14990       -2.32430
H         -8.94640       -8.79680        1.17600
H         -5.17910       -6.62000        3.60850
H          6.99750        4.57430        0.84450
H          6.25060        4.32740       -0.73950
H          5.50840        6.56400        1.21270
H          6.50830        6.74090       -0.22930
H          4.80120        6.31150       -0.38630
H         -6.76240       -3.78990       -3.92790
H         -5.62240       -2.77300       -4.81920
H         -5.24610       -5.76120       -4.27890
H         -5.76540       -5.04410       -5.80390
H         -4.13880       -4.72860       -5.18930
