86
Y2.sdf
C         -7.97080       -1.14550       -1.02890
O         -6.88560       -1.12200       -0.47380
C         -9.25700       -1.53270       -0.44010
C         -9.72060       -1.95780        0.76180
S        -11.42290       -2.23190        0.69600
C        -11.50920       -1.76990       -0.96460
C        -10.28120       -1.42250       -1.43560
C         -9.68720       -0.96230       -2.67690
C        -10.39070       -0.74800       -3.83480
C         -9.86340       -0.30090       -5.06070
N         -9.50170        0.05970       -6.09000
C        -11.78190       -0.97030       -3.89240
N        -12.91310       -1.15340       -3.95570
C         -8.26690       -0.79410       -2.42700
C         -7.34930       -0.37600       -3.35970
C         -5.96610       -0.18880       -3.25850
S         -4.97820       -0.45000       -1.82470
C         -3.56200        0.00020       -2.70080
C         -3.85270        0.33780       -4.03950
C         -5.19430        0.23300       -4.34480
S         -2.44180        0.78770       -4.97420
C         -1.46600        0.51400       -3.56900
C         -2.19390        0.11050       -2.44170
N         -1.34830       -0.08270       -1.38300
C         -1.82780       -0.80410       -0.22500
C         -1.27900       -2.22820       -0.18710
C         -0.05590        0.17580       -1.81610
C         -0.11970        0.53850       -3.19780
C          1.05000        0.77010       -3.94940
N          1.25540        1.08880       -5.22840
N          2.55990        1.11430       -5.34320
C          3.19870        1.37930       -6.59960
C          3.34410        0.09360       -7.40840
N          3.24880        0.84010       -4.26360
C          2.31780        0.61270       -3.33530
C          2.39040        0.32050       -1.95810
C          1.20890        0.15830       -1.16920
N          1.59790       -0.02460        0.15030
C          0.85430        0.13250        1.38090
C          0.24110        1.52650        1.48880
C          2.96560        0.00790        0.19370
C          3.48190        0.20170       -1.09440
S          5.21250        0.25050       -1.15740
C          5.24780        0.01310        0.57720
C          3.96810       -0.09680        1.16100
S          4.05370       -0.32790        2.86870
C          5.81240       -0.27970        2.80170
C          6.27240       -0.08960        1.49580
C          6.68970       -0.41200        3.88410
C          6.44080       -0.60210        5.22150
C          7.46180       -0.72570        6.24630
C          8.82660       -0.69000        6.11370
C          9.54410       -0.51970        4.91480
N         10.19230       -0.38680        3.97520
C          9.67080       -0.82760        7.23470
N         10.37300       -0.94420        8.13490
C          6.77020       -0.90600        7.50910
C          7.08240       -1.07610        8.82220
S          5.65390       -1.22720        9.77880
C          4.62470       -1.06040        8.40420
C          5.35720       -0.89760        7.27390
C          5.10970       -0.70820        5.84050
O          4.02760       -0.65000        5.28210
H         -9.18280       -2.12650        1.67310
H        -12.45540       -1.78940       -1.46690
H         -7.73350       -0.15260       -4.34810
H         -5.62230        0.44300       -5.30840
H         -1.59990       -0.25760        0.68960
H         -2.91640       -0.84170       -0.31140
H         -1.61610       -2.77770       -1.06290
H         -0.19130       -2.23320       -0.18170
H         -1.63930       -2.74020        0.70080
H          4.17810        1.80950       -6.38290
H          2.57980        2.09950       -7.13840
H          2.36570       -0.34250       -7.59440
H          3.95340       -0.62450       -6.86500
H          3.82000        0.30820       -8.36080
H          1.56890       -0.00870        2.19530
H          0.10170       -0.64910        1.47910
H          1.02760        2.27780        1.48860
H         -0.42400        1.73240        0.65300
H         -0.31880        1.61370        2.41580
H          7.31880       -0.03300        1.25600
H          7.73140       -0.35120        3.59150
H          8.04110       -1.12340        9.29830
H          3.56020       -1.09370        8.52180
