Y25.sdf
  xtb     12222116443D
 energy: -169.979405526281 gnorm: 0.000925569877 xtb: 6.4.1 (unknown)
 86 95  0     0  0            999 V2000
   -0.6718   -0.8153   -6.9784 C   0  0  0  0  0  0  0  0  0  0  0  0
   -0.4587    0.0969   -6.2037 O   0  0  0  0  0  0  0  0  0  0  0  0
   -1.0375   -0.6782   -8.4051 C   0  0  0  0  0  0  0  0  0  0  0  0
   -1.2344    0.4792   -9.1311 C   0  0  0  0  0  0  0  0  0  0  0  0
   -1.5876    0.3481  -10.4646 C   0  0  0  0  0  0  0  0  0  0  0  0
   -1.7339   -0.9144  -11.0395 C   0  0  0  0  0  0  0  0  0  0  0  0
   -1.5329   -2.0767  -10.3093 C   0  0  0  0  0  0  0  0  0  0  0  0
   -1.1802   -1.9543   -8.9745 C   0  0  0  0  0  0  0  0  0  0  0  0
   -0.9085   -2.9618   -7.9469 C   0  0  0  0  0  0  0  0  0  0  0  0
   -0.9173   -4.3172   -8.1549 C   0  0  0  0  0  0  0  0  0  0  0  0
   -0.6384   -5.3047   -7.1869 C   0  0  0  0  0  0  0  0  0  0  0  0
   -0.4260   -6.1724   -6.4641 N   0  0  0  0  0  0  0  0  0  0  0  0
   -1.2024   -4.9254   -9.3962 C   0  0  0  0  0  0  0  0  0  0  0  0
   -1.4235   -5.4838  -10.3742 N   0  0  0  0  0  0  0  0  0  0  0  0
   -0.6255   -2.2567   -6.7135 C   0  0  0  0  0  0  0  0  0  0  0  0
   -0.3925   -2.8455   -5.4938 C   0  0  0  0  0  0  0  0  0  0  0  0
    0.0042   -3.0934   -3.1001 C   0  0  0  0  0  0  0  0  0  0  0  0
   -0.1424   -2.2843   -4.2361 C   0  0  0  0  0  0  0  0  0  0  0  0
    0.0014   -0.5651   -3.8594 S   0  0  0  0  0  0  0  0  0  0  0  0
    0.2453   -0.9533   -2.2099 C   0  0  0  0  0  0  0  0  0  0  0  0
    0.2088   -2.3433   -1.9595 C   0  0  0  0  0  0  0  0  0  0  0  0
    0.3675   -2.5859   -0.6124 N   0  0  0  0  0  0  0  0  0  0  0  0
    0.9990   -3.8076   -0.1508 C   0  0  0  0  0  0  0  0  0  0  0  0
    0.4812   -1.3476    0.0044 C   0  0  0  0  0  0  0  0  0  0  0  0
    0.4607   -0.3180   -0.9769 C   0  0  0  0  0  0  0  0  0  0  0  0
    0.7124    1.0146   -0.5879 C   0  0  0  0  0  0  0  0  0  0  0  0
    0.8229    2.1495   -1.2800 N   0  0  0  0  0  0  0  0  0  0  0  0
    1.1412    3.0445   -0.3805 N   0  0  0  0  0  0  0  0  0  0  0  0
    1.2556    2.6224    0.8525 N   0  0  0  0  0  0  0  0  0  0  0  0
    0.9872    1.3180    0.7783 C   0  0  0  0  0  0  0  0  0  0  0  0
    0.8631    0.3133    1.7613 C   0  0  0  0  0  0  0  0  0  0  0  0
    0.5221   -1.0108    1.3686 C   0  0  0  0  0  0  0  0  0  0  0  0
    0.3026   -1.7915    2.4948 N   0  0  0  0  0  0  0  0  0  0  0  0
   -0.6498   -2.8816    2.5857 C   0  0  0  0  0  0  0  0  0  0  0  0
   -2.0216   -2.3886    3.0461 C   0  0  0  0  0  0  0  0  0  0  0  0
    0.5371   -0.9850    3.5871 C   0  0  0  0  0  0  0  0  0  0  0  0
    0.9025    0.3123    3.1641 C   0  0  0  0  0  0  0  0  0  0  0  0
    1.1972    1.3816    4.4690 S   0  0  0  0  0  0  0  0  0  0  0  0
    0.8187    0.0859    5.6078 C   0  0  0  0  0  0  0  0  0  0  0  0
    0.4920   -1.1144    4.9607 C   0  0  0  0  0  0  0  0  0  0  0  0
    0.8030    0.1783    7.0044 C   0  0  0  0  0  0  0  0  0  0  0  0
    1.0273    1.2460    7.8401 C   0  0  0  0  0  0  0  0  0  0  0  0
    0.9411    1.2149    9.2858 C   0  0  0  0  0  0  0  0  0  0  0  0
    0.6867    0.1323   10.0881 C   0  0  0  0  0  0  0  0  0  0  0  0
    0.6240    0.1884   11.4970 C   0  0  0  0  0  0  0  0  0  0  0  0
    0.5649    0.1600   12.6430 N   0  0  0  0  0  0  0  0  0  0  0  0
    0.4518   -1.1874    9.6483 C   0  0  0  0  0  0  0  0  0  0  0  0
    0.2508   -2.2862    9.3791 N   0  0  0  0  0  0  0  0  0  0  0  0
    1.1838    2.5763    9.7679 C   0  0  0  0  0  0  0  0  0  0  0  0
    1.1924    3.1085   11.0477 C   0  0  0  0  0  0  0  0  0  0  0  0
    1.4513    4.4642   11.1880 C   0  0  0  0  0  0  0  0  0  0  0  0
    1.6993    5.2819   10.0855 C   0  0  0  0  0  0  0  0  0  0  0  0
    1.6928    4.7576    8.8028 C   0  0  0  0  0  0  0  0  0  0  0  0
    1.4329    3.4091    8.6645 C   0  0  0  0  0  0  0  0  0  0  0  0
    1.3579    2.6116    7.4209 C   0  0  0  0  0  0  0  0  0  0  0  0
    1.5373    3.0269    6.2926 O   0  0  0  0  0  0  0  0  0  0  0  0
    2.3621   -4.0166   -0.8100 C   0  0  0  0  0  0  0  0  0  0  0  0
    1.4072    4.4083   -0.7363 C   0  0  0  0  0  0  0  0  0  0  0  0
    2.8912    4.6015   -1.0347 C   0  0  0  0  0  0  0  0  0  0  0  0
   -2.0787   -1.0121  -12.3285 F   0  0  0  0  0  0  0  0  0  0  0  0
   -1.7923    1.4426  -11.2075 F   0  0  0  0  0  0  0  0  0  0  0  0
    1.9437    6.5853   10.2682 F   0  0  0  0  0  0  0  0  0  0  0  0
    1.4604    4.9970   12.4151 F   0  0  0  0  0  0  0  0  0  0  0  0
   -1.1210    1.4524   -8.6809 H   0  0  0  0  0  0  0  0  0  0  0  0
   -1.6601   -3.0264  -10.8021 H   0  0  0  0  0  0  0  0  0  0  0  0
   -0.4209   -3.9283   -5.4723 H   0  0  0  0  0  0  0  0  0  0  0  0
   -0.0626   -4.1656   -3.1488 H   0  0  0  0  0  0  0  0  0  0  0  0
    0.3403   -4.6519   -0.3782 H   0  0  0  0  0  0  0  0  0  0  0  0
    1.1460   -3.7441    0.9264 H   0  0  0  0  0  0  0  0  0  0  0  0
   -0.2616   -3.6241    3.2895 H   0  0  0  0  0  0  0  0  0  0  0  0
   -0.7630   -3.3403    1.6056 H   0  0  0  0  0  0  0  0  0  0  0  0
   -2.4020   -1.6408    2.3534 H   0  0  0  0  0  0  0  0  0  0  0  0
   -2.7176   -3.2223    3.0756 H   0  0  0  0  0  0  0  0  0  0  0  0
   -1.9664   -1.9461    4.0369 H   0  0  0  0  0  0  0  0  0  0  0  0
    0.2436   -2.0084    5.5043 H   0  0  0  0  0  0  0  0  0  0  0  0
    0.5483   -0.7590    7.4841 H   0  0  0  0  0  0  0  0  0  0  0  0
    1.0063    2.5225   11.9325 H   0  0  0  0  0  0  0  0  0  0  0  0
    1.8826    5.3853    7.9468 H   0  0  0  0  0  0  0  0  0  0  0  0
    3.0145   -3.1725   -0.5970 H   0  0  0  0  0  0  0  0  0  0  0  0
    2.2647   -4.1158   -1.8876 H   0  0  0  0  0  0  0  0  0  0  0  0
    2.8215   -4.9197   -0.4178 H   0  0  0  0  0  0  0  0  0  0  0  0
    1.1034    5.0331    0.1057 H   0  0  0  0  0  0  0  0  0  0  0  0
    0.8059    4.6393   -1.6174 H   0  0  0  0  0  0  0  0  0  0  0  0
    3.1923    3.9670   -1.8647 H   0  0  0  0  0  0  0  0  0  0  0  0
    3.4845    4.3456   -0.1602 H   0  0  0  0  0  0  0  0  0  0  0  0
    3.0828    5.6376   -1.2978 H   0  0  0  0  0  0  0  0  0  0  0  0
  1  2  2  0  0  0  0
  1  3  1  0  0  0  0
  3  4  2  0  0  0  0
  4  5  1  0  0  0  0
  5  6  2  0  0  0  0
  6  7  1  0  0  0  0
  7  8  2  0  0  0  0
  3  8  1  0  0  0  0
  8  9  1  0  0  0  0
  9 10  2  0  0  0  0
 10 11  1  0  0  0  0
 11 12  3  0  0  0  0
 10 13  1  0  0  0  0
 13 14  3  0  0  0  0
  9 15  1  0  0  0  0
  1 15  1  0  0  0  0
 15 16  2  0  0  0  0
 17 18  2  0  0  0  0
 18 19  1  0  0  0  0
 19 20  1  0  0  0  0
 20 21  2  0  0  0  0
 17 21  1  0  0  0  0
 21 22  1  0  0  0  0
 22 23  1  0  0  0  0
 22 24  1  0  0  0  0
 24 25  2  0  0  0  0
 20 25  1  0  0  0  0
 25 26  1  0  0  0  0
 26 27  2  0  0  0  0
 27 28  1  0  0  0  0
 28 29  1  0  0  0  0
 29 30  2  0  0  0  0
 26 30  1  0  0  0  0
 30 31  1  0  0  0  0
 31 32  2  0  0  0  0
 24 32  1  0  0  0  0
 32 33  1  0  0  0  0
 33 34  1  0  0  0  0
 34 35  1  0  0  0  0
 33 36  1  0  0  0  0
 36 37  2  0  0  0  0
 31 37  1  0  0  0  0
 37 38  1  0  0  0  0
 38 39  1  0  0  0  0
 39 40  2  0  0  0  0
 36 40  1  0  0  0  0
 41 42  2  0  0  0  0
 42 43  1  0  0  0  0
 43 44  2  0  0  0  0
 44 45  1  0  0  0  0
 45 46  3  0  0  0  0
 44 47  1  0  0  0  0
 47 48  3  0  0  0  0
 43 49  1  0  0  0  0
 49 50  2  0  0  0  0
 50 51  1  0  0  0  0
 51 52  2  0  0  0  0
 52 53  1  0  0  0  0
 53 54  2  0  0  0  0
 49 54  1  0  0  0  0
 54 55  1  0  0  0  0
 55 56  2  0  0  0  0
 42 55  1  0  0  0  0
 23 57  1  0  0  0  0
 28 58  1  0  0  0  0
 58 59  1  0  0  0  0
 16 18  1  0  0  0  0
 39 41  1  0  0  0  0
  6 60  1  0  0  0  0
  5 61  1  0  0  0  0
 52 62  1  0  0  0  0
 51 63  1  0  0  0  0
  4 64  1  0  0  0  0
  7 65  1  0  0  0  0
 16 66  1  0  0  0  0
 17 67  1  0  0  0  0
 23 68  1  0  0  0  0
 23 69  1  0  0  0  0
 34 70  1  0  0  0  0
 34 71  1  0  0  0  0
 35 72  1  0  0  0  0
 35 73  1  0  0  0  0
 35 74  1  0  0  0  0
 40 75  1  0  0  0  0
 41 76  1  0  0  0  0
 50 77  1  0  0  0  0
 53 78  1  0  0  0  0
 57 79  1  0  0  0  0
 57 80  1  0  0  0  0
 57 81  1  0  0  0  0
 58 82  1  0  0  0  0
 58 83  1  0  0  0  0
 59 84  1  0  0  0  0
 59 85  1  0  0  0  0
 59 86  1  0  0  0  0
M  END
