98
Y26.sdf
C          1.35520        5.59400       -0.26470
O          0.70530        4.60520        0.00000
C          1.53390        6.78220        0.60200
C          1.00150        7.00880        1.85550
C          1.31430        8.20560        2.47990
C          2.14240        9.13890        1.85590
C          2.67780        8.91120        0.59640
C          2.36690        7.71740       -0.03470
C          2.75870        7.18210       -1.33670
C          3.45040        7.85000       -2.31250
C          3.96520        9.15390       -2.16270
N          4.40910       10.20940       -2.08560
C          3.68580        7.32780       -3.60230
N          3.87570        6.96990       -4.67630
C          2.20290        5.85230       -1.44960
C          2.62170        4.87740       -2.31810
C          0.71920        3.18900       -2.41720
C          2.05340        3.59180       -2.44500
S          3.19380        2.24200       -2.53490
C          1.89030        1.15160       -2.35920
C          0.63760        1.78900       -2.35870
N         -0.35080        0.84470       -2.13910
C         -1.62840        0.94060       -2.81630
C          0.28740       -0.37720       -1.93250
C          1.68460       -0.21620       -2.13450
C          2.54750       -1.32920       -2.09540
N          3.85570       -1.47380       -2.31440
N          4.06510       -2.75650       -2.15990
N          3.02380       -3.48840       -1.85340
C          2.01710       -2.61490       -1.79980
C          0.66420       -2.73740       -1.42130
C         -0.20460       -1.61180       -1.44910
N         -1.41560       -1.95690       -0.86290
C         -2.30670       -1.01320       -0.21070
C         -3.71000       -0.94210       -0.82810
C         -1.31600       -3.27060       -0.44730
C         -0.04840       -3.76850       -0.80290
S          0.23510       -5.35980       -0.24900
C         -1.31810       -5.31560        0.59970
C         -2.06870       -4.17100        0.32280
C         -1.56490       -6.34430        1.52430
C         -2.16960       -6.17970        2.74840
C         -2.45240       -7.23190        3.69710
C         -2.58520       -8.56490        3.40830
C         -2.49470       -9.10010        2.10570
N         -2.46580       -9.58900        1.06750
C         -2.87510       -9.55480        4.36910
N         -3.10230      -10.39750        5.11460
C         -2.66290       -6.60850        5.00240
C         -2.90530       -7.15540        6.25200
C         -3.06420       -6.28640        7.32210
C         -2.98660       -4.90330        7.16040
C         -2.74220       -4.34990        5.91360
C         -2.58410       -5.21440        4.84910
C         -2.31750       -4.87850        3.43120
O         -2.18800       -3.75990        2.97650
C         -1.51360        0.46710       -4.26640
C          5.35890       -3.33930       -2.36860
C          5.51400       -3.79340       -3.81720
F          2.43210       10.28260        2.48610
F          0.81670        8.46830        3.69470
F         -3.14950       -4.10100        8.22010
F         -3.29470       -6.79220        8.53900
C         -0.41200        4.14890       -2.61420
C         -0.78770        4.24810       -4.09640
C         -3.54120       -4.12080        0.57400
C         -4.28390       -4.39170       -0.73870
H          0.36390        6.28410        2.33600
H          3.31720        9.65940        0.15720
H          3.54650        5.03910       -2.86050
H         -2.36290        0.33080       -2.30420
H         -1.95360        1.97900       -2.77960
H         -2.38480       -1.30350        0.84170
H         -1.82280       -0.03500       -0.24080
H         -3.68730       -1.17410       -1.89110
H         -4.12370        0.05460       -0.69510
H         -4.38760       -1.64470       -0.35620
H         -1.11400       -7.30390        1.30020
H         -2.96800       -8.21690        6.42750
H         -2.67910       -3.28100        5.78620
H         -1.25720       -0.59000       -4.29800
H         -2.45970        0.61220       -4.78140
H         -0.73850        1.01860       -4.79480
H          5.44960       -4.19030       -1.69100
H          6.10260       -2.57910       -2.12330
H          4.75520       -4.53330       -4.06010
H          5.40890       -2.94530       -4.48940
H          6.49500       -4.23610       -3.96190
H         -0.11670        5.14010       -2.28020
H         -1.26820        3.84100       -2.01300
H         -1.61360        4.94430       -4.22100
H         -1.08330        3.28640       -4.50530
H          0.06130        4.61620       -4.66830
H         -3.82000       -4.89160        1.29010
H         -3.82590       -3.15900        0.99750
H         -3.96640       -3.70900       -1.52210
H         -4.08240       -5.40720       -1.07210
H         -5.35590       -4.28520       -0.59170
