97
Y5.mol
O          3.65370       -2.79670       -7.40930
C          3.37690       -2.09940       -8.36180
C          3.90540       -2.22740       -9.73510
C          4.70270       -3.22390      -10.26270
C          5.08700       -3.12130      -11.59250
C          4.68730       -2.03630      -12.35930
C          3.89130       -1.02840      -11.83090
C          3.49330       -1.12670      -10.50700
C          2.65840       -0.25800       -9.68100
C          1.99030        0.86100      -10.10710
C          1.10040        1.61330       -9.31230
N          0.34420        2.25680       -8.73460
C          2.08290        1.39270      -11.40950
N          2.12190        1.87900      -12.44880
C          2.57910       -0.84970       -8.36350
C          2.06520       -0.26060       -7.24230
C          1.74750       -0.88680       -6.01600
S          1.89740        0.11760       -4.57020
C          1.22470       -1.13440       -3.60030
C          0.87860       -2.24790       -4.37780
S          0.10360       -3.51280       -3.44880
C          0.24050       -2.53270       -2.03220
C         -0.12100       -2.56600       -0.67560
C         -0.69530       -3.57560        0.12870
N         -1.02630       -4.81160       -0.20930
S         -1.58860       -5.57140        1.10450
N         -1.43960       -4.35000        2.15580
C         -0.94220       -3.30310        1.51720
C          0.86140       -1.29930       -2.26200
N          0.89310       -0.56390       -1.10360
C          1.92260        0.43790       -0.92090
C          3.31760       -0.15700       -1.11320
C          0.25150       -1.30700       -0.12770
C         -0.18200       -0.97260        1.17890
N         -0.26990        0.23200        1.84840
C         -0.16670        1.58580        1.35010
C          0.99820        2.34410        1.98560
C         -0.72870       -1.99410        2.00610
C         -1.11760       -1.37640        3.20380
S         -1.91500       -1.78070        4.68220
C         -0.84320       -0.00990        3.06860
C         -1.31420        0.72880        4.15810
C         -1.93460       -0.08530        5.11630
C          1.16690       -2.12060       -5.74370
C          0.70420       -3.12570       -6.74800
C          1.35710       -4.49250       -6.54200
C         -3.99450        3.16480        7.44760
C         -4.41110        4.22670        8.33940
C         -5.86660        4.17340        8.44130
C         -6.33130        3.07630        7.69470
C         -5.19200        2.37830        7.06410
O         -5.25000        1.42670        6.31450
C         -7.67730        2.78160        7.60240
C         -8.57520        3.59860        8.27540
C         -8.12400        4.68400        9.01250
C         -6.77150        4.98610        9.10560
C         -3.58040        5.07040        9.02830
C         -4.02670        6.07950        9.90610
N         -4.33110        6.92120       10.62490
C         -2.17160        5.01080        8.97630
N         -1.02350        4.99860        8.99430
C         -2.51030        0.61330        6.18790
C         -2.33690        1.98290        6.03710
S         -1.37780        2.38880        4.61290
C         -3.11200       -0.04150        7.38520
C         -2.16830       -1.06720        8.01180
C         -2.78040        3.06690        6.82700
H          5.00590       -4.05730       -9.64780
H          5.70250       -3.89010      -12.03470
H          5.00100       -1.96960      -13.39030
H          3.60100       -0.19250      -12.44620
H          1.89810        0.81080       -7.26040
H          1.85640        0.83160        0.08750
H          1.76070        1.24410       -1.64380
H          3.45510       -0.51880       -2.12790
H          4.06560        0.60630       -0.91710
H          3.47260       -0.98450       -0.42390
H         -0.09080        1.56090        0.26310
H         -1.09750        2.10460        1.60590
H          0.81720        2.48620        3.04750
H          1.09620        3.32070        1.52070
H          1.93810        1.80740        1.87590
H          0.90480       -2.76490       -7.75710
H         -0.37960       -3.23130       -6.63210
H          0.99760       -5.18780       -7.29620
H          1.11380       -4.88790       -5.55940
H          2.43610       -4.40550       -6.62860
H         -8.00690        1.93500        7.01990
H         -9.63330        3.39050        8.22390
H         -8.83750        5.31240        9.52420
H         -6.44740        5.84020        9.67780
H         -3.36110        0.71960        8.12590
H         -4.04190       -0.52960        7.08180
H         -1.96330       -1.88390        7.32560
H         -2.62240       -1.47940        8.90920
H         -1.22650       -0.59690        8.28670
H         -2.11570        3.92320        6.85730
