99
Y6-O.mol
O         -1.26780        1.15090       -6.49220
C         -1.34900        1.79330       -7.52430
C         -1.55390        1.24220       -8.88080
C         -1.61330        2.29740       -9.80720
C         -1.47820        3.56380       -9.08520
C         -1.62340        4.80980       -9.63790
C         -1.83830        5.04360      -11.01270
N         -2.00420        5.29750      -12.11950
C         -1.63750        6.02220       -8.91650
N         -1.69870        7.04230       -8.39240
C         -1.25000        3.24270       -7.69250
C         -0.91480        4.14200       -6.70800
C         -0.69900        3.94960       -5.34230
C         -0.35450        5.03100       -4.49800
O         -0.14800        6.28220       -4.97210
C         -1.28150        7.15300       -5.03620
C         -1.79910        7.55680       -3.66380
C         -0.18450        4.62760       -3.17750
S          0.24150        5.47790       -1.70600
C          0.14270        3.98030       -0.84930
C         -0.19420        2.88450       -1.66120
N         -0.23850        1.73800       -0.90740
C          0.08690        2.09140        0.38590
C          0.28310        3.49770        0.46070
C          0.45110        4.13570        1.71260
N          0.59310        5.42650        1.96490
S          0.63530        5.63950        3.56810
N          0.47610        4.09040        4.00700
C          0.38800        3.34790        2.91560
C          0.32160        1.93810        2.81420
C          0.40000        0.90460        3.76050
S          0.45790        0.70500        5.47650
C          0.28230        1.30540        1.54140
N          0.40680       -0.06010        1.69870
C          0.46620       -0.30410        3.04860
C          0.57280       -1.41450        3.88680
S          0.71560       -3.12090        3.67950
C          0.57460       -1.02760        5.24030
C          0.68170       -2.10710        6.11140
O          0.77390       -2.02830        7.46000
C         -0.44600       -2.11840        8.20280
C         -1.34950       -0.90930        8.01220
C          0.77040       -3.33850        5.42070
C          0.88480       -4.54640        6.11110
C          1.00420       -5.83260        5.64010
C          1.16840       -6.21460        4.23790
O          1.10380       -5.50030        3.25300
C          1.08770       -7.02430        6.45710
C          1.42150       -8.13870        5.56840
C          1.45450       -7.66510        4.24560
C          1.72940       -8.49260        3.17540
C          1.98230       -9.82820        3.44490
F          2.25590      -10.66650        2.43790
C          1.95620      -10.30670        4.75490
F          2.20960      -11.59950        4.98560
C          1.67510       -9.47550        5.82960
C          0.82740       -7.13040        7.79860
C          0.92940       -8.33260        8.53010
N          1.00350       -9.27580        9.17970
C          0.36870       -6.08030        8.62170
N         -0.04690       -5.28720        9.34110
C          1.01410       -0.98710        0.76270
C          2.49790       -1.18470        1.06940
C         -1.05910        0.61550       -1.31860
C         -2.51520        1.03760       -1.50990
C         -0.39170        3.24740       -2.99430
S         -0.79980        2.43440       -4.46060
C         -1.78990        2.02420      -11.15400
C         -1.90300        0.69610      -11.53950
F         -2.06940        0.41060      -12.83540
C         -1.84690       -0.34410      -10.61190
F         -1.96310       -1.61090      -11.02830
C         -1.67070       -0.07910       -9.26310
H         -0.76540        5.17160       -7.01230
H         -2.08010        6.68230       -5.62350
H         -0.91070        8.02110       -5.58300
H         -0.99180        7.96910       -3.06370
H         -2.22180        6.70190       -3.13980
H         -2.57330        8.30950       -3.78120
H         -0.11340       -2.19580        9.23890
H         -0.97760       -3.04020        7.93440
H         -0.80020        0.00620        8.21780
H         -2.18940       -0.97970        8.69730
H         -1.73310       -0.86550        6.99490
H          0.90570       -4.41220        7.18650
H          1.74920       -8.11910        2.16410
H          1.66860       -9.89370        6.82280
H          0.49120       -1.94530        0.83370
H          0.92270       -0.59010       -0.24630
H          3.02000       -0.23060        1.03740
H          2.93390       -1.84700        0.32730
H          2.63820       -1.62960        2.05010
H         -1.02410       -0.15250       -0.54840
H         -0.66390        0.21810       -2.25830
H         -2.60940        1.76150       -2.31370
H         -3.11190        0.16590       -1.76240
H         -2.90450        1.47500       -0.59290
H         -1.83870        2.79060      -11.91000
H         -1.62700       -0.88060       -8.54310
