104
Y9.mol
O          0.14860       -4.15070       -4.71880
C         -0.42580       -4.80610       -5.57240
C          0.13040       -5.95930       -6.30340
C          1.37880       -6.53690       -6.18870
C          1.67130       -7.62930       -6.99370
C          0.72740       -8.11730       -7.88480
C         -0.53000       -7.53780       -8.00210
C         -0.83330       -6.44730       -7.20300
C         -2.04300       -5.63090       -7.08530
C         -3.19300       -5.81940       -7.80990
C         -3.36400       -6.83240       -8.77660
N         -3.57830       -7.62980       -9.57460
C         -4.36970       -5.04940       -7.71050
N         -5.36430       -4.47300       -7.69380
C         -1.78780       -4.62140       -6.07880
C         -2.68390       -3.66060       -5.67280
C         -2.57390       -2.64680       -4.71810
S         -1.14750       -2.34570       -3.72050
C         -3.61840       -1.74540       -4.43800
C         -4.94080       -1.69730       -5.13140
C         -4.84150       -0.91300       -6.44260
C         -3.25500       -0.84400       -3.44870
S         -4.10980        0.48230       -2.68250
C         -1.95370       -1.03330       -2.95010
C         -1.65880       -0.11320       -1.94360
C         -2.72030        0.76900       -1.68920
C         -2.30110        1.64320       -0.67580
C         -2.84330        2.80800       -0.09010
N         -3.98550        3.46720       -0.28980
N         -3.88450        4.52500        0.47590
N         -2.78360        4.63770        1.17630
C         -2.07550        3.55590        0.84970
C         -0.83730        3.05510        1.30740
C         -0.34890        1.82210        0.79310
N          0.78210        1.44330        1.49340
C          1.04050        2.43940        2.40210
C          5.71730        2.48890        6.34900
C          6.73000        2.69710        7.36330
C          6.82180        3.73630        8.25480
C          5.92740        4.82150        8.35520
N          5.24390        5.73290        8.50890
C          7.84130        3.86340        9.22120
N          8.63670        4.03350       10.03180
C          7.66220        1.57070        7.28870
C          8.80920        1.27290        8.00660
C          9.49850        0.10540        7.70200
C          9.06370       -0.75510        6.70520
C          7.91660       -0.46640        5.97880
C          7.23030        0.69300        6.27920
C          6.00250        1.22710        5.66220
O          5.36860        0.70960        4.75760
C          0.07080        3.44890        2.30060
C          1.21570        0.08530        1.75970
C          0.67670       -0.41570        3.09920
C         -4.94430        5.48560        0.57990
C         -5.88220        5.12740        1.72890
C         -0.99650        1.21610       -0.30250
N         -0.60330        0.16500       -1.11090
C          0.75250       -0.14070       -1.52500
C          1.07950        0.50540       -2.87090
C          4.67960        3.34850        6.07430
S          0.31340        4.75510        3.41140
C          1.73710        3.93360        4.02340
C          1.99380        2.70700        3.38540
C          2.65520        4.26190        5.00970
C          3.64260        3.26730        5.14170
S          3.40160        1.93430        4.00780
C          2.53490        5.49270        5.84760
C          1.80920        5.18650        7.16080
H          2.09700       -6.13960       -5.48790
H          2.63910       -8.10320       -6.92660
H          0.97070       -8.96780       -8.50400
H         -1.24150       -7.94070       -8.70390
H         -3.64640       -3.67860       -6.16550
H         -5.31290       -2.70170       -5.33840
H         -5.65310       -1.19830       -4.47120
H         -4.13460       -1.38480       -7.12100
H         -4.51260        0.10560       -6.25020
H         -5.81340       -0.88190       -6.92660
H          9.17380        1.92130        8.78600
H         10.39350       -0.13290        8.25700
H          9.62230       -1.65440        6.49360
H          7.55940       -1.12010        5.19800
H          0.84270       -0.56950        0.97480
H          2.30970        0.06440        1.77110
H         -0.40930       -0.34860        3.11650
H          1.07830        0.16580        3.92380
H          0.96550       -1.45350        3.23860
H         -5.48230        5.48160       -0.36980
H         -4.48780        6.46230        0.75170
H         -6.67460        5.86650        1.80340
H         -6.32770        4.15030        1.55850
H         -5.33200        5.10590        2.66650
H          0.85830       -1.22720       -1.60260
H          1.44780        0.24590       -0.78230
H          0.92820        1.58180       -2.81840
H          2.11800        0.30970       -3.12200
H          0.45360        0.10020       -3.66060
H          4.64410        4.24810        6.67320
H          1.95900        6.23140        5.28640
H          3.51510        5.91810        6.06690
H          0.81650        4.79000        6.96060
H          1.71200        6.09520        7.74770
H          2.36430        4.45760        7.74650
