112
ZITI-N.sdf
C          4.63830        0.01680        4.06180
S          6.31350       -0.21780        4.32380
C          6.20280        0.61320        5.88950
C          4.90060        1.00990        6.17670
C          4.02810        0.67980        5.15190
C          7.41200        0.76940        6.57910
C          7.73200        1.46180        7.72460
C          6.86900        2.32370        8.55240
C          7.77470        2.98680        9.51750
C          9.08620        2.52480        9.33240
C          9.08160        1.53250        8.25690
C          7.45230        3.92960       10.47320
C          8.48030        4.42510       11.25820
C          9.78900        3.97770       11.07790
C         10.11010        3.02610       10.12110
O          5.66720        2.49740        8.50000
C         10.17080        0.78870        7.88280
C         10.19380       -0.23680        6.91290
C         11.45330        0.92610        8.45620
N         12.52140        0.98920        8.87180
N         10.31250       -1.09580        6.15960
F         10.76460        4.47870       11.84500
C          3.65260       -0.19890        3.08130
C          2.45280        0.35520        3.62710
N          2.69960        0.85890        4.88100
C          3.65210       -0.78150        1.80780
C          2.48500       -0.74670        1.09670
C          1.30740       -0.13880        1.61850
C          1.27010        0.37830        2.90530
C          2.23420       -1.30380       -0.29980
C          0.79940       -0.88570       -0.50070
C          0.31740       -0.20580        0.58400
C          3.23280       -0.59280       -1.24170
C          2.43020       -2.83390       -0.19110
C          1.86120       -3.70260       -1.30400
C          2.97990       -0.66260       -2.74090
C         -0.22180       -0.97040       -1.50980
C         -1.36940       -0.28830       -1.00370
C         -1.10620        0.24270        0.39480
C         -1.26490        1.77690        0.33290
C         -1.97470       -0.44230        1.47090
C         -0.92980        2.54960        1.60060
C         -3.47380       -0.18940        1.38390
C         -0.21990       -1.52910       -2.78180
C         -1.35390       -1.35000       -3.55530
C         -2.47730       -0.61200       -3.07540
C         -2.47920       -0.08580       -1.77930
N         -1.58180       -1.75520       -4.85020
C         -2.80250       -1.26720       -5.23130
C         -3.38550       -0.56230       -4.15120
C         -3.58230       -1.25190       -6.37080
C         -4.76630       -0.52240       -6.18660
S         -4.90560        0.12170       -4.55020
C         -5.66800       -0.32430       -7.23550
C         -6.83620        0.40110       -7.29740
C         -7.45200        1.13400       -6.18980
C         -8.66310        1.77290       -6.74980
C         -8.77750        1.44050       -8.10960
C         -7.65070        0.58080       -8.48030
C         -9.57980        2.58150       -6.10910
C        -10.63920        3.06930       -6.85760
C        -10.76240        2.74540       -8.20820
C         -9.84050        1.93150       -8.85080
O         -7.07010        1.21460       -5.03710
C         -7.43390        0.07110       -9.73540
C         -6.35300       -0.74830      -10.12180
C         -8.27900        0.30490      -10.84090
N         -8.92120        0.45470      -11.78050
N         -5.50770       -1.41490      -10.52390
F        -11.79490        3.23060       -8.90800
F          8.21580        5.34400       12.19600
F        -11.55210        3.85980       -6.27850
C          1.73740        1.50350        5.73020
C         -0.66490       -2.50420       -5.66250
H          4.64820        1.52170        7.08580
H          8.24300        0.28340        6.08150
H          6.43870        4.27250       10.60600
H         11.13750        2.71720       10.02300
H          4.55580       -1.22550        1.42060
H          0.37040        0.78880        3.33130
H          3.24240        0.46300       -0.95590
H          4.22580       -0.99520       -1.03120
H          1.96330       -3.14910        0.74670
H          3.50150       -3.02510       -0.10040
H          2.32780       -3.48880       -2.26070
H          2.05310       -4.74780       -1.06810
H          0.78670       -3.56780       -1.38930
H          3.76130       -0.10570       -3.25510
H          2.02370       -0.21400       -2.99430
H          3.00720       -1.68450       -3.10690
H         -0.62340        2.13730       -0.47580
H         -2.29500        1.99370        0.04810
H         -1.79460       -1.51830        1.39830
H         -1.61550       -0.12150        2.44980
H         -1.51680        2.19850        2.44560
H          0.12730        2.46750        1.83650
H         -1.15990        3.60230        1.44820
H         -3.70250        0.87180        1.43380
H         -3.88570       -0.59740        0.46560
H         -3.96850       -0.67960        2.22010
H          0.63150       -2.05890       -3.17020
H         -3.33400        0.47700       -1.44080
H         -3.34100       -1.71200       -7.31230
H         -5.36130       -0.81510       -8.15110
H         -9.47930        2.82920       -5.06450
H         -9.98290        1.71290       -9.89610
H          2.22640        1.80530        6.65340
H          1.32460        2.38990        5.24170
H          0.91910        0.81980        5.96910
H          0.23540       -1.92010       -5.87360
H         -1.14780       -2.75860       -6.60290
H         -0.37410       -3.42630       -5.15420
