114
ZITI-C.sdf
C          1.23580       -3.83220       -3.38870
S          0.58280       -5.40580       -3.47660
C          0.54900       -5.29230       -5.23310
C          1.06320       -4.06040       -5.67710
C          1.42710       -3.23470       -4.64120
C          0.02430       -6.23370       -6.12040
C         -0.64690       -7.41330       -5.88620
C         -0.95540       -7.97650       -4.57140
C         -1.80750       -9.15840       -4.82560
C         -1.97320       -9.32210       -6.21070
C         -1.23540       -8.26120       -6.90100
C         -2.39440      -10.00550       -3.90760
C         -3.17240      -11.04250       -4.39720
C         -3.34530      -11.21290       -5.77040
C         -2.75160      -10.36260       -6.69210
O         -0.59880       -7.57510       -3.47850
C         -1.13860       -8.13190       -8.26300
C         -1.75000       -9.00720       -9.18550
C         -0.42020       -7.13050       -8.94900
N          0.13920       -6.35540       -9.58660
N         -2.22150       -9.67810       -9.98860
F         -4.10580      -12.22000       -6.21580
C          1.53650       -2.90090       -2.35140
C          1.89550       -1.68050       -2.96960
C          1.93890       -1.83400       -4.47410
C          1.44580       -3.01550       -0.96450
C          1.64720       -1.87830       -0.22320
C          1.94720       -0.63430       -0.83970
C          2.10470       -0.54450       -2.22370
C          1.50260       -1.71220        1.27570
C          1.64680       -0.22580        1.39340
C          1.93590        0.36140        0.19450
C          2.61900       -2.46310        2.02830
C          0.12800       -2.20120        1.76680
C         -1.03310       -1.46320        1.11160
C          4.01700       -2.02030        1.61490
C          1.42350        0.77000        2.39280
C          1.54840        2.03500        1.76020
C          1.97010        1.86370        0.30760
C          3.39920        2.42980        0.17360
C          0.95820        2.44880       -0.69940
C          4.06130        2.19260       -1.17640
C          0.85810        3.96720       -0.77290
C          1.07590        0.65020        3.73810
C          0.78120        1.80330        4.42470
C          0.86090        3.06060        3.78060
C          1.29690        3.18910        2.46110
C          0.28850        1.95720        5.84730
C          0.00590        3.43020        5.90200
C          0.36630        4.03860        4.69280
C         -0.57390        4.31310        6.78080
C         -0.69890        5.60770        6.24520
S         -0.02160        5.69890        4.62290
C         -1.35490        6.62870        6.93520
C         -1.70930        7.89870        6.53780
C         -1.43930        8.49270        5.22810
C         -2.13510        9.79790        5.22300
C         -2.75630        9.99780        6.46670
C         -2.48390        8.83850        7.32000
C         -2.22040       10.72010        4.19970
C         -2.95420       11.87210        4.43360
C         -3.57680       12.07960        5.66390
C         -3.48710       11.15320        6.69300
O         -0.78290        8.02960        4.31300
C         -2.89940        8.70700        8.62050
C         -3.65720        9.67710        9.31020
C         -2.63540        7.60880        9.46540
N         -2.46650        6.75900       10.21990
N         -4.27460       10.42210        9.92770
F         -4.28350       13.19880        5.86110
F         -3.76620      -11.88620       -3.54340
F         -3.06910       12.79260        3.46770
C          3.35470       -1.65810       -5.03100
C         -0.94620        1.10730        6.15010
H          1.11950       -3.81600       -6.72320
H          0.13310       -5.94130       -7.15790
H         -2.25890       -9.86790       -2.84680
H         -2.91960      -10.53800       -7.74180
H          1.27330       -1.11230       -4.95910
H          1.18610       -3.96070       -0.51280
H          2.34800        0.39020       -2.70420
H          2.50520       -3.53210        1.83810
H          2.49010       -2.29630        3.09970
H          0.04380       -3.26910        1.55760
H          0.07330       -2.06940        2.84880
H         -1.97850       -1.86820        1.46420
H         -0.99480       -1.57020        0.02980
H         -1.00200       -0.40330        1.35430
H          4.17350       -2.18270        0.55090
H          4.16460       -0.96370        1.82680
H          4.76490       -2.58830        2.16320
H          3.36680        3.49960        0.38420
H          4.01080        1.96480        0.95170
H          1.21850        2.07020       -1.68840
H         -0.02470        2.04060       -0.44850
H          5.05410        2.63780       -1.17610
H          3.49010        2.64680       -1.98190
H          4.16790        1.12860       -1.37070
H          1.82450        4.42230       -0.97190
H          0.45270        4.38460        0.14330
H          0.18630        4.23820       -1.58500
H          1.01870       -0.31820        4.21070
H          1.39880        4.17130        2.02920
H          1.08540        1.69090        6.55130
H         -0.93280        4.07310        7.76600
H         -1.67010        6.33110        7.92810
H         -1.73860       10.55370        3.24950
H         -3.98920       11.36200        7.62310
H          3.35990       -1.82980       -6.10420
H          4.03140       -2.36790       -4.56070
H          3.71510       -0.65140       -4.83520
H         -1.74510        1.34640        5.45180
H         -0.71070        0.05010        6.06070
H         -1.29640        1.30070        7.16060
