89
ZY-4Cl.sdf
C          8.01750        5.20070        1.91310
O          8.18400        6.40060        1.91620
C          9.05470        4.14750        2.08500
C         10.41480        4.27340        2.28020
C         11.17070        3.11210        2.41110
Cl        12.86780        3.23220        2.65360
C         10.56510        1.85320        2.34730
Cl        11.52230        0.43510        2.51330
C          9.19330        1.73180        2.14990
C          8.44950        2.88700        2.01930
C          6.98750        3.04350        1.79970
O          6.17930        2.13710        1.70210
C          6.74680        4.47820        1.73340
C          5.57570        5.15940        1.53170
C          4.27680        4.68630        1.31760
S          3.86150        2.97060        1.29600
C          2.21800        3.36140        0.96160
C          2.01440        4.74920        0.87270
C          3.16230        5.50410        1.08040
C          3.18320        6.99470        0.98820
C          3.58630        7.44350       -0.41910
S          0.35700        5.19380        0.50870
C         -0.05240        3.51360        0.47330
C          1.02670        2.66330        0.73910
N          0.61850        1.35790        0.68730
C          1.61050        0.30820        0.61250
C          1.68400       -0.29310       -0.78870
C         -0.72790        1.34630        0.37040
C         -1.16040        2.69700        0.21320
C         -2.46230        3.02120       -0.22850
N         -2.98910        4.21710       -0.43940
S         -4.48810        4.02170       -1.01900
N         -4.52280        2.40320       -1.02200
C         -3.36200        1.95850       -0.56730
C         -2.95450        0.62440       -0.34690
C         -1.67490        0.30240        0.19120
N         -1.62270       -1.06740        0.39530
C         -0.75840       -1.85010        1.25110
C         -0.77120       -1.32940        2.68600
C         -2.81290       -1.59730       -0.02520
C         -3.64810       -0.58420       -0.50420
S         -5.17100       -1.15780       -1.08360
C         -4.68700       -2.79560       -0.69530
C         -3.40820       -2.85880       -0.12450
S         -2.96250       -4.48000        0.24640
C         -4.46120       -5.07560       -0.47080
C         -5.29520       -4.04670       -0.89120
C         -6.69020       -4.25140       -1.37390
C         -7.68680       -3.26510       -0.77100
C         -4.61900       -6.47880       -0.49950
C         -5.22760       -7.24330       -1.44980
C         -5.62130       -6.88090       -2.81840
O         -5.50230       -5.81210       -3.37980
C         -6.09910       -8.14600       -3.44020
C         -6.59090       -8.35430       -4.71340
C         -6.95770       -9.64670       -5.07310
Cl        -7.57890       -9.94070       -6.64810
C         -6.82400      -10.70660       -4.16950
Cl        -7.27820      -12.29480       -4.64350
C         -6.32200      -10.49210       -2.89020
C         -5.96350       -9.20620       -2.53710
C         -5.39040       -8.70030       -1.26340
O         -5.11820       -9.34300       -0.27470
H         10.88190        5.24430        2.32970
H          8.72660        0.76060        2.10010
H          5.68760        6.23940        1.52880
H          3.87350        7.41550        1.72040
H          2.18010        7.36570        1.20790
H          2.88870        7.04870       -1.15380
H          4.58500        7.08960       -0.66400
H          3.57670        8.52840       -0.48020
H          1.42200       -0.45280        1.36970
H          2.57060        0.77000        0.85510
H          0.72430       -0.70150       -1.09710
H          2.42850       -1.08400       -0.81200
H          1.97240        0.47260       -1.50490
H          0.25290       -1.89030        0.84630
H         -1.14950       -2.87040        1.23560
H         -1.77650       -1.39440        3.09580
H         -0.45320       -0.29050        2.73270
H         -0.10710       -1.92870        3.30280
H         -6.99680       -5.27220       -1.13550
H         -6.69310       -4.16050       -2.46480
H         -7.62920       -3.27880        0.31540
H         -8.69520       -3.54400       -1.06560
H         -7.49970       -2.25240       -1.11630
H         -4.15360       -7.02880        0.31470
H         -6.68910       -7.53750       -5.41110
H         -6.21270      -11.30980       -2.19540
