22

C         -2.65660       -0.48570        0.96980
C         -1.32230       -0.45970        0.99670
C         -0.51940       -1.70550        1.21670
O         -0.95090       -2.81540        1.39910
C          0.89270       -1.27550        1.16100
C          2.02810       -2.05320        1.29370
C          3.25650       -1.42240        1.19840
F          4.38000       -2.13410        1.31780
C          3.33380       -0.04410        0.97640
F          4.53270        0.53650        0.88760
C          2.19760        0.73680        0.84430
C          0.96040        0.11230        0.93730
C         -0.38890        0.65730        0.83390
C         -0.72000        1.96250        0.62560
C          0.21880        3.01110        0.48720
N          0.93510        3.89860        0.37110
C         -2.04500        2.44550        0.51840
N         -3.09290        2.89960        0.41700
H         -3.15430       -1.43180        1.11460
H         -3.27370        0.38080        0.81130
H          1.96380       -3.11620        1.46430
H          2.31080        1.79490        0.67400
