22

C          0.84580       -0.44500        3.94700
C          0.50900       -0.38600        2.65710
C         -0.47780       -1.34450        2.05860
O         -1.06350       -2.22310        2.64310
C         -0.56620       -0.97870        0.63460
C         -1.32750       -1.56340       -0.36060
C         -1.24140       -1.04600       -1.64410
C         -0.40950        0.03300       -1.91440
C          0.35580        0.62500       -0.92070
C          0.27950        0.11600        0.36920
C          0.95870        0.51690        1.59550
C          1.84660        1.54250        1.73240
C          2.49310        1.88640        2.94140
N          3.05370        2.21210        3.88750
C          2.24310        2.40220        0.68300
N          2.60080        3.13250       -0.12620
H          0.38660       -1.20230        4.56300
H          1.55120        0.21670        4.41780
H         -1.96640       -2.40160       -0.12850
H         -1.82330       -1.48380       -2.44090
H         -0.35430        0.42230       -2.91990
H          0.99280        1.46120       -1.15860
