22

O          1.10840        1.40770        4.21150
C          1.15620        0.74130        3.20160
N          2.10490       -0.25330        3.06250
C          2.31440       -1.10830        1.99780
O          3.20030       -1.93290        2.03730
C          1.39500       -0.92560        0.86150
C          1.51400       -1.72590       -0.25530
C          0.64720       -1.56150       -1.33970
C         -0.33130       -0.60250       -1.30480
C         -0.48480        0.23560       -0.18030
C         -1.48050        1.23270       -0.11040
C         -1.60180        2.02990        0.99780
C         -0.73590        1.86710        2.08310
C          0.24980        0.90320        2.05170
C          0.39430        0.06960        0.92050
H          2.73470       -0.37210        3.85110
H          2.28800       -2.47830       -0.27280
H          0.75520       -2.19710       -2.20550
H         -1.00250       -0.47350       -2.14160
H         -2.14850        1.35650       -0.95060
H         -2.36750        2.78960        1.04010
H         -0.82310        2.48990        2.96070
