46

C          2.79770       -5.87430        1.81800
C          3.37800       -4.53750        2.27060
N          2.53550       -3.45330        1.85750
N          1.49550       -3.08300        2.56440
C          0.95490       -2.09150        1.85250
C          1.75330       -1.91440        0.68560
N          2.74390       -2.80830        0.73560
C          1.44890       -0.87810       -0.21790
C          2.07770       -0.38140       -1.37800
S          3.40570       -0.71790       -2.42100
C          3.02450        0.69250       -3.35890
C          1.94530        1.38720       -2.90840
C          1.39510        0.76640       -1.76840
N          0.33980        0.99920       -0.91350
C         -0.09700        2.35770       -0.68130
C          1.04510        3.23270       -0.16170
C          0.34880       -0.02080        0.03280
C         -0.56130       -0.33370        1.07180
C         -0.21230       -1.32230        2.02640
C         -1.28120       -1.38250        2.94040
S         -1.77320       -2.23810        4.35080
C         -3.29170       -1.39930        4.32510
C         -3.42330       -0.51260        3.30200
C         -2.25930       -0.49190        2.50550
N         -1.82470        0.15810        1.37340
C         -2.77320        0.77150        0.46990
C         -3.30850        2.10430        0.99410
H          3.44210       -6.68710        2.14090
H          1.80940       -6.01470        2.24900
H          2.71610       -5.89900        0.73410
H          4.36010       -4.37350        1.82290
H          3.45000       -4.50500        3.36000
H          3.63790        0.92180       -4.20750
H          1.57040        2.28010       -3.37550
H         -0.48470        2.76530       -1.62080
H         -0.88850        2.35450        0.06070
H          1.43110        2.82360        0.76970
H          0.68390        4.24150        0.02170
H          1.85850        3.27700       -0.88120
H         -4.00990       -1.61910        5.09010
H         -4.30770        0.07710        3.14290
H         -3.61910        0.08300        0.34440
H         -2.30310        0.89190       -0.50720
H         -3.96630        2.55080        0.25280
H         -2.50480        2.80360        1.21300
H         -3.87130        1.95300        1.91040
