22

C         -0.84120       -0.83020        3.64550
C         -0.14970       -0.37400        2.59890
C          1.20360        0.24730        2.76570
O          1.79400        0.41630        3.80260
C          1.64250        0.59910        1.40010
C          2.82990        1.18620        1.01080
C          3.01650        1.41320       -0.34560
Br         4.63080        2.21150       -0.94240
C          2.04730        1.06550       -1.28080
C          0.85850        0.47830       -0.88250
C          0.64740        0.23880        0.47090
C         -0.47990       -0.36170        1.17180
C         -1.63040       -0.82620        0.60610
C         -2.69560       -1.41500        1.32500
N         -3.59090       -1.90540        1.84770
C         -1.91160       -0.78190       -0.77840
N         -2.19290       -0.76930       -1.89000
H         -0.40530       -0.73940        4.62810
H         -1.81200       -1.28760        3.57370
H          3.57780        1.45260        1.74140
H          2.22640        1.25640       -2.32780
H          0.12130        0.21800       -1.62430
