98

C          0.72980        5.58390        3.81510
C          1.85570        4.81410        4.50800
C          2.06790        3.48410        3.84340
C          3.01330        3.32850        2.83960
C          3.18060        2.11290        2.20020
C          2.40520        1.02120        2.55950
C          2.52740       -0.31560        1.85650
C          2.49610       -1.46520        2.84730
C          1.76400       -2.61910        2.61140
C          1.79710       -3.66440        3.51640
C          2.56500       -3.58730        4.67000
C          2.63750       -4.74590        5.62260
C          3.74440       -5.71410        5.20000
C          3.30420       -2.43290        4.89480
C          3.27140       -1.38370        3.99730
C          3.76870       -0.47660        1.01140
C          3.44050       -0.66230       -0.32410
S          4.80620       -0.90520       -1.36050
C          5.85400       -0.76450        0.02000
C          7.24940       -0.82270        0.19390
C          7.59040       -0.64690        1.49650
S          6.23210       -0.40640        2.54700
C          5.15060       -0.54350        1.20780
C          2.02940       -0.60510       -0.46390
S          0.87660       -0.71020       -1.75220
C         -0.40320       -0.46400       -0.60290
C         -1.79320       -0.39610       -0.67520
C         -2.35770       -0.16930        0.57360
S         -1.20440       -0.05570        1.86080
C          0.07500       -0.30690        0.71210
C          1.46340       -0.39990        0.78800
C         -3.76700       -0.08210        0.43010
S         -5.13280        0.15620        1.46700
C         -6.17900        0.04210        0.08260
C         -7.57280        0.12390       -0.09480
C         -7.91180       -0.02690       -1.40120
S         -6.55410       -0.27240       -2.45070
C         -5.47500       -0.17310       -1.10580
C         -4.09320       -0.23690       -0.90980
C         -2.85730       -0.47940       -1.74350
C         -2.99210       -1.85560       -2.36990
C         -3.77550       -2.00330       -3.50790
C         -3.96360       -3.25020       -4.07090
C         -3.37900       -4.38040       -3.51330
C         -3.54710       -5.72850       -4.15310
C         -2.44350       -5.97230       -5.18430
C         -2.59980       -4.22610       -2.37540
C         -2.41170       -2.98060       -1.80390
C         -2.58270        0.58090       -2.79070
C         -3.20610        1.81910       -2.75890
C         -2.90470        2.77720       -3.71010
C         -1.96800        2.52830       -4.70340
C         -1.67760        3.55140       -5.76350
C         -2.59010        3.33910       -6.97320
C         -1.33830        1.29000       -4.72200
C         -1.63910        0.32740       -3.77860
C          1.45030        1.17260        3.55780
C          1.28550        2.38910        4.18940
H          0.57180        6.54530        4.29850
H         -0.19750        5.01700        3.85670
H          0.97720        5.75630        2.77010
H          2.77470        5.40170        4.46470
H          1.59480        4.66420        5.55780
H          3.63070        4.16810        2.55250
H          3.92090        2.01810        1.41930
H          1.16240       -2.70660        1.71870
H          1.21510       -4.55410        3.32130
H          1.68240       -5.27510        5.63620
H          2.84230       -4.38350        6.63190
H          4.70620       -5.20620        5.18940
H          3.55020       -6.09760        4.20080
H          3.80140       -6.55320        5.88970
H          3.91220       -2.35230        5.78450
H          3.84800       -0.49070        4.19050
H          7.95380       -0.98540       -0.60090
H          8.57360       -0.64350        1.92300
H         -8.27740        0.28520        0.69990
H         -8.89380       -0.01160       -1.83020
H         -4.23770       -1.13470       -3.95420
H         -4.57840       -3.34730       -4.95430
H         -3.50500       -6.50850       -3.39000
H         -4.51950       -5.78510       -4.64660
H         -1.46590       -5.92680       -4.70960
H         -2.56150       -6.95060       -5.64490
H         -2.48020       -5.21420       -5.96350
H         -2.13720       -5.09230       -1.92370
H         -1.80960       -2.88970       -0.91190
H         -3.93190        2.04040       -1.99010
H         -3.40400        3.73520       -3.67480
H         -0.63580        3.47020       -6.08030
H         -1.83660        4.55520       -5.36440
H         -3.63380        3.42520       -6.67890
H         -2.43480        2.34820       -7.39420
H         -2.38320        4.08020       -7.74200
H         -0.60080        1.07710       -5.48260
H         -1.14250       -0.63160       -3.80990
H          0.83880        0.32920        3.84460
H          0.54020        2.48870        4.96560
