57

C          7.68950        0.02770        1.85170
C          7.51810        0.01350        0.33230
C          6.39460       -0.88990       -0.06610
C          6.55340       -2.13300       -0.58990
Se         4.95050       -3.02570       -0.93860
C          4.09560       -1.49620       -0.28280
C          5.03120       -0.54000        0.10630
S          4.30850        0.92570        0.72690
C          2.74320        0.24200        0.46240
C          1.38970        0.56600        0.65300
C          0.80550        1.71210        1.22970
N          1.40140        2.79490        1.70490
S          0.26240        3.78870        2.28860
N         -1.03370        2.87480        1.95630
C         -0.61890        1.75950        1.37550
C         -1.38650        0.68390        0.88400
C         -2.78050        0.51610        0.83900
S         -4.22100        1.34970        1.30610
C         -5.17060        0.06340        0.59830
C         -6.57650       -0.09340        0.50030
C         -7.54310        0.89250        1.07520
C         -7.61970        0.75500        2.59610
C         -6.93170       -1.23930       -0.13680
Se        -5.48700       -2.27780       -0.70390
C         -4.39690       -0.95150        0.03940
C         -3.02300       -0.68650        0.18310
N         -1.83780       -1.26690       -0.17790
C         -1.88500       -2.48190       -0.95140
C         -2.09540       -3.70930       -0.06380
C         -0.80220       -0.45590        0.25910
C          0.62000       -0.54220        0.19410
N          1.50830       -1.51830       -0.22960
C          1.34430       -2.87230       -0.69550
C          1.44290       -2.96260       -2.21880
C          2.78110       -1.03950       -0.07780
H          6.77760        0.37410        2.33100
H          7.91580       -0.97170        2.21680
H          8.50230        0.69310        2.13190
H          7.29670        1.02600       -0.01320
H          8.44280       -0.32200       -0.14050
H          7.48770       -2.61730       -0.80770
H         -7.21020        1.90180        0.82250
H         -8.53110        0.73230        0.64030
H         -8.32280        1.47710        3.00370
H         -7.94930       -0.24500        2.86970
H         -6.64380        0.93270        3.04040
H         -7.93400       -1.57280       -0.33500
H         -2.74270       -2.39580       -1.63200
H         -0.99310       -2.56930       -1.56490
H         -1.36010       -3.75140        0.73720
H         -3.08310       -3.66990        0.39250
H         -2.02720       -4.61610       -0.65870
H          2.16260       -3.46190       -0.26070
H          0.41290       -3.28670       -0.32060
H          0.75630       -2.27140       -2.70400
H          1.22160       -3.97430       -2.54760
H          2.45200       -2.70890       -2.53920
