94

C          2.10610        4.72990       -0.66780
C          1.77980        4.88370       -2.15470
C          1.40430        3.55540       -2.74630
C          0.08910        3.10980       -2.71680
C         -0.24940        1.86780       -3.21780
C          0.72520        1.03450       -3.75180
C          0.31360       -0.33920       -4.26950
C         -0.26450       -0.27320       -5.67020
C         -1.07280       -1.30950       -6.11730
C         -1.57570       -1.29840       -7.40390
C         -1.27790       -0.25910       -8.27580
C         -1.77950       -0.27620       -9.69120
C         -0.77930       -0.99040      -10.60260
C         -0.46360        0.77040       -7.82330
C          0.03830        0.76870       -6.53460
O         -0.73800       -0.84230       -3.41590
C         -0.33690       -1.30510       -2.21330
C          0.90720       -1.87100       -1.98830
S          1.12420       -2.43190       -0.35370
C         -0.48340       -1.92530        0.03240
C         -1.27150       -1.94630        1.19330
C         -2.52310       -1.39860        0.96530
S         -2.73580       -0.82410       -0.66560
C         -1.13450       -1.34660       -1.05920
C         -3.45470       -1.42800        2.03740
S         -5.16950       -1.21770        1.99550
C         -5.27150       -1.57260        3.67980
C         -4.05960       -1.84200        4.23610
C         -3.01090       -1.75810        3.29970
C         -1.52780       -1.91870        3.53980
C         -1.29560       -2.89440        4.67690
C         -1.07750       -2.45180        5.97370
C         -0.91400       -3.36300        7.00090
C         -0.96510       -4.72950        6.75970
C         -0.73590       -5.71550        7.86890
C          0.75100       -6.06080        7.97360
C         -1.18490       -5.16360        5.45880
C         -1.35480       -4.25880        4.42870
C         -0.87110       -0.56930        3.80930
C         -1.59210        0.53990        4.22610
C         -0.95170        1.74750        4.43860
C          0.41580        1.87650        4.23860
C          1.09860        3.20300        4.41010
C          1.17800        3.93450        3.06870
C          1.13240        0.76000        3.82570
C          0.49970       -0.44970        3.61750
O         -0.89930       -2.49010        2.37070
C          1.79370       -1.96560       -3.09410
S          3.21490       -2.93310       -3.26910
C          3.38880       -2.41230       -4.90350
C          2.40820       -1.55200       -5.28970
C          1.48980       -1.28830       -4.25470
C          2.04070        1.47480       -3.78750
C          2.37200        2.72230       -3.29130
H          2.93240        4.03540       -0.53320
H          1.24380        4.34340       -0.12970
H          2.38410        5.68870       -0.23610
H          0.95340        5.58780       -2.26990
H          2.64990        5.28900       -2.67520
H         -0.68040        3.74390       -2.29990
H         -1.27540        1.53120       -3.19340
H         -1.31130       -2.12140       -5.44740
H         -2.20710       -2.10970       -7.73710
H         -2.74020       -0.79260       -9.73790
H         -1.92290        0.74620      -10.04610
H         -1.13700       -0.99840      -11.62970
H         -0.63710       -2.01800      -10.27560
H          0.18430       -0.48650      -10.57380
H         -0.22150        1.58880       -8.48640
H          0.66650        1.58160       -6.20120
H         -6.23060       -1.55730        4.15690
H         -3.91470       -2.08840        5.27260
H         -1.03440       -1.39270        6.18200
H         -0.74510       -3.00520        8.00680
H         -1.30420       -6.62780        7.67710
H         -1.07550       -5.29360        8.81710
H          0.92060       -6.77780        8.77360
H          1.33280       -5.16510        8.17930
H          1.10540       -6.49060        7.03950
H         -1.22990       -6.22330        5.25100
H         -1.52590       -4.60670        3.42150
H         -2.65740        0.46460        4.38880
H         -1.52680        2.60320        4.76340
H          2.10840        3.05270        4.79790
H          0.54540        3.81630        5.12400
H          1.73940        3.34330        2.34890
H          1.66990        4.89730        3.18630
H          0.17920        4.10050        2.67040
H          2.19870        0.83840        3.66810
H          1.06370       -1.31320        3.29650
H          4.21490       -2.77720       -5.47990
H          2.34060       -1.11840       -6.27140
H          2.81190        0.84470       -4.20590
H          3.40080        3.05180       -3.32730
