100

C          2.67940        2.30150        5.34910
C          4.04700        1.90390        4.78880
C          3.87660        1.20440        3.47160
C          3.66770       -0.16670        3.41940
C          3.43290       -0.80690        2.21630
C          3.40090       -0.07880        1.03620
C          3.04770       -0.71800       -0.29430
C          3.18080       -2.23500       -0.26020
C          2.09390       -3.06920       -0.04000
C          2.26290       -4.44130       -0.01260
C          3.51270       -5.01220       -0.21160
C          3.69770       -6.50060       -0.13810
C          4.00100       -6.92950        1.29900
C          4.59650       -4.17130       -0.42960
C          4.43530       -2.79960       -0.45090
O          3.98240       -0.20120       -1.26530
C          3.60380       -0.29240       -2.55730
C          2.28340       -0.28320       -2.97380
S          2.10880       -0.33690       -4.70620
C          3.83030       -0.35610       -4.88440
C          4.70870       -0.40410       -5.98330
C          6.00440       -0.40870       -5.57490
S          6.19750       -0.35920       -3.85400
C          4.48300       -0.32890       -3.65370
C          1.27590       -0.17470       -1.98210
S         -0.40540        0.23830       -2.20630
C         -0.63070        0.23140       -0.48800
C         -1.72540        0.43390        0.36160
C         -1.36210        0.30220        1.68610
S          0.32570       -0.08290        1.91170
C          0.55390       -0.06860        0.19350
C          1.63960       -0.30960       -0.65800
C         -2.33190        0.58030        2.68240
S         -2.22930        0.33600        4.40420
C         -3.78440        1.06820        4.60630
C         -4.61180        1.33960        5.71230
C         -5.76790        1.93810        5.32400
S         -5.88980        2.18520        3.61370
C         -4.33650        1.46560        3.39020
C         -3.51330        1.18400        2.28580
O         -3.79120        1.52000        1.00860
C         -3.16390        0.70900       -0.00750
C         -3.94690       -0.59110       -0.13660
C         -3.32980       -1.80100       -0.42120
C         -4.08100       -2.95610       -0.53670
C         -5.45830       -2.93390       -0.36390
C         -6.27350       -4.18300       -0.53680
C         -6.70910       -4.33600       -1.99560
C         -6.06960       -1.71940       -0.07980
C         -5.32540       -0.56080        0.03000
C         -3.18110        1.52090       -1.28970
C         -2.76660        2.84560       -1.24480
C         -2.68600        3.59130       -2.40410
C         -3.00950        3.03140       -3.63360
C         -2.83860        3.81520       -4.90240
C         -1.42570        3.61420       -5.45520
C         -3.43330        1.71040       -3.66860
C         -3.52100        0.95870       -2.51110
C          3.62040        1.29180        1.07870
C          3.85890        1.92330        2.28320
H          2.05990        1.41940        5.49460
H          2.16670        2.96520        4.65660
H          2.79100        2.81190        6.30290
H          4.65860        2.79900        4.65970
H          4.54990        1.24430        5.49870
H          3.68160       -0.74330        4.33310
H          3.26500       -1.87320        2.19900
H          1.11060       -2.65170        0.11800
H          1.40730       -5.07810        0.16210
H          4.52290       -6.80360       -0.78560
H          2.79130       -7.00430       -0.48030
H          3.18290       -6.64760        1.95820
H          4.13700       -8.00710        1.35450
H          4.90800       -6.44550        1.65420
H          5.57860       -4.59490       -0.58410
H          5.28420       -2.15320       -0.61830
H          4.39450       -0.43130       -7.00990
H          6.88330       -0.43820       -6.18750
H         -4.35980        1.10580        6.72980
H         -6.57890        2.26010        5.94630
H         -2.26020       -1.84680       -0.56150
H         -3.58640       -3.89050       -0.76120
H         -7.15890       -4.13920        0.10050
H         -5.68370       -5.05410       -0.24410
H         -7.29710       -5.24160       -2.12500
H         -7.31120       -3.48330       -2.30150
H         -5.83880       -4.39030       -2.64600
H         -7.14090       -1.67960        0.05630
H         -5.80930        0.37980        0.24840
H         -2.50590        3.28720       -0.29420
H         -2.35810        4.62000       -2.35550
H         -3.00360        4.87730       -4.71020
H         -3.56680        3.48400       -5.64530
H         -0.68620        3.95200       -4.73260
H         -1.24550        2.56080       -5.65750
H         -1.29320        4.17520       -6.37740
H         -3.69290        1.25860       -4.61520
H         -3.84570       -0.06970       -2.56200
H          3.60110        1.86010        0.16040
H          4.02450        2.99120        2.30250
