22

C          1.19270        0.34610        3.36620
C         -0.14180        0.11850        2.65700
N          0.02390        0.03870        1.23040
C          0.34640       -1.08430        0.51300
C          0.49720       -2.46270        0.77020
C          0.81450       -3.13730       -0.36580
S          0.94020       -2.13790       -1.77970
C          0.55610       -0.74670       -0.83340
C          0.37240        0.63930       -0.93230
S          0.40000        1.93640       -2.07040
C         -0.00670        3.05610       -0.80770
C         -0.15920        2.48770        0.41700
C          0.05740        1.09550        0.35750
H          1.87700       -0.47110        3.14990
H          1.04190        0.40280        4.44080
H          1.64560        1.27430        3.02530
H         -0.59580       -0.81450        3.00240
H         -0.82850        0.94060        2.87710
H          0.38170       -2.93170        1.73060
H          0.98990       -4.18920       -0.47270
H         -0.10810        4.09190       -1.06360
H         -0.41010        3.03990        1.30450
