17

C         -1.16300       -2.17180        1.30150
C         -0.10100       -1.40810        1.54520
S          0.85720       -1.39470        3.01550
C          1.92490       -0.14860        2.36990
S          3.19270        0.46980        3.18220
N          1.54470        0.20610        1.11240
C          2.23790        1.23790        0.36270
C          1.74900        2.62620        0.75490
C          0.44260       -0.42670        0.57710
O          0.00370       -0.20770       -0.52500
H         -1.66600       -2.08450        0.35270
H         -1.54200       -2.87840        2.01750
H          3.30760        1.13930        0.56030
H          2.03130        1.04430       -0.69240
H          1.94180        2.81210        1.80870
H          0.68200        2.71810        0.56590
H          2.27360        3.37400        0.16800
