35

C         -0.43880       -1.87160        3.95050
C          0.67510       -1.76630        2.91550
Si         0.03360       -1.31520        1.17460
C         -1.14800       -2.64730        0.47950
C         -1.62190       -2.32380       -0.93370
C          1.40970       -0.84840       -0.03240
C          2.45380       -1.60740       -0.52520
C          3.35340       -1.06160       -1.42820
C          3.20590        0.25260       -1.83850
C          2.16430        1.02630       -1.35470
C          1.25960        0.48420       -0.45190
C          0.11320        1.19100        0.12520
C         -0.23610        2.50690       -0.14630
C         -1.35340        3.06410        0.45280
C         -2.13030        2.31620        1.32110
C         -1.78580        1.00180        1.59740
C         -0.67020        0.43230        1.01270
H         -1.15400       -2.64050        3.66860
H         -0.03540       -2.12590        4.92940
H         -0.96820       -0.92620        4.03720
H          1.39700       -1.01760        3.24280
H          1.21030       -2.71530        2.86980
H         -0.64820       -3.61690        0.47770
H         -2.01570       -2.74690        1.13250
H         -0.77470       -2.24760       -1.61140
H         -2.29190       -3.09700       -1.30610
H         -2.15140       -1.37400       -0.94990
H          2.56770       -2.63340       -0.20440
H          4.16790       -1.65920       -1.81190
H          3.90750        0.67820       -2.54200
H          2.06530        2.04910       -1.68770
H          0.35510        3.10520       -0.82400
H         -1.62150        4.08900        0.23820
H         -3.00360        2.75660        1.78070
H         -2.39610        0.41710        2.27150
