32

C         -2.26480       -1.13190        3.59340
C         -0.96090       -1.89840        3.78570
O          0.18720       -1.08630        3.59050
C          0.42100       -0.69970        2.29140
C          0.97730       -1.56630        1.34540
C          1.38140       -2.91970        1.56310
C          1.90300       -3.50060        0.46800
S          1.94820       -2.45130       -0.90460
C          1.22640       -1.13930        0.01410
C          0.93830        0.15370       -0.41090
O          1.14010        0.71640       -1.63140
C          1.24910       -0.07460       -2.79820
C         -0.05820       -0.77190       -3.15650
C          0.41350        1.02950        0.55670
C          0.06010        2.40050        0.37720
C         -0.42420        2.96520        1.50060
S         -0.48980        1.88020        2.85100
C          0.16410        0.59670        1.87440
H         -2.36170       -0.79890        2.56180
H         -3.10620       -1.77600        3.83420
H         -2.28400       -0.26020        4.24250
H         -0.87420       -2.24990        4.81660
H         -0.93680       -2.76350        3.10910
H          1.29790       -3.40550        2.51850
H          2.28730       -4.49610        0.36110
H          1.51450        0.64770       -3.57540
H          2.06380       -0.80150       -2.71090
H         -0.33540       -1.48910       -2.38790
H         -0.85620       -0.03950       -3.25300
H          0.05720       -1.29870       -4.09910
H          0.18020        2.91090       -0.56030
H         -0.76020        3.97400        1.64050
