12

F         -0.95010       -0.97970        2.40130
C          0.19610       -0.87420        1.70100
C          0.62730       -1.95920        0.95750
C          1.80410       -1.85090        0.23850
C          2.50990       -0.66120        0.28720
F          3.65610       -0.55570       -0.41320
C          2.07880        0.42380        1.03060
C          0.90190        0.31550        1.74960
H          0.04660       -2.86750        0.94750
H          2.17610       -2.67150       -0.35360
H          2.65940        1.33210        1.04060
H          0.53000        1.13610        2.34170
