29

C         -2.63540       -2.37760        0.83250
C         -2.22410       -0.91520        0.89730
Ge        -0.24460       -0.68420        1.14720
C          0.45510       -1.41450        2.87990
C          1.95530       -1.20690        3.01470
C          0.82210       -1.28560       -0.39510
C          1.12660       -2.46960       -1.09110
C          1.98540       -2.26490       -2.12600
S          2.45470       -0.61400       -2.28640
C          1.47450       -0.19340       -0.93160
C          1.26070        1.07680       -0.31890
S          1.91350        2.62070       -0.72310
C          1.04340        3.34120        0.57910
C          0.29850        2.44120        1.27570
C          0.41340        1.13360        0.76960
H         -2.12070       -2.88150        0.01730
H         -2.38800       -2.88880        1.76070
H         -3.70800       -2.46800        0.66850
H         -2.73860       -0.41500        1.71750
H         -2.50620       -0.40560       -0.02370
H         -0.06970       -0.92450        3.69990
H          0.21710       -2.47680        2.93050
H          2.19860       -0.14660        2.97930
H          2.48300       -1.70110        2.20100
H          2.31840       -1.61250        3.95750
H          0.72780       -3.43620       -0.83480
H          2.38060       -2.98430       -2.81640
H          1.14130        4.39630        0.74530
H         -0.31170        2.70460        2.12240
