118

C          5.73840       -0.54240       -6.44750
C          6.82110       -1.14320       -5.54880
C          6.26930       -1.43020       -4.18180
C          6.30030       -0.46670       -3.18260
C          5.75950       -0.71920       -1.93620
C          5.17840       -1.94790       -1.64870
C          4.54230       -2.17340       -0.28840
C          4.51110       -3.64410        0.12420
C          5.60040       -4.47260       -0.12160
C          5.60660       -5.78260        0.31640
C          4.53070       -6.30530        1.02170
C          4.56320       -7.71370        1.54170
C          5.20350       -7.75440        2.93060
C          3.45040       -5.47340        1.27800
C          3.43950       -4.16160        0.83950
C          5.34960       -1.50560        0.80170
C          6.74590       -1.66000        0.96890
C          7.22150       -1.02320        2.06790
S          5.98310       -0.21200        2.94310
C          4.78690       -0.73950        1.79400
C          3.40730       -0.35220        1.83960
C          2.88820        0.41930        2.87670
C          1.54360        0.80510        2.80950
C          0.85750        0.37910        1.67300
C          1.30710       -0.38090        0.60840
C          2.64800       -0.79320        0.69530
C          3.13500       -1.60770       -0.33830
C          2.26930       -1.92130       -1.37720
C          0.94850       -1.47790       -1.44860
C          0.40420       -0.68720       -0.44450
C         -0.96920       -0.17010       -0.38040
C         -1.96470       -0.33500       -1.33530
C         -3.22730        0.23290       -1.16220
C         -3.59500        0.97400       -0.04760
C         -2.63800        1.15520        0.96240
C         -2.84920        1.87760        2.19290
C         -1.86580        2.09240        3.15570
C         -0.58800        1.56540        2.92970
C         -0.44190        0.84310        1.74610
C         -1.36790        0.59230        0.74980
N          0.64620        1.54690        3.56820
C          0.92510        2.12200        4.85760
C          0.63350        1.13800        5.99030
C         -4.20220        2.31730        2.37180
S         -4.80500        3.03890        3.83640
C         -6.39590        3.09720        3.18570
C         -6.45780        2.59960        1.92540
C         -5.20490        2.14940        1.44720
C         -4.96070        1.62810        0.04940
C         -5.99950        0.58950       -0.33350
C         -6.46520        0.45900       -1.63610
C         -7.36400       -0.53850       -1.96610
C         -7.81710       -1.43800       -1.01090
C         -8.75530       -2.54880       -1.38720
C         -7.96890       -3.76920       -1.87000
C         -7.33550       -1.31780        0.28570
C         -6.43700       -0.32200        0.61930
C         -5.01110        2.88060       -0.82480
C         -6.23070        3.43940       -1.19050
C         -6.28210        4.61100       -1.92060
C         -5.11900        5.26770       -2.30050
C         -5.17880        6.56770       -3.04990
C         -5.27310        7.74200       -2.07370
C         -3.90340        4.71690       -1.92170
C         -3.84760        3.54270       -1.19270
C          5.12470       -2.90490       -2.65460
C          5.66660       -2.64860       -3.90060
H          6.13720       -0.33220       -7.43740
H          4.90440       -1.23340       -6.54780
H          5.36330        0.38430       -6.01890
H          7.19110       -2.06640       -6.00010
H          7.65500       -0.44230       -5.47220
H          6.75370        0.49410       -3.38240
H          5.78860        0.04810       -1.17560
H          6.45130       -4.09760       -0.67070
H          6.46230       -6.40930        0.10690
H          5.13790       -8.34680        0.86220
H          3.54750       -8.11020        1.60180
H          4.63920       -7.13530        3.62440
H          6.22260       -7.37630        2.88810
H          5.22580       -8.77290        3.31160
H          2.60240       -5.85470        1.82940
H          2.58470       -3.53920        1.05860
H          7.37330       -2.20890        0.29060
H          8.23050       -0.97520        2.42600
H          3.53940        0.69870        3.69300
H          2.63280       -2.54840       -2.17820
H          0.35380       -1.77450       -2.29990
H         -1.77480       -0.89620       -2.23820
H         -3.95540        0.08830       -1.94710
H         -2.12280        2.64820        4.04660
H          0.31050        3.01930        4.97610
H          1.97820        2.41750        4.88280
H          0.85960        1.59440        6.95020
H          1.24070        0.24290        5.87590
H         -0.41500        0.84930        5.97740
H         -7.18980        3.49850        3.78350
H         -7.37080        2.53960        1.36130
H         -6.13000        1.14460       -2.40140
H         -7.71860       -0.61850       -2.98440
H         -9.36280       -2.83000       -0.52460
H         -9.42500       -2.21510       -2.18280
H         -8.64500       -4.57690       -2.14120
H         -7.36810       -3.51170       -2.73950
H         -7.30110       -4.12180       -1.08710
H         -7.66640       -2.01340        1.04410
H         -6.06850       -0.25240        1.63290
H         -7.15310        2.95110       -0.91340
H         -7.24230        5.02200       -2.19990
H         -4.28390        6.68190       -3.66500
H         -6.05000        6.57670       -3.70840
H         -6.16860        7.65430       -1.46230
H         -4.40910        7.75330       -1.41290
H         -5.31120        8.68560       -2.61340
H         -2.98340        5.21160       -2.19980
H         -2.88490        3.14260       -0.91170
H          4.66400       -3.86400       -2.46490
H          5.62110       -3.41030       -4.66660
