50

C          0.40260       -4.66020        5.01760
C          1.55040       -3.94670        4.30040
C          1.01850       -3.07000        3.20320
C          0.63180       -1.76110        3.46640
C          0.10640       -0.96580        2.46810
C         -0.04750       -1.46180        1.17860
C         -0.66490       -0.53890        0.13280
C          0.19430        0.69510       -0.07210
C          1.57740        0.61720        0.02560
C          2.35570        1.73620       -0.20360
C          1.77550        2.95560       -0.52890
C          2.62640        4.15960       -0.81530
C          2.97350        4.22620       -2.30400
C          0.39260        3.02340       -0.63020
C         -0.39110        1.90610       -0.41030
O         -1.93160       -0.08530        0.66450
C         -2.99150       -0.90610        0.50010
C         -4.14540       -0.86960        1.31410
C         -5.08590       -1.76110        0.90330
S         -4.60080       -2.66430       -0.47840
C         -3.09220       -1.82370       -0.52710
C         -2.02300       -1.90620       -1.46100
S         -1.98720       -2.67760       -3.00720
C         -0.38560       -2.09770       -3.27720
C          0.08500       -1.35180       -2.24280
C         -0.85010       -1.23750       -1.19360
C          0.32770       -2.76900        0.91130
C          0.85660       -3.56090        1.91560
H          0.78600       -5.29260        5.81510
H         -0.15270       -5.28080        4.31780
H         -0.28330       -3.93420        5.44830
H          2.23200       -4.69070        3.88320
H          2.10400       -3.34160        5.02140
H          0.74880       -1.36070        4.46350
H         -0.19270        0.05090        2.67700
H          2.04570       -0.32110        0.28660
H          3.43100        1.66230       -0.12230
H          2.09100        5.06740       -0.53020
H          3.54840        4.10900       -0.23270
H          3.58520        5.10060       -2.51430
H          2.06630        4.28440       -2.90120
H          3.52320        3.33690       -2.60430
H         -0.07800        3.96270       -0.88430
H         -1.46540        1.97170       -0.48900
H         -4.25430       -0.21060        2.15490
H         -6.04570       -1.95380        1.33850
H          0.11040       -2.35030       -4.19250
H          1.06100       -0.90180       -2.22420
H          0.21490       -3.17530       -0.08310
H          1.14780       -4.57740        1.69160
