114

C          8.48600       -0.95140        1.75010
C          7.42990        0.06590        1.31340
C          6.28530       -0.62860        0.63270
C          6.34440       -0.92930       -0.72240
C          5.31520       -1.60930       -1.34290
C          4.19490       -2.00610       -0.62200
C          3.11870       -2.81880       -1.31950
C          2.76190       -2.24330       -2.67300
C          2.45560       -3.06590       -3.74740
C          2.08380       -2.52330       -4.96390
C          2.00180       -1.14880       -5.13730
C          1.55720       -0.55900       -6.44520
C          0.04520       -0.32500       -6.44230
C          2.29750       -0.32930       -4.05550
C          2.67250       -0.86660       -2.83950
C          1.84610       -2.98120       -0.50070
C          0.91860       -2.02340       -0.17960
C         -0.17330       -2.41690        0.59380
C         -1.30370       -1.70570        1.10340
C         -1.71930       -0.38010        0.97720
C         -2.89240       -0.02210        1.59090
C         -3.63760       -0.96290        2.34790
C         -3.24850       -2.28340        2.48000
C         -2.07090       -2.64580        1.84060
N         -1.44750       -3.86920        1.79850
C         -1.95360       -5.08650        2.37290
C         -2.87300       -5.82840        1.40360
C         -0.31210       -3.75990        1.03310
C          0.60980       -4.73870        0.68760
C          1.68100       -4.32760       -0.08450
C          2.78740       -5.06320       -0.62370
S          3.31240       -6.71510       -0.56460
C          4.68180       -6.29790       -1.54950
C          5.76340       -7.02900       -2.07730
C          6.58610       -6.23080       -2.80480
S          6.07490       -4.57570       -2.86940
C          4.70270       -4.94300       -1.88720
C          3.61170       -4.24120       -1.36040
C         -4.76990       -0.26050        2.87740
S         -6.12450       -0.68380        3.87440
C         -6.68810        0.95710        3.77670
C         -7.79690        1.64190        4.31010
C         -7.78990        2.94850        3.94170
S         -6.44380        3.38380        2.94000
C         -5.85060        1.76310        3.00280
C         -4.74940        1.06280        2.49560
C         -3.57580        1.33780        1.59270
C         -2.61720        2.38360        2.11910
C         -1.72830        3.00810        1.25270
C         -0.81830        3.93310        1.72660
C         -0.76860        4.25860        3.07590
C          0.18520        5.30470        3.57760
C         -0.45120        6.69320        3.48900
C         -1.65470        3.62840        3.93850
C         -2.56360        2.69780        3.46940
C         -4.15200        1.72900        0.24280
C         -4.29720        0.81330       -0.78870
C         -4.88960        1.19060       -1.98060
C         -5.35840        2.48290       -2.16950
C         -6.05220        2.87230       -3.44340
C         -7.55810        2.62950       -3.32380
C         -5.21850        3.39340       -1.12970
C         -4.62390        3.02380        0.06060
C          4.13460       -1.71690        0.73290
C          5.16770       -1.03280        1.34870
H          9.31780       -0.45220        2.24200
H          8.05340       -1.67070        2.44190
H          8.86640       -1.49420        0.88780
H          7.06750        0.60770        2.18930
H          7.88560        0.78580        0.63020
H          7.20750       -0.62790       -1.29890
H          5.37780       -1.83260       -2.39820
H          2.50850       -4.13940       -3.63630
H          1.85580       -3.17960       -5.79200
H          1.81530       -1.23420       -7.26330
H          2.06690        0.39210       -6.61370
H         -0.27620        0.10470       -7.38850
H         -0.48200       -1.26410       -6.28940
H         -0.23090        0.35510       -5.63970
H          2.23720        0.74420       -4.16800
H          2.91120       -0.21150       -2.01390
H          1.02480       -1.00040       -0.50510
H         -1.13750        0.32880        0.40910
H         -3.84270       -2.98020        3.05090
H         -1.10480       -5.72000        2.64400
H         -2.49650       -4.83770        3.28870
H         -2.33460       -6.07880        0.49250
H         -3.72380       -5.20420        1.14050
H         -3.23790       -6.74520        1.85870
H          0.51050       -5.76940        0.99130
H          5.91770       -8.08110       -1.92400
H          7.48370       -6.50890       -3.32030
H         -8.55020        1.18930        4.92820
H         -8.50390        3.70640        4.19560
H         -1.75820        2.77660        0.19760
H         -0.13460        4.40970        1.03800
H          1.09920        5.28910        2.98010
H          0.45210        5.09640        4.61570
H         -0.71460        6.92280        2.45890
H          0.23830        7.45330        3.84960
H         -1.35730        6.73220        4.08950
H         -1.63180        3.86570        4.99280
H         -3.23700        2.21440        4.16240
H         -3.94520       -0.20020       -0.66480
H         -4.98960        0.46550       -2.77610
H         -5.87390        3.92860       -3.65500
H         -5.65770        2.28510       -4.27530
H         -7.97080        3.21530       -2.50540
H         -8.06530        2.91080       -4.24390
H         -7.75610        1.57860       -3.12450
H         -5.58040        4.40430       -1.25280
H         -4.52100        3.74650        0.85720
H          3.27700       -2.02450        1.31300
H          5.10180       -0.81140        2.40470
