92

C          1.99640       -0.26010        6.80970
C          2.82080        0.91560        6.28150
C          2.52420        1.15250        4.82840
C          3.24950        0.50410        3.83850
C          2.95010        0.68770        2.50110
C          1.91800        1.53300        2.11900
C          1.53850        1.69840        0.66020
C          1.11860        3.11820        0.33820
C          1.87050        4.17900        0.82980
C          1.53800        5.48200        0.51480
C          0.45040        5.76210       -0.30280
C          0.11450        7.17780       -0.67530
C          0.87660        7.59400       -1.93490
C         -0.28650        4.69900       -0.80530
C          0.04260        3.39200       -0.49350
C          0.48430        0.64790        0.33970
C         -0.75360        0.48230        0.91960
C         -1.52930       -0.58010        0.47020
C         -1.06880       -1.46830       -0.52600
C          0.16590       -1.29860       -1.11090
C          0.93870       -0.23230       -0.66610
C          2.24900        0.21330       -1.04400
S          3.45330       -0.25780       -2.17800
C          4.46670        1.03550       -1.63900
C          3.90910        1.78400       -0.64640
C          2.63340        1.30710       -0.30070
C         -2.10740       -2.54090       -0.82100
C         -2.46000       -2.47620       -2.29230
C         -1.70030       -3.17690       -3.22150
C         -1.98490       -3.08960       -4.57030
C         -3.03170       -2.30020       -5.02950
C         -3.31000       -2.17890       -6.50030
C         -2.44820       -1.07550       -7.11740
C         -3.77980       -1.59240       -4.09920
C         -3.49760       -1.67540       -2.74780
C         -1.67700       -3.93320       -0.39900
C         -0.61920       -4.13910        0.47470
C         -0.29040       -5.41800        0.88710
C         -1.01270       -6.51930        0.45000
C         -0.62800       -7.91000        0.86660
C          0.34340       -8.52370       -0.14380
C         -2.07730       -6.30690       -0.41710
C         -2.40920       -5.03240       -0.83290
C         -3.22260       -2.12050        0.10360
C         -4.50590       -2.58730        0.43480
C         -5.07740       -1.82100        1.40570
S         -4.06740       -0.52460        1.94300
C         -2.84550       -1.01760        0.83710
C          1.18340        2.17740        3.10700
C          1.48500        1.98900        4.44210
H          0.93360       -0.05630        6.69950
H          2.22910       -1.16510        6.25300
H          2.21030       -0.43390        7.86190
H          3.88290        0.69780        6.41240
H          2.58170        1.81080        6.85920
H          4.06170       -0.15310        4.11630
H          3.52750        0.16960        1.74920
H          2.71570        3.98060        1.47340
H          2.12970        6.29490        0.91210
H         -0.95830        7.26830       -0.85750
H          0.37990        7.84940        0.14400
H          0.63320        8.61840       -2.20750
H          0.61730        6.94160       -2.76580
H          1.94920        7.52390       -1.76820
H         -1.13310        4.89410       -1.44860
H         -0.54480        2.58140       -0.89930
H         -1.11710        1.14650        1.68870
H          0.52950       -1.96330       -1.87950
H          5.42670        1.16070       -2.09990
H          4.39550        2.62830       -0.19260
H         -0.88870       -3.80590       -2.88470
H         -1.38730       -3.64640       -5.27840
H         -3.09060       -3.12630       -6.99740
H         -4.36440       -1.94490       -6.66090
H         -1.39270       -1.29570       -6.97400
H         -2.66380       -0.11960       -6.64540
H         -2.64410       -0.98960       -8.18380
H         -4.59680       -0.96900       -4.43470
H         -4.09290       -1.11430       -2.04200
H         -0.04650       -3.29780        0.83650
H          0.53970       -5.55950        1.56480
H         -0.15490       -7.88380        1.85040
H         -1.52030       -8.53630        0.93300
H          1.24440       -7.91850       -0.21690
H          0.62380       -9.52990        0.15940
H         -0.11600       -8.57260       -1.12860
H         -2.65720       -7.14990       -0.76570
H         -3.24090       -4.88680       -1.50710
H         -4.98820       -3.43610       -0.01500
H         -6.04640       -1.93460        1.85040
H          0.37730        2.84090        2.82870
H          0.90520        2.50200        5.19660
