135

C          6.71300       -2.53910        1.57390
C          6.02530       -2.27290        0.23590
C          4.64240       -1.69780        0.38110
C          4.45680       -0.39710        0.83400
C          3.20200        0.18120        0.84940
C          2.09480       -0.52050        0.38590
C          0.75540        0.15690        0.21880
C          0.87650        1.59640       -0.28480
C          1.92520        1.97130       -1.11520
C          2.00750        3.25790       -1.61410
C          1.03820        4.20580       -1.31730
C          1.11270        5.59390       -1.88540
C          0.37010        5.66590       -3.22100
C         -0.03570        3.81600       -0.52960
C         -0.12120        2.53050       -0.02860
C         -0.13100       -0.46360       -0.85490
C          0.18610       -0.74330       -2.16430
C         -0.83030       -1.24830       -2.96780
C         -2.14320       -1.43720       -2.47970
C         -2.46480       -1.13310       -1.17730
C         -1.44000       -0.65550       -0.36560
C         -1.41310       -0.31860        1.02230
S         -2.59260       -0.34140        2.28270
C         -1.35780        0.13340        3.38640
C         -0.09650        0.30300        2.81160
C         -0.14110        0.06400        1.43380
C          0.93970        0.49610        3.90820
C          1.75250       -0.79760        3.95290
C          1.08020       -1.99880        4.15840
C          1.76270       -3.19640        4.20020
C          3.14310       -3.23480        4.04760
C          3.87450       -4.54640        4.05910
C          3.74120       -5.24390        2.70420
C          3.80890       -2.03760        3.84320
C          3.12650       -0.83490        3.78560
C          1.76860        1.75520        3.84360
C          2.75200        1.99540        4.79880
C          3.49680        3.15820        4.76660
C          3.28370        4.11840        3.78480
C          4.07000        5.39770        3.77670
C          3.37620        6.45470        4.63810
C          2.28660        3.88750        2.84900
C          1.53420        2.72730        2.88380
C          0.04800        0.54940        5.13730
C          0.21340        0.72730        6.51940
C         -0.97330        0.63680        7.18420
S         -2.32340        0.32770        6.14830
C         -1.27170        0.32160        4.78960
C         -3.05510       -1.98090       -3.56870
C         -4.17360       -0.98410       -3.80020
C         -5.32960       -1.04290       -3.03200
C         -6.33840       -0.11540       -3.20990
C         -6.22140        0.89390       -4.15650
C         -7.30030        1.92540       -4.32200
C         -7.02830        3.13110       -3.42010
C         -5.05930        0.95570       -4.91300
C         -4.04570        0.03250       -4.73620
C         -3.58510       -3.37520       -3.29390
C         -4.60360       -3.88150       -4.09310
C         -5.06780       -5.16860       -3.90650
C         -4.52590       -5.98650       -2.92290
C         -5.06650       -7.36830       -2.69090
C         -6.24580       -7.32470       -1.71710
C         -3.50390       -5.47880       -2.13330
C         -3.03180       -4.19160       -2.31850
C         -2.09070       -2.07920       -4.72100
C         -0.83230       -1.66650       -4.33820
S          0.35720       -1.78010       -5.59440
C         -0.86070       -2.40150       -6.66770
C         -0.85700       -2.81480       -8.01370
C         -2.09160       -3.22140       -8.40580
S         -3.29010       -3.11670       -7.15750
C         -2.11110       -2.50480       -6.05390
C          2.26150       -1.85040        0.02560
C          3.51820       -2.42820        0.02320
H          6.77740       -1.62520        2.15990
H          7.72150       -2.91330        1.40930
H          6.16030       -3.28170        2.14360
H          6.63620       -1.56990       -0.33760
H          5.97120       -3.20570       -0.32970
H          5.31100        0.18540        1.14980
H          3.08690        1.20140        1.18720
H          2.69200        1.25680       -1.37380
H          2.84120        3.52780       -2.24710
H          0.66500        6.30440       -1.18700
H          2.15650        5.87610       -2.03850
H          0.81000        4.97360       -3.93530
H         -0.67550        5.39770       -3.08660
H          0.42180        6.67120       -3.63280
H         -0.81790        4.52650       -0.30200
H         -0.98230        2.25860        0.56510
H          1.18140       -0.59590       -2.55530
H         -3.46260       -1.26740       -0.78860
H          0.00820       -2.00070        4.29020
H          1.21670       -4.11500        4.36210
H          4.93090       -4.38030        4.28050
H          3.46240       -5.19300        4.83730
H          4.13570       -4.60860        1.91480
H          4.28540       -6.18600        2.70330
H          2.69550       -5.44510        2.48370
H          4.88220       -2.03520        3.73070
H          3.68090        0.07320        3.61080
H          2.94290        1.26320        5.56930
H          4.25990        3.32250        5.51480
H          4.16010        5.76940        2.75390
H          5.07450        5.21910        4.16630
H          3.28410        6.10520        5.66410
H          2.37810        6.65660        4.25590
H          3.94420        7.38230        4.63630
H          2.09110        4.61880        2.07690
H          0.75790        2.58320        2.15180
H          1.14790        0.91340        7.01550
H         -1.14780        0.73240        8.23740
H         -5.44660       -1.82810       -2.29910
H         -7.23310       -0.17940       -2.60660
H         -8.26940        1.49380       -4.06380
H         -7.33960        2.25610       -5.36200
H         -6.06910        3.57990       -3.66890
H         -7.80600        3.88180       -3.54130
H         -7.00030        2.82370       -2.37710
H         -4.94570        1.73500       -5.65350
H         -3.14950        0.10470       -5.33510
H         -5.03650       -3.26010       -4.86380
H         -5.85980       -5.54550       -4.53790
H         -5.39810       -7.79910       -3.63790
H         -4.28350       -8.00850       -2.27940
H         -6.64260       -8.32400       -1.55310
H         -5.93070       -6.91420       -0.76040
H         -7.04000       -6.69590       -2.11360
H         -3.06480       -6.09960       -1.36500
H         -2.22870       -3.82260       -1.69750
H          0.01000       -2.80920       -8.64820
H         -2.38790       -3.58710       -9.36870
H          1.40770       -2.43140       -0.29160
H          3.62650       -3.45300       -0.30440
