16

C          0.49500        0.33030       -1.31220
C         -0.09680       -0.42650       -0.12710
O          0.14630        0.21770        1.10700
C          1.38630        0.11930        1.64870
C          1.67000        0.82890        2.85180
C          2.93260        0.62270        3.29170
S          3.81290       -0.43410        2.26230
C          2.45510       -0.60580        1.21310
H          1.57860        0.37690       -1.23910
H          0.22440       -0.16910       -2.23830
H          0.10700        1.34570       -1.33070
H         -1.18680       -0.45530       -0.20990
H          0.27910       -1.45710       -0.09810
H          0.94190        1.45140        3.33720
H          3.40890        1.02670        4.16200
H          2.55320       -1.23590        0.35320
