108

C         -0.03820        5.73260        5.69510
C          1.32810        5.08990        5.47360
O          1.93580        5.50620        4.26840
C          1.50670        4.99580        3.08060
C          0.57360        3.98000        2.91660
C          0.24840        3.52820        1.64740
C          0.84430        4.06410        0.51780
C          0.47660        3.61730       -0.88140
C          1.67780        3.30020       -1.75980
C          2.94700        3.07580       -1.25220
C          4.01210        2.76640       -2.08260
C          3.82360        2.66680       -3.45520
O          4.78010        2.35610       -4.37360
C          6.13010        2.24670       -3.97330
C          6.78280        3.60490       -3.73090
C          2.54250        2.87680       -3.96930
C          1.49200        3.18410       -3.13480
C         -0.37450        4.70060       -1.50620
C         -0.24240        6.06400       -1.81800
C         -1.37700        6.55570       -2.39030
S         -2.62830        5.37550       -2.56300
C         -1.60620        4.19060       -1.85050
C         -1.68560        2.79510       -1.52670
C         -2.72400        1.86540       -1.73340
C         -2.53160        0.57600       -1.34610
C         -1.32130        0.15710       -0.72970
C         -1.14950       -1.15900       -0.31660
C          0.01100       -1.58490        0.32810
C          0.21470       -2.90340        0.79010
C          1.38850       -3.24460        1.44710
C          2.42630       -2.31460        1.65460
C          2.25930       -1.04180        1.20610
C          1.06730       -0.63630        0.54670
C          0.90450        0.67410        0.11340
C         -0.26280        1.10390       -0.51600
C         -0.48190        2.43270       -0.93860
C          1.28030       -4.61950        1.84180
S          2.24850       -5.76210        2.68560
C          0.99400       -6.94000        2.52470
C         -0.10170       -6.47810        1.85920
C          0.06300       -5.13980        1.46450
C         -0.73260       -4.09630        0.70940
C         -2.02770       -3.76570        1.43030
C         -3.24550       -3.64290        0.78130
C         -4.40160       -3.31750        1.47210
C         -4.35910       -3.09950        2.84340
O         -5.41630       -2.75800        3.63170
C         -6.71990       -2.73580        3.08880
C         -7.30090       -4.13420        2.89750
C         -3.13130       -3.21020        3.49920
C         -1.98920       -3.53490        2.80280
C         -0.92900       -4.62040       -0.70040
C         -0.24960       -4.09200       -1.79170
C         -0.40270       -4.63820       -3.04870
C         -1.23410       -5.73870       -3.25430
O         -1.30330       -6.20360       -4.53030
C         -2.08380       -7.34960       -4.80190
C         -1.92130       -7.67870       -6.27760
C         -1.91580       -6.27370       -2.16650
C         -1.75460       -5.71730       -0.91020
C          1.76290        5.09830        0.68680
C          2.09340        5.55410        1.94270
H         -0.73420        5.44370        4.91130
H         -0.43850        5.42200        6.65620
H          0.05920        6.81530        5.68510
H          2.02210        5.41700        6.25320
H          1.25620        3.99590        5.51460
H          0.08790        3.52070        3.76310
H         -0.48400        2.74120        1.55230
H          3.13150        3.15110       -0.19030
H          4.97990        2.60190       -1.63490
H          6.62070        1.74460       -4.81210
H          6.22260        1.60500       -3.08820
H          6.71170        4.21210       -4.62980
H          7.83070        3.46920       -3.47750
H          6.28780        4.13380       -2.92010
H          2.39830        2.78990       -5.03460
H          0.51010        3.33900       -3.55680
H          0.63280        6.66110       -1.63880
H         -1.56460        7.55500       -2.73050
H         -3.64440        2.19000       -2.19570
H         -3.30520       -0.16390       -1.49330
H         -1.94460       -1.86610       -0.49120
H          3.32590       -2.62610        2.16420
H          3.03380       -0.30190        1.34880
H          1.70150        1.37990        0.28310
H          1.14950       -7.91520        2.94230
H         -0.97440       -7.07850        1.67840
H         -3.31290       -3.80700       -0.28470
H         -5.32370       -3.23350        0.91820
H         -7.31120       -2.18740        3.82770
H         -6.73990       -2.17220        2.14750
H         -6.70740       -4.70720        2.18930
H         -8.32020       -4.06140        2.52810
H         -7.30560       -4.66300        3.84740
H         -3.10210       -3.03240        4.56260
H         -1.04980       -3.61210        3.33020
H          0.40900       -3.24710       -1.66520
H          0.12310       -4.22800       -3.89630
H         -3.14060       -7.15170       -4.57140
H         -1.74280       -8.19390       -4.18600
H         -2.50740       -8.55830       -6.52830
H         -0.87520       -7.87000       -6.50020
H         -2.25550       -6.84070       -6.88290
H         -2.57030       -7.12390       -2.28120
H         -2.29290       -6.14670       -0.07820
H          2.23190        5.54290       -0.17830
H          2.81120        6.34850        2.07490
