37

C         -2.31400       -2.06380        3.88150
C         -0.83890       -1.66900        3.97390
C         -0.33100       -1.21930        2.63350
C          0.22500       -2.12560        1.74410
C          0.66310       -1.73220        0.48860
C          1.21490       -2.76010       -0.46070
C          0.10630       -3.31200       -1.35870
C          0.53380       -0.39490        0.10880
C          1.01230        0.03810       -1.21910
C          2.38260        0.25390       -1.53470
C          2.57140        0.64990       -2.81650
S          1.09000        0.77020       -3.68290
C          0.20770        0.27950       -2.28880
C         -0.03120        0.53100        0.98840
C         -0.13850        1.98750        0.62890
C          1.16760        2.71960        0.94250
C         -0.45240        0.10430        2.23880
H         -2.44340       -2.87740        3.17110
H         -2.68500       -2.38670        4.85170
H         -2.91050       -1.21890        3.54430
H         -0.72770       -0.86240        4.70170
H         -0.25810       -2.52560        4.32220
H          0.32430       -3.16260        2.03470
H          1.65720       -3.58070        0.10850
H          1.99430       -2.32060       -1.08560
H         -0.32340       -2.51480       -1.96070
H          0.50150       -4.07540       -2.02530
H         -0.68530       -3.75180       -0.75570
H          3.17920        0.11740       -0.82410
H          3.49150        0.88200       -3.31490
H         -0.86040        0.19850       -2.34250
H         -0.36540        2.10030       -0.43250
H         -0.95050        2.44230        1.20030
H          1.42170        2.60550        1.99430
H          1.07160        3.78010        0.72030
H          1.98120        2.31370        0.34590
H         -0.88380        0.82360        2.92160
