58

C          3.89480       -2.72730        2.26760
C          2.44840       -2.27930        2.39080
O          1.79770       -2.48840        1.13930
C          0.77530       -1.62790        0.82780
C          1.01890       -0.27650        0.62160
S          2.63960        0.40460        0.65340
C          1.97700        1.96770        0.32540
C          2.42170        3.28150        0.16730
S          3.85570        4.24260        0.14360
C          2.89480        5.66420       -0.12600
C          1.55800        5.43360       -0.19640
C          1.27310        4.06150       -0.02950
N          0.15750        3.26830       -0.01650
C         -1.17380        3.81600        0.08290
C         -1.42390        4.40720        1.46930
C          0.57970        1.97670        0.20220
C          0.00710        0.67190        0.31300
C         -1.29820        0.19540        0.12680
O         -2.31660        1.05050       -0.23640
C         -2.80460        0.89470       -1.56580
C         -1.73710        1.15650       -2.62180
C         -1.54080       -1.15680        0.31950
S         -3.14890       -1.85180        0.19440
C         -2.49070       -3.41090        0.55000
C         -2.93220       -4.72920        0.66870
S         -4.35580       -5.70220        0.58830
C         -3.40340       -7.11660        0.91710
C         -2.07690       -6.87530        1.08210
C         -1.79250       -5.49970        0.94230
N         -0.68880       -4.69500        1.01530
C          0.65120       -5.21820        1.11070
C          1.29150       -5.36580       -0.26710
C         -1.10420       -3.40730        0.76370
C         -0.53430       -2.10050        0.66310
H          4.39110       -2.63730        3.22950
H          4.41000       -2.10680        1.53950
H          3.93810       -3.76160        1.93670
H          1.92570       -2.86720        3.16190
H          2.40140       -1.22640        2.68320
H          3.40010        6.60500       -0.21730
H          0.82790        6.20500       -0.36170
H         -1.27950        4.59330       -0.68080
H         -1.89190        3.02020       -0.10410
H         -0.69350        5.18020        1.69770
H         -2.41920        4.84070        1.51140
H         -1.35210        3.62830        2.22430
H         -3.22680       -0.10670       -1.70400
H         -3.61230        1.62690       -1.64020
H         -1.30830        2.14830       -2.49910
H         -0.93830        0.42170       -2.54170
H         -2.18140        1.08330       -3.61030
H         -3.90470       -8.06270        0.96710
H         -1.35500       -7.64440        1.28860
H          0.58440       -6.19070        1.60480
H          1.25700       -4.55340        1.72240
H          1.41760       -4.38590       -0.71940
H          0.66730       -5.97920       -0.91360
H          2.26790       -5.83290       -0.17390
