58

C          4.64990       -3.84780       -0.46340
C          4.97880       -2.74700       -1.47370
C          4.87090       -1.38750       -0.84940
C          5.96950       -0.61680       -0.60520
S          5.66330        0.87510        0.22080
C          3.99240        0.47880        0.26970
C          2.78410        1.01710        0.74920
C          2.47390        2.25660        1.34620
N          3.29240        3.24670        1.66840
S          2.40900        4.47220        2.25230
N          0.94780        3.78850        2.11910
C          1.09770        2.57340        1.61520
C          0.11140        1.59380        1.37350
C         -1.27670        1.58240        1.60810
S         -2.47980        2.67330        2.20600
C         -3.66500        1.42580        1.95560
C         -5.04960        1.25810        2.07080
S         -6.47360        2.08600        2.58130
C         -7.43280        0.70760        2.14280
C         -6.71880       -0.33260        1.63650
C         -5.34360       -0.02500        1.59110
N         -4.18730       -0.66480        1.21250
C         -4.17450       -1.84920        0.38940
C         -3.72590       -1.53820       -1.03690
C         -3.15060        0.22370        1.42700
C         -1.75270        0.31650        1.26510
N         -0.70000       -0.47430        0.83750
C         -0.73950       -1.90350        1.08560
C          0.32030       -2.35830        2.08540
C          0.44780        0.31720        0.86470
C          1.77700        0.07100        0.43840
N          2.35480       -0.98610       -0.25180
C          1.67460       -1.87940       -1.16360
C          0.76430       -1.12880       -2.13290
C          3.70980       -0.73890       -0.34550
H          5.34690       -3.80570        0.37020
H          3.64300       -3.72970       -0.06940
H          4.72740       -4.82700       -0.93060
H          4.32390       -2.82930       -2.34590
H          6.00310       -2.88120       -1.82690
H          6.98160       -0.85390       -0.86980
H         -8.49260        0.75750        2.29360
H         -7.16370       -1.25920        1.32110
H         -5.19280       -2.24290        0.38000
H         -3.52750       -2.61520        0.83010
H         -4.39550       -0.80940       -1.48750
H         -2.72020       -1.12580       -1.03850
H         -3.73630       -2.44290       -1.63850
H         -0.66580       -2.46430        0.14830
H         -1.71840       -2.11180        1.51940
H          0.20600       -1.81040        3.01840
H          1.32700       -2.18880        1.71540
H          0.19690       -3.41980        2.28790
H          1.11130       -2.63680       -0.61330
H          2.44260       -2.39730       -1.73520
H          0.30760       -1.83010       -2.82710
H         -0.02190       -0.59710       -1.60410
H          1.34300       -0.40340       -2.70040
