60

C          8.19240       -0.02950        1.12880
C          7.91110        1.40990        0.69660
C          6.84130        2.02540        1.54020
C          7.02500        3.00550        2.46610
S          5.58020        3.48690        3.29660
C          4.66640        2.33870        2.38890
C          5.48040        1.64260        1.50320
S          4.59660        0.47620        0.56300
C          3.12310        0.93360        1.37450
C          3.31990        1.94270        2.31910
S          1.85900        2.43090        3.13580
C          0.98090        1.27000        2.19760
C         -0.34160        0.83840        2.00670
C         -1.54440        1.31590        2.56740
N         -1.71490        2.26910        3.47040
S         -3.30450        2.46070        3.71550
N         -3.83540        1.33420        2.67950
C         -2.78500        0.76740        2.10590
C         -2.75430       -0.28850        1.17160
C         -3.80100       -1.05700        0.63730
S         -5.52710       -1.15550        0.71480
C         -5.46900       -2.55580       -0.32740
C         -6.47420       -3.40210       -0.85550
C         -7.93670       -3.20850       -0.61700
C         -8.45260       -1.97990       -1.36670
C         -5.92290       -4.38020       -1.62170
S         -4.19350       -4.31080       -1.72250
C         -4.17680       -2.91060       -0.70420
C         -3.21810       -2.04260       -0.15510
N         -1.85650       -1.90680       -0.14130
C         -1.05240       -2.94210       -0.74490
C         -0.97950       -2.79750       -2.26550
C         -1.53710       -0.81820        0.65450
C         -0.31220       -0.18470        1.01590
N          1.00130       -0.32910        0.59940
C          1.60340       -1.06020       -0.48920
C          2.38840       -2.27650        0.00420
C          1.77650        0.54260        1.31480
H          7.29550       -0.63700        1.03180
H          8.97200       -0.46320        0.50750
H          8.51840       -0.05640        2.16620
H          7.58690        1.41430       -0.34750
H          8.82140        2.00580        0.77800
H          7.94480        3.49470        2.71890
H         -8.47920       -4.09770       -0.94280
H         -8.10400       -3.07120        0.45390
H         -7.92880       -1.08740       -1.03310
H         -8.29600       -2.09520       -2.43710
H         -9.51560       -1.84670       -1.18290
H         -6.42850       -5.16600       -2.14710
H         -0.06560       -2.94790       -0.29130
H         -1.52870       -3.90140       -0.51280
H         -0.65400       -1.80130       -2.55800
H         -1.95890       -2.97030       -2.70290
H         -0.28730       -3.52940       -2.67240
H          0.83860       -1.33740       -1.20860
H          2.29990       -0.38040       -0.99290
H          1.77910       -2.91360        0.64200
H          3.25040       -1.95420        0.58190
H          2.74030       -2.85750       -0.84380
