96

C          6.67650        5.78910       -2.43210
C          6.30140        4.31560       -2.45770
O          5.02910        4.18660       -1.85710
C          4.47950        2.94790       -1.73610
C          5.05830        1.76640       -2.18650
C          4.40180        0.56260       -2.00150
C          3.16420        0.50300       -1.37760
C          2.52120       -0.84900       -1.13140
C          2.59980       -1.74330       -2.35060
C          2.80110       -3.11330       -2.23320
C          2.81450       -3.92070       -3.35020
C          2.61440       -3.38360       -4.62270
O          2.62870       -4.28220       -5.64670
C          2.47360       -3.83570       -6.97750
C          3.74990       -3.22320       -7.54890
C          2.40320       -2.01460       -4.74340
C          2.39580       -1.21280       -3.61570
C          1.06650       -0.76280       -0.69110
C         -0.02520       -0.37800       -1.43630
C         -1.26640       -0.41500       -0.81150
C         -1.41220       -0.81860        0.53330
C         -0.32040       -1.20340        1.27870
C          0.91810       -1.18540        0.64770
C          2.22260       -1.56690        1.10700
S          2.90990       -2.16730        2.56430
C          4.46640       -2.21070        1.81240
C          4.45490       -1.78660        0.51760
C          3.16080       -1.42200        0.10940
C         -2.86960       -0.74930        0.96760
C         -3.46020       -2.09260        1.34700
C         -2.86000       -3.29010        0.97760
C         -3.44140       -4.49670        1.30420
C         -4.64820       -4.54430        2.00280
O         -5.12870       -5.79370        2.25780
C         -6.28270       -5.95410        3.05570
C         -6.00590       -5.74420        4.54200
C         -5.26310       -3.34760        2.35450
C         -4.67130       -2.14220        2.02180
C         -2.97750        0.25660        2.09780
C         -3.23650        1.59430        1.84860
C         -3.30540        2.51970        2.87680
C         -3.10220        2.11730        4.19110
O         -3.13140        2.92510        5.28790
C         -3.49870        4.28210        5.15230
C         -5.00330        4.47090        4.97750
C         -2.82100        0.77310        4.44360
C         -2.75720       -0.13910        3.41380
C         -3.52560       -0.28440       -0.30890
C         -4.83360       -0.01620       -0.74660
C         -4.85150        0.36440       -2.05470
S         -3.28270        0.39890       -2.78210
C         -2.58170       -0.10820       -1.29560
C          2.59300        1.68530       -0.92310
C          3.23730        2.89070       -1.10370
H          7.65370        5.93090       -2.88470
H          6.70180        6.14620       -1.40620
H          5.93960        6.36830       -2.98160
H          6.26970        3.95050       -3.49430
H          7.04360        3.72600       -1.90100
H          6.01850        1.76770       -2.67850
H          4.86260       -0.34740       -2.35800
H          2.95070       -3.55290       -1.25820
H          2.97310       -4.98420       -3.26420
H          1.63470       -3.13290       -7.05510
H          2.21580       -4.73910       -7.53800
H          4.04320       -2.33990       -6.98710
H          3.58950       -2.94510       -8.58710
H          4.55980       -3.94650       -7.49740
H          2.23690       -1.55380       -5.70450
H          2.23940       -0.14990       -3.73080
H          0.06730       -0.06490       -2.46480
H         -0.41380       -1.52160        2.30560
H          5.30390       -2.55400        2.38700
H          5.33150       -1.74640       -0.10300
H         -1.92790       -3.28130        0.43280
H         -2.97610       -5.42870        1.02440
H         -6.59100       -6.98870        2.87940
H         -7.08840       -5.29330        2.71160
H         -6.91110       -5.92940        5.11390
H         -5.66690       -4.72910        4.73430
H         -5.23150       -6.43210        4.87220
H         -6.20360       -3.33280        2.88260
H         -5.16030       -1.22200        2.30750
H         -3.39520        1.93180        0.83490
H         -3.51370        3.54890        2.62950
H         -3.17480        4.74470        6.08910
H         -2.94790        4.75330        4.32870
H         -5.52960        4.02680        5.81870
H         -5.35130        3.99340        4.06480
H         -5.23750        5.53110        4.93350
H         -2.65430        0.46980        5.46530
H         -2.54780       -1.17540        3.63390
H         -5.71540       -0.09690       -0.13730
H         -5.69990        0.63160       -2.65320
H          1.63620        1.66460       -0.42310
H          2.79730        3.81200       -0.75600
