28

C         -2.88330       -0.74820        2.81800
C         -1.76410       -0.82630        2.09680
C         -1.02520        0.40110        1.65660
O         -1.34560        1.54060        1.90700
C          0.12730       -0.08650        0.88490
C          0.11470       -1.48360        0.85270
C          1.12060       -2.18490        0.16920
C          2.10770       -1.47740       -0.46310
C          2.14710       -0.06520       -0.45020
C          3.16590        0.65370       -1.10630
C          3.18110        2.02160       -1.07950
C          2.18150        2.73220       -0.39650
C          1.17580        2.06980        0.25250
C          1.13400        0.66080        0.24110
C         -1.03340       -1.98840        1.59060
C         -1.37130       -3.29670        1.78160
C         -2.50440       -3.73090        2.50620
N         -3.40570       -4.15230        3.07720
C         -0.64050       -4.40000        1.28730
N         -0.09840       -5.34040        0.91620
H         -3.25360        0.22890        3.08650
H         -3.44630       -1.60100        3.15220
H          1.11990       -3.26210        0.13920
H          2.88730       -2.00500       -0.99340
H          3.93400        0.10450       -1.63100
H          3.96520        2.56510       -1.58550
H          2.21260        3.81130       -0.38760
H          0.40310        2.60630        0.78010
