18

C         -0.49470        1.12340        3.34270
C          0.53430        0.00620        3.24210
O          0.69930       -0.43820        1.89580
C          1.49900        0.30050        1.11060
O          2.08630        1.28680        1.48240
C          1.57940       -0.24710       -0.25300
C          2.34140        0.37030       -1.28390
C          2.27070       -0.30580       -2.45300
S          1.27750       -1.71020       -2.32900
C          0.95190       -1.38280       -0.68480
H         -0.14300        2.00030        2.80490
H         -0.64420        1.38670        4.38590
H         -1.44230        0.80260        2.91630
H          0.20960       -0.87960        3.79220
H          1.50190        0.34940        3.62380
H          2.90190        1.27320       -1.12720
H          2.73770       -0.07540       -3.38940
H          0.32110       -2.03670       -0.11710
