22

C         -1.69770       -2.25860        0.66000
C         -0.68900       -1.38450        0.63750
C          0.52840       -1.61760       -0.20410
O          0.73580       -2.56420       -0.92080
C          1.39970       -0.45050        0.03710
C          2.64240       -0.18280       -0.50220
C          3.29060        0.98900       -0.13090
Cl         4.83530        1.35490       -0.78030
C          2.67680        1.86530        0.77300
Br         3.55820        3.45870        1.27800
C          1.42800        1.59740        1.31560
C          0.77880        0.42760        0.94620
C         -0.51560       -0.11220        1.34300
C         -1.40040        0.45900        2.20870
C         -1.18600        1.69180        2.86710
N         -1.06110        2.68710        3.42260
C         -2.64780       -0.10390        2.56420
N         -3.66940       -0.50950        2.89030
H         -2.59040       -2.13550        1.24690
H         -1.61910       -3.14730        0.05340
H          3.09740       -0.87120       -1.19680
H          0.99200        2.29940        2.00810
