75

C          0.95400        1.00270        4.59250
C         -0.17260        0.60020        3.64970
C          0.07260       -0.66010        2.79440
C          0.41190       -1.91960        3.61860
C         -0.60480       -2.32480        4.67800
C          1.17540       -0.46810        1.77210
C          2.53020       -0.30790        1.97580
C          3.33690       -0.17340        0.85320
C          2.81900       -0.21310       -0.45930
C          1.47470       -0.43700       -0.65580
C          0.66120       -0.55470        0.46750
C         -0.76500       -0.79110        0.54630
C         -1.69890       -0.91920       -0.47820
C         -3.01510       -1.10470       -0.12510
C         -3.38950       -1.14600        1.23500
C         -2.46020       -1.01240        2.25780
C         -1.13620       -0.85570        1.90030
C         -4.81320       -1.32780        1.26320
S         -6.03280       -1.47940        2.46640
C         -7.23210       -1.63840        1.23110
C         -6.71990       -1.57790       -0.03040
C         -5.32630       -1.39940       -0.01230
C         -4.22560       -1.26090       -1.02740
C         -4.11070       -2.51400       -1.91440
C         -3.90460       -3.79190       -1.11050
C         -4.42900       -0.01860       -1.91440
C         -4.54320        1.27150       -1.11150
C          3.93050       -0.06170       -1.48920
C          3.81860        1.24970       -2.29410
C          2.62110        1.35860       -3.22880
C          3.96570       -1.33060       -2.36200
C          5.07890       -1.37180       -3.40060
C          5.13700        0.05240       -0.58950
C          6.51970        0.26220       -0.74020
C          7.15230        0.33250        0.46460
S          6.08370        0.16140        1.81120
C          4.75540       -0.00630        0.73190
H          1.84350        1.28770        4.03820
H          1.20670        0.19710        5.27680
H          0.63850        1.86040        5.18370
H         -0.36870        1.42780        2.96210
H         -1.08280        0.44190        4.23080
H          1.37930       -1.75840        4.09750
H          0.53480       -2.74700        2.91400
H         -0.22220       -3.17790        5.23530
H         -0.78840       -1.51770        5.38220
H         -1.54660       -2.61810        4.22310
H          2.97540       -0.30020        2.95860
H          1.05080       -0.53650       -1.64300
H         -1.39450       -0.86520       -1.51300
H         -2.78790       -1.02040        3.28570
H         -8.25540       -1.76840        1.52370
H         -7.32210       -1.65860       -0.91790
H         -3.27230       -2.37900       -2.60130
H         -5.02180       -2.60250       -2.51090
H         -3.82620       -4.64670       -1.77850
H         -2.99320       -3.72930       -0.51990
H         -4.74000       -3.95930       -0.43460
H         -3.58660        0.05820       -2.60520
H         -5.33610       -0.15960       -2.50670
H         -5.39090        1.22700       -0.43160
H         -3.64240        1.43840       -0.52510
H         -4.68270        2.11800       -1.78010
H          3.77890        2.07250       -1.57500
H          4.73750        1.36830       -2.87170
H          2.60160        0.54290       -3.94690
H          1.69090        1.35920       -2.66790
H          2.68030        2.29380       -3.78250
H          4.07510       -2.18640       -1.69030
H          3.00120       -1.43320       -2.86190
H          4.99190       -0.55140       -4.10820
H          6.05380       -1.32270       -2.92400
H          5.02230       -2.30540       -3.95700
H          7.03740        0.36780       -1.67670
H          8.19760        0.47820        0.65360
