20

C          0.62600        2.41980        2.79300
C          0.15210        0.98400        2.99800
N          0.31780        0.22620        1.79020
N          1.42640       -0.40720        1.53340
C          1.22280       -0.94870        0.32120
C          2.03590       -1.74510       -0.49400
C          1.51970       -2.14280       -1.69690
C          0.22180       -1.76030       -2.08600
F         -0.21030       -2.19660       -3.28980
C         -0.61080       -0.98560       -1.32650
C         -0.09400       -0.57140       -0.09400
N         -0.62140        0.17890        0.88620
H          0.04990        2.89490        2.00280
H          1.67790        2.43130        2.51820
H          0.49670        2.98600        3.71090
H         -0.90850        0.96470        3.25510
H          0.74010        0.49460        3.77650
H          3.02640       -2.02560       -0.17530
H          2.09080       -2.75700       -2.37540
H         -1.59900       -0.71110       -1.65410
