18

C         -1.76140        0.90690        2.64700
C         -0.66060        0.58700        1.97000
C          0.59020        0.02580        2.55880
O          0.79570       -0.22160        3.72280
C          1.51500       -0.15960        1.41740
C          2.80890       -0.65110        1.41490
C          3.47900       -0.72940        0.20220
C          2.86960       -0.32580       -0.97950
C          1.57250        0.16770       -0.98230
C          0.89980        0.24770        0.22470
C         -0.47340        0.73020        0.49660
O         -1.27840        1.15190       -0.29850
H         -2.62490        1.30870        2.14170
H         -1.81320        0.77120        3.71530
H          3.27400       -0.96220        2.33780
H          4.48950       -1.10950        0.17460
H          3.41490       -0.39790       -1.90890
H          1.09080        0.48360       -1.89500
