37

C          3.71400       -3.50750       -3.52480
C          3.96230       -2.04300       -3.18110
N          3.02830       -1.57620       -2.17910
C          3.25980       -1.67120       -0.81480
O          4.26610       -2.10280       -0.31150
C          2.03840       -1.13410       -0.16780
C          1.72980       -1.00220        1.17420
C          0.48300       -0.47400        1.47400
C         -0.42370       -0.08590        0.44600
C         -0.09630       -0.21750       -0.89550
C          1.14840       -0.75060       -1.17730
C          1.78780       -1.03500       -2.48400
O          1.36860       -0.84910       -3.59850
C         -1.63970        0.41260        1.07580
C         -2.84050        0.90990        0.62730
C         -3.80430        1.28910        1.57350
C         -3.59380        1.18330        2.94020
C         -4.60770        1.57560        3.84040
N         -5.42820        1.88910        4.57800
C         -2.35980        0.67560        3.44050
C         -1.96870        0.49700        4.78590
C         -0.72600       -0.01550        5.07390
C          0.20050       -0.38350        4.07900
C         -0.15280       -0.22130        2.76240
C         -1.42930        0.30890        2.47040
H          3.83200       -4.12630       -2.63820
H          2.70700       -3.63590       -3.91520
H          4.42530       -3.83500       -4.27730
H          4.96880       -1.91190       -2.77650
H          3.83180       -1.41670       -4.06690
H          2.42850       -1.30240        1.93930
H         -0.77090        0.07270       -1.68570
H         -3.05890        1.01320       -0.42470
H         -4.75120        1.67830        1.22690
H         -2.65020        0.76450        5.58010
H         -0.44220       -0.14560        6.10800
H          1.16160       -0.78290        4.36580
