25

C         -0.98780       -1.93290       -2.09040
C         -0.48980       -1.38680       -0.97970
C          0.14650       -2.22320        0.09050
O          0.26870       -3.42450        0.07980
C          0.57790       -1.27120        1.12780
C          1.22990       -1.53240        2.31640
C          1.55950       -0.47140        3.15570
C          2.25040       -0.71540        4.45790
C          1.21740        0.82580        2.77120
C          0.56190        1.09780        1.58240
C          0.23510        0.04000        0.74290
C         -0.43070        0.01260       -0.55030
C         -0.91400        1.08730       -1.23830
C         -0.84960        2.42170       -0.77860
N         -0.83000        3.52280       -0.45740
C         -1.54430        1.01360       -2.50040
N         -2.05940        1.02440       -3.52530
H         -0.92740       -3.00360       -2.20800
H         -1.45010       -1.37210       -2.88360
H          1.47820       -2.55010        2.57860
H          2.93140        0.09850        4.69540
H          2.80400       -1.65040        4.43570
H          1.51310       -0.77820        5.25900
H          1.47530        1.64720        3.42390
H          0.31910        2.11580        1.32460
