75

C          4.07190       -2.70290       -2.47960
C          3.95430       -4.08440       -3.10910
C          2.81510       -4.98260       -2.57300
C          3.26200       -5.91370       -1.42590
C          3.86150       -5.23060       -0.20550
C          2.32620       -5.86200       -3.70560
C          2.88880       -6.82020       -4.56210
C          1.96970       -7.30860       -5.44340
S          0.39690       -6.61400       -5.25450
C          0.98550       -5.64480       -3.96360
C          0.50130       -4.65930       -3.06530
S         -1.02050       -3.89750       -2.77180
C         -0.28940       -2.97940       -1.49040
C         -0.74420       -1.98440       -0.62560
C          0.28530       -1.51200        0.17940
S          1.79940       -2.30650       -0.07300
C          1.07860       -3.27520       -1.33130
C          1.53640       -4.23900       -2.23720
C         -0.18800       -0.41590        0.94200
S          0.46080        0.71400        2.08440
C         -1.07590        1.52820        2.12510
C         -1.57100        2.66590        2.75810
C         -2.89160        2.90840        2.41080
S         -3.55450        1.75210        1.30440
C         -2.02880        0.91650        1.28970
C         -1.51720       -0.18700        0.61220
C         -2.01740       -1.21330       -0.37480
C         -3.08670       -2.06110        0.34940
C         -3.62960       -3.23580       -0.45100
C         -2.56830       -0.57490       -1.65720
C         -1.58480        0.39770       -2.29750
C         -3.31770        4.09720        3.06130
S         -4.71860        5.08890        3.11960
C         -3.88680        6.19520        4.15560
C         -2.60750        5.81720        4.44000
C         -2.27270        4.60320        3.82090
C         -1.06300        3.70310        3.73020
C          0.17680        4.43140        3.19050
C         -0.03980        5.00510        1.79500
C         -0.76800        2.98680        5.06620
C         -0.38440        3.90740        6.21630
H          4.18800       -2.75670       -1.40200
H          3.19290       -2.10360       -2.70240
H          4.94000       -2.19290       -2.89270
H          3.79710       -3.94940       -4.18260
H          4.89330       -4.62710       -2.98410
H          2.39060       -6.49790       -1.11780
H          3.99550       -6.61190       -1.83690
H          4.79150       -4.72740       -0.45420
H          3.17210       -4.50650        0.21780
H          4.07620       -5.97870        0.55510
H          3.91550       -7.13880       -4.54260
H          2.11520       -8.04540       -6.20800
H         -2.64530       -2.43610        1.27670
H         -3.90810       -1.39250        0.61880
H         -4.35590       -3.77730        0.15120
H         -4.12430       -2.90260       -1.35880
H         -2.83370       -3.92360       -0.72120
H         -2.79850       -1.36880       -2.36930
H         -3.49350       -0.04920       -1.41160
H         -1.36320        1.22380       -1.62570
H         -0.65140       -0.10450       -2.54270
H         -2.00640        0.80430       -3.21340
H         -4.40520        7.07120        4.49150
H         -1.94720        6.40290        5.05380
H          0.43300        5.24280        3.87260
H          1.00920        3.72430        3.16770
H          0.84860        5.54160        1.47020
H         -0.24180        4.21280        1.07790
H         -0.88080        5.69490        1.78960
H         -1.66040        2.42200        5.34820
H          0.03730        2.27000        4.88770
H         -0.20700        3.31390        7.11050
H         -1.18460        4.61070        6.42980
H          0.52330        4.46170        5.99400
