56

C          4.01650       -0.55850        5.66090
C          4.59290        0.38440        4.82610
C          4.09810        0.58930        3.55270
C          3.01610       -0.15920        3.09150
N          2.51600        0.04080        1.80020
C          3.36500        0.36550        0.73460
C          4.63330       -0.20430        0.63860
C          5.45550        0.11070       -0.42500
C          5.02680        0.98540       -1.41010
C          3.76640        1.55080       -1.32050
C          2.94020        1.25020       -0.25500
C          1.15270       -0.07050        1.55560
C          0.16090        0.34110        2.40170
S         -1.43960        0.02650        1.81840
C         -0.78740       -0.65920        0.37080
C         -1.34430       -1.27540       -0.78480
N         -2.70730       -1.42560       -1.00950
C         -3.56850       -0.38760       -0.63150
C         -3.16400        0.94000       -0.75890
C         -4.00260        1.96360       -0.36240
C         -5.25530        1.68170        0.15470
C         -5.66370        0.36340        0.27710
C         -4.82900       -0.66720       -0.10660
C         -3.19550       -2.58920       -1.61390
C         -4.28530       -2.52920       -2.48130
C         -4.76880       -3.68110       -3.07080
C         -4.17350       -4.90510       -2.81470
C         -3.08780       -4.96870       -1.95700
C         -2.60140       -3.82390       -1.35700
C         -0.35230       -1.69760       -1.62550
S          1.24820       -1.39150       -1.03790
C          0.59550       -0.64300        0.37790
C          2.44130       -1.10920        3.93450
C          2.93870       -1.30150        5.20840
H          4.40410       -0.71340        6.65620
H          5.43050        0.97230        5.17140
H          4.54400        1.33210        2.90780
H          4.96360       -0.89650        1.39880
H          6.43560       -0.33840       -0.49020
H          5.67160        1.22430       -2.24200
H          3.42520        2.23770       -2.08070
H          1.96340        1.70560       -0.17910
H          0.28190        0.79490        3.36510
H         -2.19340        1.16350       -1.17740
H         -3.67720        2.98810       -0.46640
H         -5.90990        2.48350        0.46060
H         -6.63770        0.13500        0.68410
H         -5.14330       -1.69470        0.00150
H         -4.74600       -1.57520       -2.69080
H         -5.61270       -3.62030       -3.74210
H         -4.55240       -5.80250       -3.27950
H         -2.61980       -5.91890       -1.74560
H         -1.76240       -3.88050       -0.67970
H         -0.47280       -2.20520       -2.56170
H          1.60850       -1.69940        3.58220
H          2.48570       -2.04360        5.84900
