59

C          8.82570       -0.45940        3.48270
C          8.36780        0.87840        2.91090
O          6.95960        1.00490        2.88710
C          6.27310        0.33490        1.93520
C          6.74870       -0.39060        0.88230
S          5.49440       -1.05830       -0.11580
C          4.27980       -0.35780        0.89750
C          4.85140        0.35560        1.94460
S          3.68610        1.09900        3.00770
C          2.41880        0.43930        2.02770
C          1.01580        0.45050        1.94730
C          0.06450        1.14200        2.72610
N          0.26620        1.91960        3.77850
S         -1.16420        2.50960        4.25810
N         -2.09540        1.79420        3.14190
C         -1.31800        1.06680        2.35480
C         -1.68770        0.23580        1.27660
C         -2.96010       -0.09250        0.77860
S         -4.62480        0.29800        1.05890
C         -5.06930       -0.85090       -0.17530
C         -6.32190       -1.26630       -0.70380
O         -7.46970       -0.72500       -0.24500
C         -8.67620       -1.17260       -0.83250
C         -9.81890       -0.39990       -0.19620
C         -6.16280       -2.21680       -1.66930
S         -4.50090       -2.62510       -1.96270
C         -3.98390       -1.49220       -0.76120
C         -2.76780       -1.04660       -0.21790
N         -1.43350       -1.31000       -0.36380
C         -1.03500       -2.38450       -1.24070
C         -1.04410       -1.95390       -2.70850
C         -0.73500       -0.51730        0.53150
C          0.65060       -0.33990        0.81970
N          1.81840       -0.77910        0.21840
C          2.08570       -1.45000       -1.03090
C          2.48790       -2.91040       -0.81820
C          2.87690       -0.31610        0.95080
H          9.91060       -0.48490        3.53160
H          8.42220       -0.58840        4.48370
H          8.48050       -1.28360        2.86320
H          8.70210        1.69510        3.55580
H          8.77990        1.03380        1.90580
H          7.76160       -0.58980        0.59830
H         -8.64840       -0.99640       -1.91720
H         -8.79500       -2.25170       -0.66000
H         -9.68560        0.66450       -0.36810
H         -9.83400       -0.57730        0.87540
H        -10.76440       -0.71730       -0.62630
H         -6.90890       -2.72460       -2.24500
H         -1.76330       -3.19350       -1.11470
H         -0.06490       -2.76510       -0.93530
H         -2.06140       -1.74260       -3.02580
H         -0.45110       -1.05490       -2.86550
H         -0.64870       -2.75220       -3.33040
H          2.92320       -0.92800       -1.50730
H          1.22540       -1.35750       -1.68710
H          3.44330       -2.96010       -0.30340
H          2.58810       -3.40960       -1.77800
H          1.75520       -3.44380       -0.21580
