17

O         -1.38690       -1.38680        0.33400
C         -0.42070       -0.76720        0.69570
O          0.17050       -1.12050        1.88900
C          1.25250       -0.47880        2.36320
C          1.88930       -0.80890        3.58160
C          2.95720       -0.00580        3.82420
S          3.22480        1.16820        2.59400
C          1.86290        0.58060        1.70510
C          1.31490        1.00010        0.47680
S          1.82620        2.26610       -0.57680
C          0.53790        1.90200       -1.67230
C         -0.23770        0.87340       -1.25750
C          0.19560        0.33910       -0.01750
H          1.55680       -1.60090        4.22530
H          3.61800       -0.03090        4.66730
H          0.44340        2.48730       -2.56490
H         -1.08770        0.49010       -1.79030
