13

C         -0.93100       -0.59310        0.90010
O          0.06780       -1.36680        0.27910
C          1.33280       -0.86490        0.28570
C          1.76680        0.36500        0.85390
C          3.09820        0.56690        0.68620
S          3.85270       -0.72090       -0.15930
C          2.35800       -1.55440       -0.29570
H         -0.72190       -0.44740        1.96520
H         -1.85510       -1.15800        0.78920
H         -1.04310        0.38230        0.41480
H          1.12690        1.06400        1.36060
H          3.68470        1.40240        1.01180
H          2.30590       -2.50120       -0.79160
