132

C          4.64340        2.70850        3.90580
C          5.60210        2.29440        2.78760
C          4.87580        1.50000        1.74070
C          4.25880        2.12830        0.66700
C          3.56010        1.40160       -0.27710
C          3.46440        0.01640       -0.18630
C          2.63560       -0.75570       -1.20690
C          2.83260       -0.28950       -2.63160
C          1.83230       -0.54920       -3.56370
C          1.95990       -0.13300       -4.87480
C          3.09070        0.55370       -5.29720
C          3.20860        1.05320       -6.70810
C          2.64770        2.47220       -6.82230
C          4.09030        0.80580       -4.36860
C          3.96850        0.38730       -3.05580
C          1.19210       -0.53700       -0.75860
C          0.43850        0.61070       -0.83480
C         -0.85110        0.55830       -0.31460
C         -1.36450       -0.60750        0.29360
C         -0.61680       -1.75920        0.35430
C          0.66180       -1.71450       -0.19490
C          1.65650       -2.72560       -0.34680
S          1.75580       -4.36800        0.17080
C          3.34330       -4.42990       -0.49270
C          3.75820       -3.26060       -1.13360
C          2.78650       -2.25570       -1.00810
C          5.15780       -3.46540       -1.69380
C          6.07050       -2.29770       -1.30020
C          7.50360       -2.38370       -1.80830
C          5.12740       -3.76830       -3.21270
C          4.71550       -2.62220       -4.11970
C          5.51880       -4.80240       -1.07630
C          6.61400       -5.68160       -1.08820
C          6.33120       -6.85390       -0.45170
S          4.71480       -6.93510        0.15620
C          4.41330       -5.35860       -0.45730
C         -2.77050       -0.36210        0.83380
C         -2.63030       -0.42300        2.34510
C         -2.60000       -1.65120        2.99660
C         -2.40430       -1.72100        4.36260
C         -2.21780       -0.57070        5.11790
C         -2.04800       -0.64420        6.60810
C         -3.40550       -0.54850        7.30730
C         -2.23100        0.65240        4.46290
C         -2.42690        0.72680        3.09630
C         -3.78770       -1.32640        0.26510
C         -3.67690       -1.72410       -1.06220
C         -4.61590       -2.56390       -1.62910
C         -5.69310       -3.03200       -0.88810
C         -6.74500       -3.89740       -1.51940
C         -7.84660       -3.02790       -2.12910
C         -5.80510       -2.63010        0.43520
C         -4.87080       -1.78310        1.00460
C         -3.03760        1.03980        0.32740
C         -1.89410        1.53330       -0.28700
S         -2.05210        3.14780       -0.88050
C         -3.67790        3.15630       -0.30710
C         -4.08050        1.96890        0.30230
C         -5.52310        2.07910        0.75670
C         -6.44490        1.07560        0.04200
C         -6.21090        1.02170       -1.46280
C         -5.57010        1.91110        2.28830
C         -6.95280        2.04630        2.91120
C         -5.85050        3.48820        0.31750
C         -6.97440        4.32980        0.31580
C         -6.70720        5.53230       -0.26920
S         -5.08340        5.67050       -0.84800
C         -4.75680        4.07740       -0.29410
C          4.05550       -0.60850        0.90340
C          4.75430        0.12250        1.84710
H          5.16860        3.28410        4.66470
H          4.20770        1.82900        4.37470
H          3.83520        3.31590        3.50480
H          6.41110        1.69560        3.21120
H          6.03810        3.18900        2.33800
H          4.32470        3.20280        0.56790
H          3.09010        1.92170       -1.09820
H          0.94570       -1.08490       -3.25520
H          1.16950       -0.34500       -5.58080
H          4.25710        1.05530       -7.01320
H          2.65810        0.39320       -7.38150
H          3.19200        3.14780       -6.16610
H          1.59880        2.48830       -6.53450
H          2.73380        2.83540       -7.84380
H          4.98160        1.33500       -4.67580
H          4.76800        0.59770       -2.36040
H          0.80630        1.51560       -1.29270
H         -0.99550       -2.67130        0.78870
H          6.08800       -2.24090       -0.20910
H          5.61190       -1.37890       -1.66600
H          8.00260       -3.26610       -1.41820
H          7.54040       -2.41000       -2.89390
H          8.05640       -1.50860       -1.47230
H          4.43480       -4.60090       -3.36400
H          6.12120       -4.11840       -3.49770
H          3.69980       -2.30790       -3.90450
H          4.75800       -2.94890       -5.15700
H          5.37420       -1.76650       -4.00700
H          7.57130       -5.48060       -1.53390
H          6.98130       -7.69140       -0.29390
H         -2.73630       -2.56280        2.43360
H         -2.38810       -2.68650        4.84840
H         -1.41030        0.17450        6.94780
H         -1.56830       -1.58660        6.88030
H         -3.89550        0.38910        7.05380
H         -4.05040       -1.36680        6.99430
H         -3.28300       -0.59610        8.38690
H         -2.07790        1.56160        5.02720
H         -2.41750        1.69190        2.61270
H         -2.84520       -1.37080       -1.65520
H         -4.51070       -2.86110       -2.66290
H         -7.18230       -4.55880       -0.76870
H         -6.29890       -4.51490       -2.30150
H         -8.61780       -3.64790       -2.58050
H         -7.43160       -2.37620       -2.89500
H         -8.30430       -2.40620       -1.36250
H         -6.63810       -2.97850        1.02990
H         -4.98820       -1.48200        2.03590
H         -6.28430        0.08350        0.46380
H         -7.47950        1.36820        0.22880
H         -6.93100        0.35060       -1.92530
H         -5.21250        0.65240       -1.68370
H         -6.32260        2.00850       -1.90730
H         -5.15970        0.92890        2.53040
H         -4.90960        2.66170        2.72980
H         -7.63160        1.28640        2.53360
H         -7.37430        3.02720        2.71100
H         -6.87560        1.92480        3.98980
H         -7.94190        4.07710        0.71100
H         -7.37110        6.36330       -0.40180
H          3.97400       -1.67730        1.02810
H          5.21190       -0.39090        2.68110
