9

Cl         1.43440       -2.17370        4.10440
C          1.53320       -1.38210        2.58280
C          0.80890       -1.80800        1.44120
C          1.05730       -1.02060        0.36650
S          2.16790        0.24060        0.72650
C          2.30940       -0.28990        2.35260
H          0.14660       -2.65350        1.44030
H          0.65500       -1.10160       -0.62320
H          2.94920        0.22770        3.03770
