28

C          0.10580       -0.44450        4.72710
C          0.20690       -0.53990        3.23440
C          1.07470        0.28010        2.52790
C          1.16280        0.21760        1.14570
C          2.10990        1.10630        0.39620
C          0.36070       -0.69120        0.45490
C          0.43250       -0.76150       -1.01780
C         -0.26440        0.12400       -1.88490
C         -0.04600       -0.14340       -3.19500
S          1.01710       -1.47730       -3.41550
C          1.16180       -1.67470       -1.71200
C         -0.51910       -1.52390        1.14710
C         -1.37740       -2.50180        0.40150
C         -0.58380       -1.43570        2.52900
H         -0.13440       -1.41220        5.16190
H          1.03760       -0.08500        5.15750
H         -0.68540        0.25380        5.00290
H          1.69670        0.98240        3.06560
H          1.56400        1.76130       -0.28140
H          2.79580        0.51110       -0.20500
H          2.68850        1.72020        1.08140
H         -0.90090        0.91480       -1.52990
H         -0.44370        0.35890       -4.05420
H          1.78450       -2.45530       -1.32180
H         -1.88940       -2.01190       -0.42530
H         -2.11860       -2.94590        1.06110
H         -0.76500       -3.30020       -0.01700
H         -1.26570       -2.07890        3.06800
