138

C          0.80140        6.41530        1.94460
C          1.14700        6.67310        0.48270
O          2.51640        6.46470        0.19810
C          3.08650        5.23680        0.36890
C          4.45880        5.26010        0.66490
C          5.23980        6.43900        0.85460
C          6.52880        6.17930        1.13640
S          6.88110        4.48580        1.19310
C          5.21840        4.07590        0.80470
C          4.64170        2.81910        0.66040
O          5.23850        1.60360        0.76600
C          6.63290        1.46000        0.59220
C          7.08550        1.74520       -0.83470
C          3.25780        2.78720        0.40280
C          2.43170        1.64150        0.23880
C          1.13380        1.94880       -0.06640
S          0.82250        3.64350       -0.16640
C          2.50340        3.98480        0.23780
C          0.32610        0.77470       -0.20730
C         -1.02350        0.62580       -0.50670
C         -1.52660       -0.65510       -0.52230
C         -0.69510       -1.75090       -0.21000
C          0.65800       -1.60340        0.07520
C          1.16560       -0.32500        0.06380
C          2.58720        0.14140        0.36720
C          2.94440       -0.17700        1.81090
C          1.99310        0.06260        2.79700
C          2.27760       -0.17220        4.12800
C          3.52390       -0.64450        4.51770
C          3.82060       -0.94130        5.95980
C          3.45540       -2.38880        6.29520
C          4.47280       -0.87580        3.53240
C          4.19090       -0.64420        2.19830
C          3.50330       -0.46410       -0.67260
C          3.89910       -1.79400       -0.58290
C          4.70430       -2.35890       -1.55370
C          5.12220       -1.62230       -2.65390
C          6.04660       -2.21740       -3.67700
C          7.50450       -1.93770       -3.30550
C          4.69820       -0.30500       -2.75880
C          3.89770        0.26550       -1.78570
C         -1.53240       -2.91320       -0.19730
S         -1.26530       -4.58360        0.16250
C         -2.96580       -4.89030       -0.10110
C         -3.55340       -6.13650        0.02500
O         -2.80640       -7.22320        0.41680
C         -2.51470       -8.16820       -0.60170
C         -1.53770       -7.63210       -1.64200
C         -4.92950       -6.21610       -0.21070
C         -5.74990       -7.38080       -0.11270
C         -7.03710       -7.15020       -0.42840
S         -7.34610       -5.50720       -0.86640
C         -5.66800       -5.06400       -0.58740
C         -5.08320       -3.80520       -0.69520
O         -5.66930       -2.63740       -1.06160
C         -7.05670       -2.43430       -0.88530
C         -7.47270       -2.43840        0.58100
C         -3.69850       -3.72530       -0.44440
C         -2.83310       -2.59930       -0.49550
C         -2.95650       -1.12150       -0.79370
C         -3.90760       -0.46850        0.19310
C         -3.58490       -0.51990        1.54540
C         -4.41040        0.05270        2.49270
C         -5.58530        0.69340        2.11940
C         -6.45960        1.35860        3.14360
C         -6.02030        2.80810        3.35990
C         -5.90790        0.73610        0.77040
C         -5.08530        0.15930       -0.18170
C         -3.27920       -0.84710       -2.25070
C         -3.43160        0.46010       -2.70210
C         -3.69620        0.72640       -4.03150
C         -3.81340       -0.30210       -4.95690
C         -4.05720       -0.00810       -6.40930
C         -2.72980        0.20070       -7.14090
C         -3.64660       -1.60400       -4.50910
C         -3.38040       -1.87380       -3.17890
H          1.44430        7.00940        2.59010
H          0.93580        5.36510        2.19230
H         -0.23440        6.68670        2.12680
H          0.50850        6.07230       -0.17470
H          0.99320        7.72830        0.23950
H          4.81780        7.42330        0.77360
H          7.32560        6.87070        1.32750
H          6.81930        0.41020        0.83480
H          7.18690        2.07810        1.30740
H          6.88950        2.78030       -1.10300
H          6.54980        1.09710       -1.52420
H          8.15220        1.55920       -0.92060
H         -1.63530        1.49470       -0.69060
H          1.26200       -2.46450        0.31340
H          1.01740        0.43710        2.52080
H          1.52140        0.01960        4.87660
H          4.88250       -0.78290        6.15950
H          3.24820       -0.26820        6.60150
H          2.39850       -2.56470        6.10760
H          4.03010       -3.07610        5.67840
H          3.66370       -2.60270        7.34110
H          5.45230       -1.23880        3.81180
H          4.95210       -0.82630        1.45790
H          3.58440       -2.39460        0.25740
H          5.00910       -3.39180       -1.45750
H          5.89050       -3.29660       -3.73440
H          5.83750       -1.78920       -4.65970
H          8.17650       -2.37730       -4.03910
H          7.68690       -0.86580       -3.26650
H          7.73270       -2.35880       -2.32880
H          4.99460        0.28350       -3.61660
H          3.58310        1.29250       -1.89700
H         -3.43800       -8.49610       -1.09770
H         -2.07700       -9.01540       -0.06800
H         -0.62790       -7.28710       -1.15750
H         -1.29010       -8.41830       -2.35010
H         -1.98020       -6.79840       -2.18390
H         -5.37300       -8.33530        0.20740
H         -7.85520       -7.84340       -0.43910
H         -7.22970       -1.44670       -1.31990
H         -7.63940       -3.16600       -1.45650
H         -7.30830       -3.41520        1.02870
H         -6.89210       -1.70170        1.13090
H         -8.52790       -2.19350        0.65870
H         -2.67560       -1.01390        1.85790
H         -4.14090       -0.00000        3.53830
H         -6.39710        0.81860        4.09070
H         -7.49950        1.34370        2.81000
H         -6.09560        3.36820        2.43050
H         -4.98650        2.84270        3.69630
H         -6.64620        3.28950        4.10790
H         -6.82230        1.22170        0.45760
H         -5.37260        0.19280       -1.22070
H         -3.35500        1.28350       -2.00880
H         -3.81700        1.75110       -4.35500
H         -4.66780        0.89200       -6.50840
H         -4.59560       -0.83880       -6.87040
H         -2.90280        0.41590       -8.19300
H         -2.18270        1.03140       -6.70070
H         -2.11260       -0.69170       -7.06470
H         -3.72730       -2.42310       -5.21020
H         -3.25490       -2.89960       -2.86960
