66

C          7.10780       -3.25840        2.84810
C          8.04390       -2.72250        1.76290
C          7.59210       -1.38870        1.27710
C          6.89490       -1.09140        0.14590
C          6.57470        0.27310        0.02490
C          7.01600        1.03070        1.07500
C          6.93680        2.45280        1.28300
C          5.91510        3.26450        0.95820
C          4.60230        2.91020        0.49760
C          3.72870        3.74140       -0.16120
C          2.48200        3.15780       -0.42140
C          2.37350        1.87670        0.05610
C          1.24430        0.97950       -0.05850
C         -0.07520        1.44330        0.09360
C         -0.51380        2.73740        0.50670
C         -1.85500        2.83640        0.59250
S         -2.68310        1.37700        0.17290
C         -1.16360        0.56740       -0.11080
C         -1.01540       -0.78010       -0.43590
C         -2.18090       -1.61640       -0.63140
C         -3.34500       -1.27560       -1.26920
C         -4.32500       -2.27520       -1.21880
C         -3.93600       -3.38910       -0.52260
C         -4.66570       -4.60910       -0.28960
C         -5.97000       -4.70410        0.02080
C         -6.88220       -3.65100        0.36960
C         -8.25060       -3.73160        0.35920
C         -8.88810       -2.56890        0.83090
C         -8.01690       -1.60340        1.23500
C         -8.31240       -0.24880        1.78020
C         -7.74220        0.85290        0.88650
S         -6.37530       -2.11490        1.01910
S         -2.29840       -3.21750        0.03880
C          0.30330       -1.25450       -0.54280
C          0.74260       -2.56690       -0.88980
C          2.08450       -2.67370       -0.94730
S          2.91270       -1.19880       -0.58850
C          1.39390       -0.37520       -0.35010
S          3.84630        1.38110        0.83510
S          7.87700        0.03630        2.22020
H          7.09660       -2.58430        3.70150
H          6.09430       -3.34330        2.46300
H          7.43890       -4.23870        3.18210
H          9.05550       -2.64600        2.16800
H          8.06260       -3.41610        0.91960
H          6.61980       -1.82940       -0.58670
H          6.05930        0.68720       -0.82270
H          7.81250        2.89760        1.73930
H          6.06070        4.33160        1.07720
H          3.99420        4.73770       -0.46850
H          1.70290        3.64500       -0.98020
H          0.15750        3.53800        0.75650
H         -2.43620        3.69070        0.87990
H         -3.47770       -0.34400       -1.78920
H         -5.28540       -2.19140       -1.69480
H         -4.09210       -5.52200       -0.38780
H         -6.41160       -5.69280        0.05800
H         -8.78040       -4.59810        0.00390
H         -9.95680       -2.45420        0.87530
H         -7.87890       -0.15450        2.77960
H         -9.39480       -0.13490        1.86800
H         -6.66130        0.75600        0.81270
H         -8.16410        0.78480       -0.11380
H         -7.97740        1.83150        1.29740
H          0.07450       -3.38350       -1.09110
H          2.66570       -3.54400       -1.18220
