12

F          0.59510       -2.50620        2.90050
C          0.97580       -1.63290        1.94280
C          0.19930       -0.51200        1.71320
C          0.59710        0.37750        0.72990
C          1.74900        0.14060       -0.00200
C          2.51170       -0.98900        0.24500
C          2.12920       -1.88930        1.22440
H         -0.69320       -0.34980        2.29650
H          0.00370        1.25830        0.53630
H          2.05320        0.83840       -0.76720
H          3.40920       -1.17220       -0.32630
H          2.70600       -2.77580        1.43550
