52

C          2.18830       -0.60780        3.79030
C          3.17080       -0.85020        2.65040
C          2.73600       -0.16780        1.34420
C          3.66900       -0.53570        0.16990
C          5.10930       -0.06260        0.31570
C          1.31910       -0.55190        0.94760
C          0.81710       -1.80600        0.68030
C         -0.52060       -1.89300        0.31180
C         -1.34350       -0.75180        0.20560
C         -0.84160        0.50230        0.47290
C          0.49620        0.58930        0.84140
C          1.31180        1.71530        1.19350
S          1.08150        3.41040        1.36980
C          2.72210        3.57770        1.88600
C          3.40280        2.39740        1.91630
C          2.59420        1.32210        1.50740
C         -2.76040       -1.13590       -0.19100
C         -3.69340       -0.76800        0.98330
C         -5.13370       -1.24100        0.83750
C         -3.19530       -0.45360       -1.49720
C         -2.21280       -0.69590       -2.63710
C         -2.61870       -2.62580       -0.35420
C         -3.42720       -3.70120       -0.76300
C         -2.74650       -4.88140       -0.73280
S         -1.10590       -4.71410       -0.21660
C         -1.33630       -3.01910       -0.04030
H          1.20620       -1.00470        3.54290
H          2.53920       -1.09420        4.69780
H          2.08660        0.45710        3.98820
H          3.26380       -1.92360        2.47210
H          4.15100       -0.46820        2.94020
H          3.24620       -0.10380       -0.74110
H          3.65580       -1.62190        0.05650
H          5.57940       -0.49010        1.19740
H          5.15450        1.02080        0.38230
H          5.68270       -0.37230       -0.55560
H          1.42370       -2.69630        0.75480
H         -1.44810        1.39250        0.39840
H          3.08320        4.55470        2.14030
H          4.42750        2.32090        2.23290
H         -3.68010        0.31820        1.09680
H         -3.27060       -1.20000        1.89430
H         -5.70710       -0.93140        1.70890
H         -5.60380       -0.81340       -0.04420
H         -5.17900       -2.32440        0.77080
H         -3.28820        0.61990       -1.31890
H         -4.17540       -0.83560       -1.78700
H         -1.23070       -0.29910       -2.38980
H         -2.11110       -1.76080       -2.83500
H         -2.56370       -0.20960       -3.54460
H         -4.45200       -3.62460       -1.07960
H         -3.10770       -5.85850       -0.98700
