46

C         -0.07880       -7.14880        3.11660
C         -1.39820       -7.65200        2.56980
S         -2.69780       -6.35940        2.63360
C         -2.00120       -5.15620        1.56980
S         -1.61780       -3.57380        2.17300
C         -1.03970       -3.05550        0.61520
C         -0.59390       -1.69730        0.37360
C          0.19750       -0.98020        1.28780
C          0.74170       -1.42410        2.53020
C          1.49780       -0.48940        3.13860
S          1.60960        0.99180        2.25550
C          0.59730        0.34420        0.99310
C          0.25290        1.00410       -0.18360
C          0.72310        2.33860       -0.48940
C          1.20480        2.80910       -1.67830
C          1.61110        4.15560       -1.61590
Cl         2.27660        5.00750       -2.95030
C          1.43830        4.72850       -0.38240
S          1.78370        6.39000        0.01260
C          1.83000        6.32750        1.83810
C          3.06150        5.61270        2.35720
S          0.74670        3.58640        0.72730
C         -0.56470        0.29840       -1.08360
C         -1.14550        0.76690       -2.30010
C         -1.91790       -0.15790       -2.90330
S         -1.99060       -1.65960       -2.04860
C         -0.95500       -1.02920       -0.79610
C         -1.14270       -4.06790       -0.29880
C         -1.68820       -5.24940        0.24050
Cl        -1.94350       -6.65640       -0.71200
H         -0.20200       -6.78210        4.13310
H          0.30920       -6.34010        2.49950
H          0.64910       -7.95720        3.12190
H         -1.80240       -8.45830        3.18020
H         -1.30880       -7.98800        1.53880
H          0.57530       -2.40350        2.93780
H          2.01580       -0.56800        4.07430
H          1.31880        2.20490       -2.55900
H          1.82500        7.37460        2.13970
H          0.90940        5.85100        2.17470
H          3.07130        4.57350        2.03610
H          3.06480        5.63470        3.44460
H          3.96370        6.09920        1.99430
H         -1.00580        1.76270       -2.67760
H         -2.46750       -0.06310       -3.81920
H         -0.82420       -3.99090       -1.32170
