16

C          0.04360       -0.42870       -0.80280
C         -0.37730        0.74860        0.05380
S          1.02740        1.86160        0.42910
C          2.08770        0.76740        1.31820
C          1.67400       -0.13080        2.33720
C          2.71500       -0.81570        2.86730
S          4.21960       -0.37210        2.16000
C          3.43300        0.73950        1.11290
H          0.47700       -0.08130       -1.73800
H          0.78320       -1.03610       -0.28390
H         -0.82000       -1.05180       -1.02710
H         -1.08700        1.38690       -0.47180
H         -0.82110        0.42740        0.99550
H          0.65530       -0.24940        2.65820
H          2.69580       -1.55290        3.64500
H          4.00190        1.32290        0.41800
