9

N          1.44930       -1.77170        4.61680
C          1.24290       -1.79570        3.48980
C          0.97770       -1.84150        2.11000
C          1.49300       -0.94270        1.24300
C          2.34210        0.11950        1.65040
N          3.02690        0.98020        1.96520
C          1.21280       -1.00550       -0.14600
N          0.98370       -1.06310       -1.26560
H          0.33330       -2.64050        1.76540
