37

C         -1.03820       -1.63480        4.40260
C          0.33570       -1.92960        3.81590
N          0.57680       -1.14610        2.60860
C          0.19260       -1.73090        1.40520
O         -0.20230       -2.88020        1.40750
C          0.30440       -0.87940        0.21560
C         -0.40540       -1.13180       -0.93920
C         -1.33340       -2.22850       -1.04360
C         -1.90070       -2.59110       -2.20250
C         -1.69160       -1.84050       -3.46960
C         -1.41710       -0.38140       -3.12850
C         -0.24360       -0.28080       -2.16070
C          1.21830        0.26330        0.29560
O          1.70480        0.82750       -0.66560
N          1.49830        0.73340        1.57370
C          2.28060        1.96140        1.66400
C          3.76140        1.66220        1.85320
C          1.13240        0.09420        2.72220
S          1.39600        0.77780        4.20160
H         -1.11420       -0.58700        4.68310
H         -1.81500       -1.86800        3.67810
H         -1.19160       -2.24410        5.28840
H          0.40470       -2.98000        3.52720
H          1.11820       -1.69130        4.53780
H         -1.52410       -2.81080       -0.15760
H         -2.53970       -3.46180       -2.23410
H         -0.83750       -2.26660       -4.00780
H         -2.56490       -1.93560       -4.11740
H         -1.19440        0.19060       -4.03000
H         -2.30770        0.04980       -2.66520
H          0.67520       -0.60950       -2.65880
H         -0.07590        0.76090       -1.88600
H          1.89720        2.54600        2.50200
H          2.12440        2.50400        0.73030
H          4.13290        1.06740        1.02210
H          3.92430        1.12020        2.78180
H          4.31690        2.59450        1.89300
