15

C          1.10030       -2.11110        1.62760
S          2.11860       -2.74650        0.39550
C          2.33870       -1.19200       -0.30690
C          1.66070       -0.23580        0.38150
C          0.94030       -0.76770        1.49520
O          0.17660        0.01280        2.31720
C         -0.09300        1.27650        1.74150
C          1.17630        1.88400        1.14220
O          1.65490        1.09500        0.07000
H          0.68320       -2.75240        2.37480
H          2.94470       -1.06880       -1.17950
H         -0.48280        1.90050        2.54630
H         -0.85150        1.17340        0.95320
H          0.97830        2.87290        0.72730
H          1.94550        1.95820        1.92340
