41

C          3.64350       -5.01030        0.88130
C          3.74810       -3.93340       -0.19070
N          2.69980       -2.92800       -0.02960
C          1.48670       -3.19890       -0.63510
O          1.31790       -4.21570       -1.27470
C          0.43170       -2.18350       -0.46070
C         -0.80170       -2.37790       -1.05300
C         -1.81970       -1.43610       -0.90980
C         -1.60640       -0.29080       -0.16760
C         -0.35710       -0.07350        0.44730
C         -0.14340        1.08870        1.20230
C          1.08720        1.28740        1.79590
S          1.51810        2.65180        2.75070
C          3.10850        1.98190        2.97390
C          3.30740        0.79370        2.36540
C          2.15230        0.34430        1.66290
C          1.94030       -0.81560        0.91310
C          0.68630       -1.02630        0.30480
C          3.00590       -1.82210        0.74900
O          4.10640       -1.71620        1.25030
C         -1.19760        2.09100        1.37120
O         -1.01690        3.09640        2.03330
N         -2.39410        1.83550        0.73520
C         -3.45950        2.82050        0.90230
C         -4.30950        2.50380        2.12570
C         -2.68660        0.70570       -0.01700
O         -3.77830        0.56490       -0.52490
H          3.74510       -4.56910        1.87030
H          2.68340       -5.51640        0.81190
H          4.43440       -5.74150        0.74170
H          3.62670       -4.37340       -1.18200
H          4.70750       -3.41850       -0.12180
H         -0.95750       -3.27680       -1.63040
H         -2.78320       -1.58560       -1.37280
H          3.81780        2.53130        3.56230
H          4.22310        0.23360        2.39350
H         -2.98430        3.79690        1.01150
H         -4.07030        2.79660       -0.00170
H         -5.09430        3.24790        2.22640
H         -4.76870        1.52350        2.02100
H         -3.69660        2.51820        3.02400
