64

C          3.55120        2.21510        6.75490
C          4.49010        2.51690        5.58670
C          4.44390        1.42200        4.57050
C          5.43200        0.51650        4.34450
S          5.05610       -0.64900        3.11670
C          3.50350        0.08060        2.87870
C          3.33490        1.17170        3.72630
S          1.79660        1.97230        3.52340
C          1.38990        0.82820        2.28680
C          0.35470        0.57170        1.37470
C         -0.83020        1.27590        1.08900
N         -1.38020        2.37440        1.61200
N         -2.45010        2.57200        0.88000
C         -3.35780        3.64930        1.14710
C         -4.53770        3.16370        1.98410
N         -2.67170        1.70870       -0.08180
C         -1.65190        0.85250        0.01240
C         -1.32210       -0.32030       -0.69220
C         -2.00140       -1.01720       -1.70310
S         -3.44210       -0.87340       -2.65500
C         -3.08850       -2.42110       -3.38130
C         -3.75710       -3.19730       -4.35880
C         -5.04190       -2.79450       -5.00740
C         -6.20710       -2.90250       -4.02370
C         -3.08440       -4.35480       -4.59340
S         -1.63580       -4.53300       -3.65690
C         -1.91620       -2.99920       -2.90300
C         -1.28540       -2.18660       -1.94570
N         -0.17920       -2.23140       -1.14110
C          0.57490       -3.45890       -1.05890
C          1.51630       -3.63930       -2.25050
C         -0.16420       -1.08150       -0.36260
C          0.73420       -0.57600        0.62090
N          1.99290       -0.96990        1.05600
C          2.96510       -1.87690        0.49510
C          3.17110       -3.11560        1.36810
C          2.38090       -0.12300        2.05840
H          3.83660        1.28380        7.23960
H          3.59360        3.01630        7.48850
H          2.52740        2.12260        6.40080
H          4.18320        3.45230        5.11270
H          5.51250        2.63080        5.95150
H          6.38820        0.45380        4.82500
H         -2.79650        4.41860        1.68020
H         -3.70920        4.03590        0.18770
H         -4.18720        2.77740        2.93810
H         -5.22530        3.98440        2.16840
H         -5.06510        2.37290        1.45640
H         -5.22730       -3.43130       -5.87430
H         -4.95510       -1.75970       -5.34750
H         -6.03250       -2.26310       -3.16190
H         -7.13330       -2.59420       -4.50230
H         -6.31810       -3.92820       -3.67840
H         -3.34480       -5.13940       -5.27600
H         -0.14290       -4.28770       -1.05940
H          1.11050       -3.48870       -0.11460
H          0.94200       -3.78700       -3.16090
H          2.15180       -2.76810       -2.39480
H          2.14420       -4.51210       -2.09440
H          2.66900       -2.14150       -0.51580
H          3.91870       -1.33970        0.43120
H          3.82450       -3.81910        0.85950
H          3.63400       -2.83530        2.31020
H          2.22800       -3.60900        1.59360
