105

C          0.57980       -4.01960        6.79120
C          1.67380       -2.99790        7.10730
C          1.89880       -2.08900        5.93300
C          1.16600       -0.91780        5.79010
C          1.34620       -0.09670        4.69370
C          2.26910       -0.42640        3.70840
C          2.42520        0.45820        2.48870
C          2.34280        1.93110        2.84280
C          3.03850        2.40350        3.94980
C          3.02750        3.74780        4.26640
C          2.32660        4.65790        3.48540
C          2.35480        6.12570        3.80250
C          3.51840        6.80470        3.07730
C          1.64360        4.18330        2.37460
C          1.65210        2.83800        2.05220
C          1.40650        0.02470        1.44470
C          0.03840       -0.05050        1.57110
C         -0.67950       -0.47800        0.45910
C         -0.04520       -0.82130       -0.75270
C          1.32470       -0.77100       -0.87100
C          2.04390       -0.34850        0.24150
C          3.45300       -0.19030        0.45480
S          4.89040       -0.40280       -0.46590
C          5.83470        0.11090        0.88900
C          5.08590        0.42810        1.98220
C          3.71460        0.24900        1.73370
C         -1.07630       -1.19630       -1.81610
C         -0.98830       -0.11620       -2.87890
C         -1.87020        0.95680       -2.89200
C         -1.74470        1.96500       -3.83140
C         -0.73180        1.93720       -4.77900
C         -0.63240        3.00250       -5.83220
C         -1.48230        2.62990       -7.04870
C          0.16130        0.87400       -4.75240
C          0.04180       -0.13240       -3.81360
C         -0.86220       -2.60480       -2.33230
C         -1.01530       -2.94900       -3.66980
C         -0.83840       -4.25740       -4.08470
C         -0.51110       -5.25790       -3.18060
C         -0.35510       -6.68070       -3.63490
C         -1.70850       -7.39410       -3.64490
C         -0.37570       -4.91390       -1.84170
C         -0.54890       -3.60880       -1.42280
C         -2.35860       -1.11840       -1.01280
C         -2.08310       -0.67570        0.26710
S         -3.46680       -0.47340        1.29210
C         -4.46620       -0.99370       -0.02260
C         -5.81700       -1.20320       -0.31270
S         -7.39140       -1.09640        0.38830
C         -8.09270       -1.65260       -1.09960
C         -7.18990       -1.91020       -2.08240
C         -5.87570       -1.65440       -1.64030
N         -4.61260       -1.73540       -2.16420
C         -4.30900       -2.17550       -3.50040
C         -4.34060       -1.02590       -4.50580
C         -3.73810       -1.31890       -1.19180
C          2.99180       -1.60370        3.83930
C          2.80980       -2.42100        4.93980
H          0.41640       -4.67890        7.64070
H         -0.35430       -3.51310        6.55870
H          0.86330       -4.62280        5.93160
H          2.59890       -3.52490        7.35060
H          1.37610       -2.41040        7.97840
H          0.44750       -0.64260        6.54950
H          0.77480        0.81640        4.60870
H          3.58390        1.70930        4.57300
H          3.56980        4.09620        5.13430
H          2.46770        6.27090        4.87880
H          1.41680        6.59030        3.49120
H          3.54240        7.86810        3.30450
H          4.46380        6.36210        3.38320
H          3.41640        6.68060        2.00150
H          1.09440        4.87470        1.75100
H          1.11500        2.49450        1.18030
H         -0.46860        0.21150        2.48690
H          1.83730       -1.04900       -1.77860
H          6.90140        0.14530        0.78680
H          5.50500        0.76770        2.91200
H         -2.66200        1.01510       -2.15960
H         -2.44570        2.78780       -3.82250
H          0.40780        3.12120       -6.14210
H         -0.98010        3.95580       -5.42880
H         -2.52570        2.51840       -6.76130
H         -1.41280        3.40030       -7.81310
H         -1.14220        1.68770       -7.47310
H          0.96650        0.83600       -5.47240
H          0.75540       -0.94270       -3.81450
H         -1.26070       -2.19340       -4.40230
H         -0.95410       -4.50090       -5.13170
H          0.06960       -6.70270       -4.64090
H          0.32550       -7.20990       -2.96510
H         -2.14360       -7.39350       -2.64790
H         -2.39780       -6.88980       -4.31880
H         -1.59320       -8.42440       -3.97340
H         -0.12600       -5.67640       -1.11770
H         -0.43540       -3.36140       -0.37720
H         -9.15860       -1.75260       -1.14970
H         -7.45880       -2.25840       -3.06320
H         -3.32330       -2.64540       -3.49190
H         -5.05000       -2.93140       -3.77810
H         -5.31410       -0.54060       -4.49420
H         -3.58050       -0.28750       -4.26160
H         -4.15080       -1.40460       -5.50660
H          3.70600       -1.88310        3.07820
H          3.38800       -3.33010        5.02890
