18

C          2.43670       -1.82230        1.59950
S          1.59650       -2.66890        2.82930
C          0.17730       -1.73990        2.55340
C          0.33580       -0.83720        1.54580
C          1.65790       -0.88670        0.98940
O          2.10310       -0.17080       -0.09430
C          2.11810        1.23760        0.03760
C          0.81740        1.81990        0.60900
C         -0.39350        0.97340        0.20980
O         -0.68880       -0.02250        1.17110
H          3.44960       -2.07270        1.35910
H         -0.70800       -1.91650        3.12770
H          2.28080        1.59560       -0.98250
H          2.97190        1.54600        0.65840
H          0.70050        2.84160        0.24890
H          0.86280        1.84960        1.70040
H         -1.29960        1.58170        0.17100
H         -0.23010        0.51520       -0.77450
