56

C          7.51700       -0.11030        0.29260
C          7.19220        1.24510        0.92170
C          6.21490        1.99740        0.07850
C          4.84370        1.66710       -0.02930
S          3.83010        0.51290        0.79740
C          2.44960        1.08580       -0.10050
C          2.76570        2.13170       -0.97840
C          4.12590        2.45410       -0.93550
S          5.15300        3.66670       -1.63110
C          6.45200        3.12490       -0.64480
S          1.40540        2.69060       -1.91650
C          0.41750        1.49500       -1.14590
C          1.10640        0.71370       -0.21180
N          0.26380       -0.21670        0.33630
C          0.61960       -0.84830        1.58850
C         -0.27770       -0.38210        2.73150
C         -0.98670       -0.04600       -0.24310
C         -0.91110        1.04700       -1.15410
C         -2.05500        1.54490       -1.81540
N         -2.14470        2.56330       -2.65600
S         -3.70010        2.75630       -3.06250
N         -4.31930        1.54590       -2.18320
C         -3.32940        0.94550       -1.54080
C         -3.38070       -0.19300       -0.70880
C         -4.44280       -1.04420       -0.36630
S         -6.13860       -1.16730       -0.61040
C         -6.13830       -2.63310        0.31120
C         -4.92170       -3.03250        0.78400
C         -4.77520       -4.23830        1.66410
C         -4.40570       -3.84250        3.09460
C         -3.92450       -2.10310        0.37990
N         -2.56540       -1.92490        0.52860
C         -1.68800       -3.03580        0.82640
C         -0.82420       -3.41870       -0.37340
C         -2.21460       -0.74430       -0.11430
H          7.94590        0.02630       -0.69760
H          8.23040       -0.65140        0.90930
H          6.61500       -0.71160        0.19870
H          6.76490        1.08830        1.91630
H          8.10350        1.83490        1.02380
H          0.61250       -1.93530        1.48990
H          1.65100       -0.55610        1.80040
H         -1.32230       -0.60840        2.53260
H          0.01890       -0.86930        3.65660
H         -0.18390        0.69370        2.86110
H         -7.07220       -3.13840        0.46260
H         -5.72880       -4.76890        1.67670
H         -4.02960       -4.92840        1.25950
H         -4.30090       -4.72840        3.71650
H         -3.47080       -3.28790        3.12020
H         -5.18480       -3.21300        3.51750
H         -2.32250       -3.88220        1.08120
H         -1.07410       -2.81720        1.70230
H         -0.20140       -4.27320       -0.12090
H         -0.18240       -2.59820       -0.68220
H         -1.45850       -3.68760       -1.21520
