22

C         -1.24740       -2.23100        2.28070
C         -0.39000       -1.41110        1.66920
C          0.93500       -1.89750        1.16290
O          1.36000       -3.02410        1.23630
C          1.58570       -0.71610        0.56960
C          2.82900       -0.62100       -0.02950
C          3.23920        0.60860       -0.51730
C          2.40440        1.71290       -0.39810
I          3.05630        3.57470       -1.14950
C          1.15450        1.63530        0.19850
C          0.74160        0.40440        0.68830
C         -0.49480        0.01640        1.36080
C         -1.54970        0.82980        1.64690
C         -2.72570        0.41080        2.31060
N         -3.70190        0.13850        2.84670
C         -1.61300        2.20420        1.31960
N         -1.72070        3.31970        1.07740
H         -0.96700       -3.26520        2.40560
H         -2.20630       -1.92740        2.66120
H          3.46010       -1.49230       -0.11000
H          4.20440        0.71070       -0.98840
H          0.53270        2.51210        0.27480
