104

C          5.35660        5.43700       -0.17310
C          4.03970        5.76740        0.53200
C          3.31320        4.50670        0.90360
C          2.42280        3.91220        0.02040
C          1.78190        2.72950        0.34230
C          2.02870        2.10610        1.55680
C          1.29190        0.84540        1.97310
C          2.20420       -0.14410        2.66770
C          1.75650       -0.90500        3.73810
C          2.59070       -1.82940        4.33910
C          3.88700       -2.02420        3.88280
C          4.77490       -3.06080        4.50900
C          4.58050       -4.41390        3.82190
C          4.32520       -1.27200        2.80070
C          3.49710       -0.34360        2.19980
C          0.58650        0.14470        0.82270
C          1.15300       -0.51530       -0.24340
C          0.28680       -1.07870       -1.17470
C         -1.11660       -0.97700       -1.04410
C         -1.68310       -0.33850        0.03520
C         -0.81690        0.21920        0.96990
C         -1.07070        0.92900        2.18780
S         -2.48720        1.42580        3.05430
C         -1.47130        2.12370        4.27530
C         -0.10760        1.97020        3.99810
S          0.91140        2.65950        5.22840
C         -0.50120        3.15420        6.11840
C         -0.69610        3.83230        7.33700
C         -2.01750        3.98240        7.61080
S         -3.06030        3.30900        6.40180
C         -1.68970        2.80020        5.48470
C          0.11340        1.27930        2.80380
C         -1.82160       -1.66590       -2.20170
C         -2.55700       -0.70930       -3.12330
C         -3.43710       -1.22190       -4.06880
C         -4.07810       -0.38210       -4.95840
C         -3.85630        0.98890       -4.93050
C         -4.52030        1.89490       -5.92720
C         -3.65950        2.02350       -7.18540
C         -2.96600        1.49360       -3.99310
C         -2.31930        0.65710       -3.10130
C         -2.73880       -2.73940       -1.65280
C         -4.03130       -2.41380       -1.26090
C         -4.86590       -3.37640       -0.72670
C         -4.43470       -4.68730       -0.57030
C         -5.33030       -5.72330        0.04570
C         -5.13830       -5.75870        1.56310
C         -3.13830       -5.00450       -0.95130
C         -2.29760       -4.04360       -1.48180
C         -0.64330       -2.20280       -2.97010
C          0.54070       -1.82690       -2.36930
S          1.95740       -2.37030       -3.20710
C          0.94180       -3.12110       -4.39640
C         -0.42200       -2.93940       -4.13680
S         -1.44050       -3.70220       -5.32340
C         -0.02780       -4.26880       -6.16930
C          0.16740       -5.03490       -7.33440
C          1.48880       -5.21630       -7.58850
S          2.53140       -4.46450       -6.42640
C          1.16050       -3.87900       -5.55650
C          2.91290        2.70120        2.44860
C          3.54850        3.88320        2.12240
H          5.88500        6.34900       -0.44140
H          5.99510        4.84380        0.47770
H          5.16710        4.86550       -1.07900
H          4.24920        6.35190        1.43020
H          3.41790        6.37150       -0.13180
H          2.22170        4.38310       -0.93150
H          1.08630        2.29100       -0.35820
H          0.75010       -0.77540        4.10870
H          2.22820       -2.40680        5.17780
H          5.81990       -2.75770        4.41800
H          4.53850       -3.15890        5.57050
H          5.22240       -5.16700        4.27310
H          4.82250       -4.33860        2.76410
H          3.54620       -4.73830        3.91240
H          5.32950       -1.41120        2.42620
H          3.86230        0.24200        1.36840
H          2.22250       -0.59620       -0.36140
H         -2.75260       -0.26690        0.15890
H          0.09860        4.18440        7.96810
H         -2.46340        4.45540        8.46270
H         -3.62450       -2.28550       -4.10300
H         -4.76190       -0.79820       -5.68430
H         -5.49800        1.49240       -6.19980
H         -4.66770        2.88410       -5.48890
H         -4.13770        2.67840       -7.91020
H         -3.51110        1.04770       -7.64250
H         -2.68410        2.43470       -6.93510
H         -2.77490        2.55690       -3.95810
H         -1.62830        1.07360       -2.38320
H         -4.39140       -1.40300       -1.38860
H         -5.87000       -3.10640       -0.43130
H         -6.37350       -5.49300       -0.18000
H         -5.09970       -6.70660       -0.36950
H         -5.78590       -6.50790        2.01260
H         -4.10590       -5.99870        1.80750
H         -5.37430       -4.78920        1.99610
H         -2.78120       -6.01800       -0.83460
H         -1.29140       -4.31480       -1.76660
H         -0.62700       -5.42590       -7.94260
H          1.93470       -5.75470       -8.40060
H          3.10580        2.23230        3.40270
H          4.23330        4.33130        2.82820
