22

C          0.54510       -1.25780        3.72970
C          0.56550       -0.87330        2.45170
C          1.10560       -1.76430        1.37450
O          1.54790       -2.87640        1.51840
C          0.97660       -0.98960        0.12430
C          1.34550       -1.36280       -1.15360
C          1.12200       -0.44180       -2.16490
F          1.46580       -0.75790       -3.42110
C          0.55380        0.80310       -1.92510
C          0.18700        1.16590       -0.64060
C          0.39850        0.26530        0.39780
C          0.12450        0.37530        1.82530
C         -0.43870        1.44070        2.46290
C         -0.67360        1.50870        3.85530
N         -0.88530        1.62900        4.97600
C         -0.86350        2.62420        1.81720
N         -1.22810        3.60480        1.34730
H          0.92590       -2.23630        3.97730
H          0.17230       -0.65180        4.53620
H          1.78810       -2.32550       -1.35400
H          0.40460        1.47900       -2.75250
H         -0.25290        2.13390       -0.46600
