118

C         -2.89910       -2.71040       -3.57310
C         -2.90480       -1.20230       -3.80280
O         -1.60420       -0.65460       -3.76430
C         -0.98200       -0.48240       -2.57210
C         -1.54950       -0.61560       -1.33280
C         -0.80680       -0.40490       -0.15010
C          0.56430       -0.05550       -0.19890
C          1.31430        0.12200        0.98450
C          0.75310       -0.03700        2.22390
O          1.39490        0.06580        3.41390
C          2.71270        0.57140        3.45120
C          2.76310        2.07810        3.22000
C         -0.63120       -0.36400        2.31080
C         -1.44250       -0.54950        3.45470
C         -2.75450       -0.82500        3.13080
S         -3.05270       -0.90160        1.43500
C         -1.37010       -0.53310        1.13070
C         -3.52070       -0.94080        4.32310
S         -5.15330       -1.22150        4.77530
C         -4.71570       -1.04930        6.43920
C         -3.39020       -0.79420        6.62990
C         -2.69390       -0.73160        5.41260
C         -1.25970       -0.51170        4.95880
C         -0.43490       -1.67130        5.48300
C          0.10340       -2.63470        4.64340
C          0.80910       -3.70610        5.16210
C          0.99350       -3.84910        6.52920
C          1.70810       -5.04370        7.09260
C          0.70950       -6.15990        7.40550
C          0.45000       -2.88500        7.36880
C         -0.25480       -1.81440        6.85510
C         -0.74780        0.85190        5.38630
C         -1.52620        1.96930        5.10710
C         -1.10410        3.23390        5.46940
C          0.10630        3.41990        6.12450
C          0.58220        4.79480        6.50010
C          1.53500        5.35100        5.43990
C          0.88740        2.30280        6.38770
C          0.47090        1.03530        6.02210
C          1.12380        0.08990       -1.47970
S          2.79190        0.51880       -1.78770
C          2.50100        0.40570       -3.48330
C          1.20450        0.06120       -3.80250
C          0.39260       -0.11630       -2.65840
C          1.02540       -0.01960       -5.30490
C          0.00810        1.02600       -5.73310
C         -1.22170        0.69760       -6.28290
C         -2.12660        1.68780       -6.61890
C         -1.83340        3.02860       -6.41470
C         -2.84480        4.09170       -6.73600
C         -3.81700        4.27320       -5.56860
C         -0.60350        3.35350       -5.85820
C          0.30390        2.36760       -5.52170
C          0.71610       -1.41730       -5.79820
C          0.66990       -2.50640       -4.94010
C          0.40170       -3.77400       -5.42470
C          0.18330       -3.99320       -6.77730
C         -0.16450       -5.36310       -7.28540
C         -1.66520       -5.62330       -7.13910
C          0.25130       -2.90490       -7.63730
C          0.51990       -1.63750       -7.15730
C          2.42310        0.35320       -5.76670
C          3.08930        0.52160       -6.99040
C          4.39540        0.86700       -6.80810
S          4.84980        0.99670       -5.14470
C          3.25000        0.57930       -4.68030
H         -2.53630       -2.94620       -2.57550
H         -2.24450       -3.18510       -4.30080
H         -3.90510       -3.10500       -3.68520
H         -3.56390       -0.69730       -3.08660
H         -3.26140       -0.97920       -4.81190
H         -2.58620       -0.88960       -1.21370
H          2.35570        0.37710        0.86560
H          3.05990        0.33760        4.46110
H          3.35300        0.04160        2.73490
H          2.43080        2.32890        2.21580
H          2.10920        2.57400        3.93320
H          3.78010        2.43670        3.35390
H         -5.48160       -1.14650        7.18270
H         -2.95720       -0.65060        7.60270
H         -0.02230       -2.55680        3.57490
H          1.22230       -4.44390        4.48860
H          2.44360       -5.40970        6.37330
H          2.23420       -4.76470        8.00810
H         -0.02480       -5.81740        8.13130
H          0.18200       -6.45790        6.50200
H          1.22180       -7.02890        7.81220
H          0.58010       -2.97440        8.43840
H         -0.66270       -1.07500        7.52810
H         -2.47400        1.84680        4.60200
H         -1.72650        4.08880        5.24480
H         -0.27340        5.46530        6.60130
H          1.10010        4.75570        7.46110
H          2.42000        4.72400        5.35650
H          1.04460        5.38210        4.46930
H          1.84930        6.35870        5.70240
H          1.83740        2.42470        6.88990
H          1.10520        0.18800        6.22980
H         -1.48130       -0.33630       -6.44640
H         -3.08000        1.41210       -7.04870
H         -2.33840        5.03850       -6.93390
H         -3.40580        3.81090       -7.63020
H         -4.34110        3.34200       -5.36490
H         -4.55080        5.04260       -5.79840
H         -3.27740        4.56360       -4.67000
H         -0.35240        4.39070       -5.68550
H          1.25390        2.64420       -5.08680
H          0.84020       -2.37340       -3.88310
H          0.36570       -4.60810       -4.73740
H          0.38710       -6.11800       -6.72100
H          0.11560       -5.45090       -8.33700
H         -1.91960       -6.61190       -7.51430
H         -2.23330       -4.88270       -7.69810
H         -1.96030       -5.56300       -6.09370
H          0.09410       -3.05160       -8.69690
H          0.56470       -0.80600       -7.84510
H          2.64360        0.40370       -7.96090
H          5.13690        1.06040       -7.55760
