50

C          4.21430        0.14600        7.15330
C          3.38120       -1.10660        6.91250
N          2.69170       -1.03820        5.62630
C          3.39210       -1.53390        4.52880
O          4.50210       -2.00730        4.66320
C          2.70160       -1.44830        3.23400
C          3.25500       -1.90630        2.04930
C          2.58520       -1.81290        0.81670
C          1.33050       -1.24540        0.77510
C          0.32540       -0.95790       -0.24450
C          0.33720       -1.19450       -1.60780
C         -0.77590       -0.80540       -2.33700
C         -1.88970       -0.18590       -1.70700
C         -1.90230        0.05110       -0.34100
C         -0.79150       -0.33670        0.38720
C         -0.50840       -0.22260        1.81530
C         -1.15250        0.26600        2.93100
C         -0.51270        0.18930        4.18060
C          0.74840       -0.36190        4.33880
C          1.42020       -0.86690        3.20990
C          0.77560       -0.78260        1.98760
C          1.43190       -0.44370        5.63760
O          0.94950       -0.03130        6.67280
C         -2.88950        0.10240       -2.72780
C         -4.13710        0.67430       -2.74670
C         -4.81050        0.77660       -3.97910
C         -4.27370        0.32940       -5.16230
C         -2.99120       -0.26470       -5.18100
C         -2.28080       -0.77900       -6.28960
C         -1.03190       -1.32510       -6.11650
C         -0.39920       -1.40480       -4.86100
C         -1.06040       -0.91500       -3.76250
C         -2.34420       -0.35490       -3.94850
H          3.57490        1.02590        7.15830
H          4.71700        0.07320        8.11360
H          4.96390        0.25310        6.37260
H          4.02160       -1.99010        6.89440
H          2.61970       -1.21030        7.68740
H          4.23970       -2.34910        2.08800
H          3.06710       -2.18700       -0.07440
H          1.18310       -1.66480       -2.08660
H         -2.74830        0.52180        0.13720
H         -2.13630        0.70710        2.86890
H         -1.01220        0.57200        5.05880
H         -4.61000        1.04390       -1.84860
H         -5.79260        1.22790       -3.98660
H         -4.82930        0.42990       -6.08360
H         -2.72550       -0.74020       -7.27360
H         -0.50550       -1.71280       -6.97720
H          0.58430       -1.84520       -4.78670
