112

C          7.84680        4.08690       -0.92810
C          7.79000        2.55950       -0.99540
C          6.60140        2.04440       -0.23540
C          5.37200        1.88380       -0.85860
C          4.26520        1.44760       -0.15220
C          4.36620        1.15520        1.20000
C          3.16350        0.73140        2.02020
C          3.49490       -0.39800        2.97420
C          2.90620       -0.47330        4.22860
C          3.17490       -1.53910        5.06770
C          4.02710       -2.56130        4.67330
C          4.35250       -3.69600        5.60170
C          5.59000       -3.36490        6.43830
C          4.60770       -2.48600        3.41380
C          4.34410       -1.42210        2.57280
C          1.96600        0.30410        1.18380
C          1.83570       -0.81600        0.39510
C          0.61680       -1.00240       -0.24770
C         -0.44760       -0.08390       -0.11580
C         -0.32350        1.02380        0.69070
C          0.89100        1.20460        1.34370
C          1.33120        2.21390        2.26240
S          0.67380        3.63880        2.96690
C          2.14940        3.89210        3.83260
C          3.09030        2.93690        3.59080
C          2.61680        1.96730        2.69070
C         -1.64840       -0.52370       -0.95260
C         -2.88770       -0.74020       -0.10520
C         -4.14190       -0.26490       -0.45540
C         -5.24690       -0.55470        0.32520
C         -5.13430       -1.33660        1.46470
C         -6.33100       -1.62480        2.32460
C         -6.45090       -0.58590        3.44110
C         -3.87580       -1.81090        1.81400
C         -2.76930       -1.51790        1.04240
C         -1.81270        0.48950       -2.06950
C         -2.31470        1.75870       -1.80150
C         -2.43920        2.69800       -2.80690
C         -2.06030        2.40550       -4.11070
C         -2.15890        3.44120       -5.19330
C         -0.87690        4.27370       -5.25440
C         -1.53970        1.14680       -4.37320
C         -1.41490        0.20310       -3.36890
C         -1.16410       -1.86410       -1.45300
C          0.14250       -2.08020       -1.06150
S          0.80760       -3.60580       -1.55370
C         -0.71380       -3.99490       -2.28410
C         -1.34380       -5.05660       -2.94620
S         -1.05490       -6.65110       -3.53860
C         -2.69700       -6.74590       -4.09540
C         -3.43530       -5.63080       -3.85200
C         -2.66370       -4.65600       -3.19100
N         -2.85890       -3.37380       -2.72380
C         -4.07270       -2.70360       -2.74120
C         -4.39220       -1.54120       -3.36840
C         -5.74630       -1.18220       -3.18400
C         -6.44810       -2.06430       -2.42590
C         -7.89380       -2.03700       -2.06540
C         -8.67610       -3.11290       -2.82010
S         -5.44550       -3.37840       -1.90070
C         -1.67090       -2.96600       -2.15280
C          5.59230        1.32810        1.83190
C          6.69390        1.76410        1.12210
H          7.92260        4.41700        0.10570
H          8.70790        4.46170       -1.47690
H          6.94530        4.51760       -1.35820
H          8.70790        2.14660       -0.57170
H          7.72530        2.24770       -2.03990
H          5.27660        2.10080       -1.91320
H          3.31850        1.33220       -0.65930
H          2.23290        0.30660        4.55350
H          2.70990       -1.57890        6.04280
H          3.50770       -3.88390        6.26760
H          4.54110       -4.60350        5.02450
H          5.82710       -4.18610        7.11100
H          5.41690       -2.46900        7.03060
H          6.44640       -3.18670        5.79170
H          5.27180       -3.27310        3.08510
H          4.81010       -1.38120        1.59870
H          2.63490       -1.53200        0.28050
H         -1.13020        1.72370        0.84100
H          2.22600        4.74640        4.47590
H          4.06600        2.93540        4.04170
H         -4.27110        0.32800       -1.34740
H         -6.21450       -0.17210        0.03160
H         -7.23780       -1.60450        1.71610
H         -6.23820       -2.61920        2.76610
H         -5.56240       -0.60140        4.06830
H         -7.31940       -0.79150        4.06260
H         -6.55310        0.41160        3.01910
H         -3.76280       -2.42330        2.69730
H         -1.79910       -1.89990        1.32730
H         -2.62160        2.01530       -0.79910
H         -2.83910        3.67510       -2.57500
H         -2.31800        2.95480       -6.15820
H         -3.00720        4.10100       -4.99910
H         -0.94620        5.02360       -6.03910
H         -0.70730        4.77720       -4.30520
H         -0.02080        3.63440       -5.45860
H         -1.22880        0.89620       -5.37790
H         -1.00120       -0.76590       -3.60720
H         -3.01510       -7.64720       -4.58000
H         -4.46800       -5.51750       -4.12610
H         -3.68770       -0.96310       -3.93870
H         -6.18080       -0.29470       -3.60910
H         -8.00630       -2.20310       -0.99120
H         -8.29660       -1.05080       -2.30590
H         -8.58810       -2.96170       -3.89370
H         -8.28730       -4.09860       -2.57630
H         -9.72800       -3.07690       -2.54810
H          5.68450        1.10820        2.88590
H          7.64100        1.88700        1.62860
