46

C         -0.44240       -7.67530        2.66190
C         -1.93740       -7.72050        2.42320
S         -2.75040       -6.13920        2.86670
C         -2.00030       -5.02270        1.74750
S         -1.58820       -3.42940        2.29410
C         -0.98580       -2.97110        0.72200
C         -0.52300       -1.62620        0.44780
C          0.25620       -0.88940        1.35730
C          0.78440       -1.30780        2.61530
C          1.52990       -0.35970        3.21590
S          1.64880        1.10460        2.30630
C          0.65650        0.42970        1.04200
C          0.32700        1.06590       -0.15240
C          0.78580        2.40210       -0.46640
C          1.27300        2.87360       -1.65360
C          1.66460        4.22100       -1.58000
F          2.19500        4.86820       -2.62940
C          1.48300        4.80510       -0.35410
S          1.80290        6.47000        0.05520
C          2.01990        6.34790        1.86690
C          3.28750        5.60890        2.24530
S          0.78280        3.65610        0.74440
C         -0.46830        0.33670       -1.05400
C         -1.02800        0.77520       -2.29140
C         -1.78550       -0.16580       -2.88850
S         -1.87080       -1.64720       -2.00140
C         -0.86050       -0.98550       -0.74420
C         -1.09950       -4.01230       -0.15750
C         -1.67140       -5.15570        0.42520
F         -1.86210       -6.28470       -0.28060
H         -0.22810       -7.41310        3.69550
H          0.03070       -6.94170        2.01190
H         -0.00900       -8.65030        2.45060
H         -2.42140       -8.44560        3.07640
H         -2.17970       -7.95290        1.38860
H          0.61760       -2.28040        3.03850
H          2.03580       -0.41900        4.15950
H          1.40750        2.27550       -2.53580
H          2.05220        7.38480        2.19960
H          1.13080        5.86620        2.27350
H          3.25160        4.57690        1.90310
H          3.40000        5.60610        3.32710
H          4.15560        6.09330        1.80430
H         -0.88580        1.76240       -2.68980
H         -2.31730       -0.09340       -3.81700
H         -0.77600       -3.98830       -1.18130
