50

C          5.75860       -2.08310        5.01080
C          5.86760       -0.85470        4.10380
C          4.86560       -0.92240        3.00470
S          3.29790       -0.20880        3.16600
C          2.79210       -0.79490        1.61420
C          1.45980       -0.55230        1.07490
C          1.02480        0.71750        0.72630
S          1.97940        2.17580        0.89580
C          0.70680        3.10330        0.15930
C          0.57120        4.46140       -0.18700
C         -0.62250        4.69100       -0.79390
S         -1.60330        3.27840       -0.95290
C         -0.38880        2.32670       -0.17980
C         -0.24410        0.95060        0.13990
C         -1.12280       -0.11640       -0.08600
C         -2.45300        0.11730       -0.63200
S         -2.96360       -0.54380       -2.15230
C         -4.52780        0.18590       -2.02700
C         -5.56680       -0.03260       -3.07050
C         -6.31950       -1.34250       -2.82520
C         -4.63630        0.88280       -0.86090
Cl        -6.04400        1.73690       -0.38130
C         -3.45830        0.84980       -0.06870
Cl        -3.33470        1.61260        1.46060
C         -0.68660       -1.38690        0.26150
S         -1.63490       -2.84880        0.08480
C         -0.35460       -3.77710        0.80730
C         -0.20640       -5.13890        1.13420
C          0.99240       -5.36730        1.73140
S          1.96320       -3.94930        1.90470
C          0.73660       -2.99720        1.15170
C          0.58280       -1.61930        0.84560
C          3.79880       -1.49910        1.01840
Cl         3.67280       -2.19310       -0.54350
C          4.97360       -1.57260        1.81160
Cl         6.38370       -2.40210        1.29840
H          5.92790       -2.99020        4.43640
H          4.76920       -2.13530        5.45840
H          6.49940       -2.02860        5.80390
H          6.86750       -0.81360        3.66710
H          5.70280        0.05020        4.69020
H          1.31410        5.21370        0.00130
H         -1.00030        5.62190       -1.16780
H         -6.26830        0.80330       -3.04560
H         -5.09320       -0.06410       -4.05310
H         -6.80730       -1.31990       -1.85400
H         -5.63020       -2.18300       -2.84860
H         -7.07560       -1.48780       -3.59200
H         -0.94390       -5.89460        0.93890
H          1.37950       -6.30060        2.08960
