20

C          0.37990        1.41700        3.63290
C         -0.46300        0.26850        3.08640
N         -0.03470       -0.07700        1.76060
N          0.90550       -0.95720        1.55970
C          1.05700       -0.97620        0.22610
C          1.90540       -1.71410       -0.60530
C          1.80490       -1.49270       -1.95430
Cl         2.82450       -2.37100       -3.03180
C          0.88330       -0.55900       -2.49540
Cl         0.82610       -0.34620       -4.20520
C          0.04180        0.17400       -1.69950
C          0.12780       -0.03480       -0.31950
N         -0.54000        0.50750        0.71090
H          0.04950        1.67210        4.63570
H          0.27820        2.29230        2.99610
H          1.42720        1.12790        3.67080
H         -0.34940       -0.61970        3.71030
H         -1.51320        0.55950        3.02700
H          2.60580       -2.42370       -0.19830
H         -0.65640        0.88160       -2.11380
