52

C          4.80070       -0.33990        7.19240
C          5.45300       -1.36310        6.26650
O          4.53200       -2.30490        5.75650
C          3.70160       -1.96180        4.73450
C          3.69700       -0.74410        4.06190
C          2.80610       -0.52840        3.02590
C          1.90760       -1.51150        2.63040
C          0.97270       -1.27220        1.52190
C          0.11160       -0.16730        1.51090
C         -0.04730        0.83830        2.51270
C         -0.96510        1.76760        2.18300
S         -1.71120        1.49230        0.64370
C         -0.75980        0.04510        0.41720
C         -0.80810       -0.78770       -0.69170
C         -1.70120       -0.51530       -1.82630
C         -3.06260       -0.32560       -1.62700
C         -3.91430       -0.06650       -2.68540
C         -3.41240        0.01610       -3.98000
O         -4.14310        0.24410       -5.10510
C         -5.52640        0.51390       -5.00520
C         -5.81790        1.94160       -4.55160
C         -2.04230       -0.16690       -4.18360
C         -1.20250       -0.43160       -3.12540
C          0.04350       -1.90000       -0.67450
C          0.17340       -2.92760       -1.65800
C          1.09380       -3.85480       -1.32900
S          1.86480       -3.56070        0.19450
C          0.90290       -2.12190        0.42700
C          1.92180       -2.73260        3.30200
C          2.79910       -2.95220        4.33950
H          4.05940        0.25090        6.65990
H          5.55960        0.32520        7.59550
H          4.30530       -0.85070        8.01430
H          6.17110       -1.96530        6.83060
H          5.98990       -0.86460        5.44980
H          4.38410        0.04500        4.32490
H          2.82530        0.41620        2.50140
H          0.50250        0.83960        3.43650
H         -1.27460        2.62150        2.75370
H         -3.47050       -0.39820       -0.62970
H         -4.96550        0.06260       -2.48160
H         -5.90490        0.36370       -6.02050
H         -6.01610       -0.21320       -4.34550
H         -6.89160        2.10780       -4.53400
H         -5.36180        2.64710       -5.24140
H         -5.41470        2.12440       -3.55850
H         -1.66230       -0.09530       -5.19070
H         -0.14340       -0.55460       -3.29840
H         -0.41340       -2.95750       -2.55830
H          1.38290       -4.72430       -1.88670
H          1.22530       -3.50680        3.01740
H          2.81050       -3.89250        4.86770
