20

C          0.64060        1.75960        2.94450
C         -0.13040        0.46940        2.69130
N          0.19200       -0.08270        1.39060
C          1.24500       -0.96000        1.18100
O          1.97220       -1.39570        2.03210
C          1.24120       -1.22200       -0.28780
C          2.02300       -2.00010       -1.12800
N          1.77740       -2.02760       -2.43170
N          0.81420       -1.34850       -2.95870
C          0.01380       -0.58360       -2.22730
C          0.20130       -0.48890       -0.85680
C         -0.48820        0.26190        0.23270
O         -1.43120        1.00350        0.17000
H          1.71140        1.57100        2.91440
H          0.38310        2.15390        3.92310
H          0.38940        2.50290        2.19120
H          0.12870       -0.28400        3.43870
H         -1.20640        0.65720        2.70820
H          2.84800       -2.60240       -0.77850
H         -0.76550       -0.05510       -2.75550
