50

C          5.90210       -1.94360        4.80290
C          6.13290       -0.98550        3.63250
C          5.02740       -1.07650        2.63870
S          3.45590       -0.42460        2.95380
C          2.82540       -0.99230        1.44100
C          1.44370       -0.77650        1.03030
C          0.92680        0.49670        0.83620
S          1.82900        1.98140        1.05680
C          0.45690        2.90510        0.52360
C          0.23200        4.28040        0.32200
C         -1.02130        4.50340       -0.15250
S         -1.95020        3.06290       -0.35900
C         -0.63010        2.10700        0.20890
C         -0.39790        0.71690        0.38380
C         -1.24760       -0.36890        0.13670
C         -2.62940       -0.15310       -0.27420
S         -3.25970       -0.72100       -1.78700
C         -4.83130       -0.06920       -1.47190
C         -5.93670       -0.16040       -2.46580
C         -5.70600        0.79750       -3.63640
C         -4.84550        0.54790       -0.25800
F         -5.93490        1.13960        0.25420
C         -3.60420        0.50140        0.42190
F         -3.41640        1.02120        1.64170
C         -0.73080       -1.64210        0.33080
S         -1.63300       -3.12680        0.11010
C         -0.26090       -4.05050        0.64330
C         -0.03590       -5.42590        0.84480
C          1.21730       -5.64880        1.31940
S          2.14620       -4.20840        1.52580
C          0.82610       -3.25240        0.95800
C          0.59400       -1.86230        0.78320
C          3.80020       -1.64700        0.74490
F          3.61230       -2.16670       -0.47490
C          5.04150       -1.69360        1.42470
F          6.13080       -2.28540        0.91240
H          5.84270       -2.96890        4.44670
H          4.97370       -1.69800        5.31280
H          6.72150       -1.86890        5.51250
H          7.06940       -1.23540        3.13010
H          6.20120        0.03690        4.00980
H          0.95600        5.04950        0.51570
H         -1.47230        5.44370       -0.40010
H         -6.87330        0.08950       -1.96350
H         -6.00500       -1.18290       -2.84300
H         -4.77750        0.55200       -4.14610
H         -5.64660        1.82290       -3.28030
H         -6.52530        0.72270       -4.34600
H         -0.75990       -6.19490        0.65110
H          1.66830       -6.58920        1.56690
