44

C         -3.40400       -6.59610        1.89460
C         -1.89980       -6.71570        1.63790
C         -1.22120       -5.40870        1.85570
S         -1.19780       -4.19680        0.62050
C         -0.34990       -3.06920        1.63530
C          0.00800       -1.74070        1.16310
C          1.33240       -1.28260        1.20830
C          2.50130       -1.98490        1.62800
C          3.61680       -1.23210        1.55650
S          3.33700        0.37190        0.96950
C          1.63890        0.03250        0.78750
C          0.67870        0.91900        0.31470
C          1.02060        2.28030       -0.06730
S          2.25730        2.61130       -1.24270
C          2.03710        4.32230       -1.10560
C          2.89050        5.27130       -1.87210
C          4.22160        5.50630       -1.15400
C          1.06790        4.60430       -0.18970
Cl         0.57860        6.19570        0.22860
C          0.48370        3.44880        0.39540
Cl        -0.72150        3.53510        1.61520
C         -0.63860        0.44630        0.22950
C         -1.79430        1.12160       -0.26460
C         -2.91110        0.37150       -0.18560
S         -2.64540       -1.20360        0.48060
C         -0.94600       -0.86680        0.65570
C         -0.11290       -3.62320        2.86200
Cl         0.64530       -2.79360        4.16000
C         -0.61520       -4.94650        2.98570
Cl        -0.45660       -5.86020        4.43030
H         -3.84310       -5.86140        1.22390
H         -3.88820       -7.55480        1.72970
H         -3.58750       -6.28440        2.91970
H         -1.73220       -7.04480        0.61090
H         -1.46890       -7.45290        2.31770
H          2.49130       -3.00780        1.95600
H          4.61930       -1.51450        1.81230
H          3.08180        4.86490       -2.86670
H          2.35730        6.21800       -1.97600
H          4.04780        5.92670       -0.16670
H          4.75990        4.56810       -1.04250
H          4.83630        6.19750       -1.72410
H         -1.77140        2.11810       -0.66530
H         -3.90600        0.63830       -0.48420
