50

C          6.55020       -3.45130       -0.73850
C          6.41720       -2.83360        0.65500
C          4.98660       -2.66260        1.03250
S          3.99240       -1.43740        0.32370
C          2.59270       -1.96820        1.20900
C          1.30910       -1.29970        1.06160
C          1.16380        0.06470        1.27810
S          2.48000        1.14570        1.69270
C          1.38100        2.49040        1.70990
C          1.54770        3.87380        1.91540
C          0.36480        4.52890        1.79090
S         -0.96870        3.48990        1.42940
C          0.07610        2.11450        1.44030
C         -0.08760        0.72400        1.19610
C         -1.24620        0.00130        0.87850
C         -2.54850        0.64830        0.84020
C         -3.15210        1.36180        1.83210
C         -4.41830        1.83910        1.43760
F         -5.19900        2.56040        2.26250
C         -4.79690        1.50950        0.17120
C         -6.03720        1.89840       -0.55590
C         -5.75330        2.99470       -1.58440
S         -3.55150        0.57220       -0.57860
C         -1.09200       -1.35270        0.61000
S         -2.40000       -2.42440        0.14790
C         -1.28200       -3.74730        0.02030
C         -1.41750       -5.09520       -0.36550
C         -0.21850       -5.73160       -0.33480
S          1.09140       -4.71970        0.16370
C          0.01360       -3.38220        0.34460
C          0.15850       -2.01330        0.69820
C          2.88830       -3.03440        2.00460
C          4.24170       -3.41180        1.89260
F          4.75910       -4.43480        2.59680
H          7.59920       -3.57060       -0.99640
H          6.07090       -4.42730       -0.76590
H          6.07760       -2.81170       -1.48070
H          6.89350       -3.48230        1.39330
H          6.91870       -1.86310        0.67000
H          2.48660        4.34540        2.13760
H          0.18250        5.58030        1.89100
H         -2.73470        1.52290        2.80850
H         -6.45350        1.02530       -1.06350
H         -6.76660        2.25670        0.17350
H         -5.35460        3.87890       -1.09270
H         -6.66850        3.26720       -2.10360
H         -5.02660        2.64670       -2.31500
H         -2.34590       -5.55470       -0.64850
H         -0.01160       -6.75490       -0.57730
H          2.18970       -3.51780        2.66170
