44

C          3.31570       -6.71280       -1.22960
C          3.95290       -5.47650       -1.86850
C          3.63910       -4.24880       -1.08510
C          4.40560       -3.62050       -0.15230
C          3.77620       -2.50130        0.42750
C          2.51690       -2.27990       -0.05450
C          1.58970       -1.23150        0.32450
C          2.01780        0.09770        0.47980
C          3.30680        0.64620        0.20510
C          3.36970        1.97460        0.42020
S          1.87920        2.65500        0.97660
C          1.10720        1.09270        0.90150
C         -0.23930        0.84030        1.15750
C         -1.12700        1.91380        1.56060
C         -0.85710        2.94290        2.41650
C         -1.93210        3.84940        2.53490
Cl        -1.86550        5.23090        3.56050
C         -3.01700        3.54530        1.76590
C         -4.32370        4.25360        1.67910
C         -5.33050        3.67330        2.67540
S         -2.72420        2.08560        0.88560
C         -0.67280       -0.48480        0.98090
C         -1.97020       -1.03250        1.21080
C         -2.03080       -2.35840        0.97730
S         -0.52830       -3.04140        0.46600
C          0.24260       -1.48130        0.56870
S          2.09960       -3.47190       -1.25180
H          3.68010       -6.84280       -0.21320
H          3.55990       -7.60260       -1.80430
H          2.23420       -6.60370       -1.19700
H          3.57910       -5.36770       -2.88890
H          5.03690       -5.60310       -1.91040
H          5.39610       -3.94620        0.11270
H          4.22120       -1.90370        1.20330
H          4.13060        0.06240       -0.16190
H          4.21150        2.62610        0.28920
H          0.05740        3.04230        2.97090
H         -4.72120        4.16340        0.66630
H         -4.16350        5.31140        1.89770
H         -4.95210        3.76700        3.69040
H         -6.27580        4.20490        2.60550
H         -5.50560        2.62050        2.46560
H         -2.81060       -0.45330        1.54520
H         -2.88090       -3.00530        1.07320
