17

C         -0.58440        0.09970       -1.29460
C          0.18220        0.74330       -0.14740
C          0.82960       -0.29260        0.75060
O          0.73010       -1.48220        0.55220
C          1.59810        0.23250        1.89550
C          2.25620       -0.63420        2.81670
C          2.90620        0.03350        3.79500
S          2.74000        1.74180        3.62900
C          1.78310        1.54860        2.22430
H         -1.36480       -0.54980       -0.90650
H         -1.03910        0.86080       -1.92390
H          0.08520       -0.50540       -1.90040
H          0.96700        1.39810       -0.53420
H         -0.48800        1.35350        0.46310
H          2.22260       -1.70380        2.71990
H          3.47780       -0.36000        4.61140
H          1.41500        2.42320        1.72630
