52

C          4.86290        2.84280        6.33200
C          5.18120        3.65030        5.07970
O          5.33450        2.83050        3.93080
C          4.28120        2.22670        3.34480
C          4.59580        1.26100        2.37250
F          5.89850        1.00290        2.14850
C          3.65270        0.57310        1.64610
C          2.29820        0.81410        1.86750
C          1.27200        0.07950        1.11670
C          1.30100       -0.00370       -0.28200
C          2.20990        0.62280       -1.18780
C          1.92670        0.36180       -2.47910
S          0.54380       -0.65600       -2.69640
C          0.30930       -0.74340       -0.97010
C         -0.73110       -1.40070       -0.32700
C         -1.76450       -2.12670       -1.07680
C         -3.11040       -1.86620       -0.85740
C         -4.08570       -2.53450       -1.57370
F         -5.37380       -2.20910       -1.29590
C         -3.78330       -3.49820       -2.53820
O         -4.62400       -4.22280       -3.29910
C         -6.02970       -4.04080       -3.20500
C         -6.66850       -4.98710       -4.20720
C         -2.41080       -3.73440       -2.72930
F         -2.05880       -4.65880       -3.64170
C         -1.42210       -3.07760       -2.03540
C         -0.75780       -1.32070        1.07170
C         -1.66360       -1.95260        1.97710
C         -1.37880       -1.69630        3.26890
S          0.00070       -0.67380        3.48660
C          0.23330       -0.58080        1.75970
C          1.94580        1.75380        2.82560
C          2.91390        2.44170        3.53320
F          2.46980        3.35360        4.43250
H          5.60570        2.05990        6.46640
H          3.87960        2.38460        6.26340
H          4.87870        3.49900        7.19740
H          6.15920        4.12800        5.18090
H          4.42960        4.42730        4.91320
H          3.97740       -0.16620        0.93150
H          3.02150        1.25150       -0.87020
H          2.44880        0.70610       -3.35050
H         -3.42160       -1.12140       -0.14200
H         -6.37350       -4.27130       -2.18960
H         -6.29220       -3.00260       -3.43960
H         -6.40930       -6.01450       -3.96710
H         -6.30880       -4.76540       -5.20810
H         -7.74830       -4.87420       -4.18100
H         -0.39200       -3.32410       -2.23490
H         -2.47330       -2.58300        1.65790
H         -1.89680       -2.04660        4.14030
H          0.91160        1.98620        3.02370
