12

O          1.23590       -1.90790        3.15920
C          0.64160       -1.44660        2.21730
O         -0.70120       -1.47420        2.13390
C          1.27060       -0.80580        1.05830
C          2.68000       -0.66090        0.92520
C          3.02610       -0.04010       -0.22500
S          1.64870        0.38310       -1.17310
C          0.59260       -0.28270       -0.00940
H         -1.06600       -1.90610        2.92190
H          3.37040       -1.01360        1.66860
H          4.00520        0.20150       -0.58670
H         -0.46750       -0.25940       -0.16180
