12

C         -0.59760       -1.76050        1.58300
C          0.40190       -2.29530        0.83750
C          1.46070       -1.37700        0.67910
S          2.99140       -1.39560       -0.12220
C          3.30360        0.22510        0.40510
C          2.30420        0.75980        1.15060
C          1.24530       -0.15840        1.30900
S         -0.28540       -0.13980        2.11030
H         -1.52360       -2.21900        1.86800
H          0.38770       -3.28640        0.42340
H          4.22970        0.68360        0.12010
H          2.31840        1.75090        1.56470
