34

C         -2.48350       -5.80190        1.31730
C         -1.21660       -5.68550        0.47480
N         -0.62270       -4.38940        0.63610
N          0.24930       -4.14950        1.57890
C          0.53260       -2.84690        1.44130
C          1.40380       -2.00450        2.15790
C          1.47420       -0.70140        1.77070
C          0.70840       -0.19360        0.68760
C         -0.17080       -1.00260       -0.05770
C         -0.93380       -0.49580       -1.14320
C         -0.86400        0.80760       -1.53000
C          0.00040        1.65200       -0.80760
N          0.28160        2.95530       -0.94340
N          1.15440        3.19500       -0.00130
C          1.68090        4.51160        0.21720
C          0.80060        5.28420        1.19530
N          1.49180        2.18770        0.76060
C          0.77590        1.16180        0.28370
C         -0.24300       -2.35670        0.35010
N         -0.96100       -3.38190       -0.12500
H         -3.20740       -5.05110        1.01000
H         -2.92350       -6.78710        1.19080
H         -2.24800       -5.65410        2.36840
H         -1.44920       -5.81170       -0.58440
H         -0.47900       -6.42600        0.78990
H          1.98260       -2.39690        2.97850
H          2.12230       -0.00460        2.28000
H         -1.57830       -1.19370       -1.65570
H         -1.43960        1.19900       -2.35330
H          1.71220        5.01720       -0.74980
H          2.69050        4.40040        0.61750
H         -0.20840        5.37270        0.80010
H          0.76000        4.76690        2.15090
H          1.20560        6.28000        1.35150
