25

C         -1.15700        2.62020        2.36460
C         -0.54860        1.56390        1.82170
C          0.94650        1.46810        1.75350
O          1.73480        2.28260        2.16740
C          1.22730        0.18720        1.08220
C          2.45450       -0.36530        0.76670
C          2.50840       -1.59320        0.11770
C          3.79950       -2.23400       -0.26900
C          1.29340       -2.21690       -0.18340
F          1.33290       -3.40520       -0.81020
C          0.05130       -1.68980        0.12430
C          0.01720       -0.46060        0.76840
C         -1.10540        0.35400        1.21200
C         -2.42820        0.04960        1.08360
C         -2.91780       -1.13830        0.49440
N         -3.37040       -2.08380        0.02930
C         -3.48650        0.87840        1.52050
N         -4.38990        1.50460        1.84870
H         -0.54600        3.41530        2.76240
H         -2.22420        2.73350        2.43160
H          3.36060        0.16120        1.02510
H          3.77180       -3.30300       -0.06630
H          3.96710       -2.10930       -1.33940
H          4.63040       -1.78380        0.26650
H         -0.83610       -2.24000       -0.14250
