30

C          3.62900        1.54330       -0.41190
C          2.60150        0.77540       -0.04600
C          2.73710       -0.71100        0.09810
O          3.74080       -1.35950       -0.08720
C          1.40930       -1.18480        0.50400
C          1.00300       -2.48360        0.76590
C         -0.31140       -2.71290        1.14300
O         -0.84070       -3.91880        1.42530
C         -0.01520       -5.05780        1.33160
C         -1.21730       -1.61520        1.25700
O         -2.46540       -1.95190        1.63400
C         -3.43190       -0.93470        1.78240
C         -0.79600       -0.32190        0.98940
C          0.52450       -0.09970        0.60890
C          1.21710        1.13060        0.27640
C          0.68290        2.38880        0.26220
C         -0.66260        2.67790        0.57470
N         -1.74740        2.96410        0.81810
C          1.39730        3.56170       -0.06430
N          1.91560        4.55330       -0.31880
H          3.57200        2.61130       -0.52490
H          4.58010        1.07250       -0.60430
H          1.71980       -3.28290        0.67040
H         -0.65110       -5.90110        1.59410
H          0.36650       -5.19260        0.31510
H          0.82350       -5.00280        2.03200
H         -4.34230       -1.44350        2.09350
H         -3.13920       -0.21140        2.54910
H         -3.61210       -0.41060        0.83940
H         -1.48450        0.50030        1.07560
