28

C         -2.35200       -2.80860       -2.25260
C         -1.56260       -1.96080       -1.59160
C         -1.31550       -2.10010       -0.11800
O         -1.78230       -2.94730        0.60590
C         -0.40290       -1.00220        0.23030
C          0.14250       -0.68220        1.45820
C          0.99710        0.40900        1.56660
C          1.59400        0.76190        2.89000
C          1.29490        1.17450        0.42580
C          2.21290        2.34950        0.53000
C          0.74220        0.84800       -0.80750
C         -0.10960       -0.24130       -0.91720
C         -0.80780       -0.79810       -2.06530
C         -0.77070       -0.32830       -3.34610
C         -1.46160       -0.90750       -4.43370
N         -1.99050       -1.33010       -5.35990
C         -0.03570        0.80610       -3.75570
N          0.53940        1.71840       -4.14730
H         -2.81970       -3.61020       -1.70260
H         -2.55470       -2.74620       -3.30680
H         -0.10010       -1.28400        2.32130
H          1.26230        0.07040        3.65930
H          2.68190        0.73100        2.83960
H          1.30800        1.77170        3.18210
H          2.33760        2.82910       -0.43670
H          3.19160        2.03870        0.89390
H          1.81840        3.08130        1.23390
H          0.98580        1.45000       -1.66840
