31

C         -3.40260       -1.00630        1.74580
C         -2.13250       -1.70270        2.22760
N         -0.94810       -1.08850        1.68350
C         -0.27450       -1.59650        0.59690
O         -0.60800       -2.62590        0.04060
C          0.85360       -0.66700        0.31760
C          1.82530       -0.69560       -0.62480
C          2.11390       -1.61500       -1.68450
C          1.41510       -2.80530       -2.05120
C          1.96690       -3.43050       -3.11180
S          3.36070       -2.60370       -3.71380
C          3.19120       -1.40120       -2.51770
C          0.74180        0.38260        1.32000
C          1.49320        1.51630        1.57390
C          1.12770        2.33700        2.63070
C          0.03140        2.03160        3.42230
C         -0.73660        0.90000        3.18210
C         -0.37100        0.08620        2.12800
H         -3.47390       -1.07280        0.66280
H         -4.27570       -1.48330        2.18280
H         -3.39630        0.04400        2.02910
H         -2.07160       -1.68120        3.31980
H         -2.12850       -2.74280        1.88990
H          2.52920        0.13030       -0.58290
H          0.54430       -3.15350       -1.52910
H          1.65030       -4.33410       -3.59320
H          3.89390       -0.59070       -2.48080
H          2.35020        1.76450        0.96580
H          1.70500        3.22490        2.84040
H         -0.23290        2.68430        4.24090
H         -1.58730        0.67050        3.80500
