28

C         -1.97860       -4.54670        3.42840
C         -0.69990       -4.88210        2.68380
O         -0.24410       -3.70330        2.01960
C          0.61530       -3.86790        1.00770
O          1.03780       -4.93410        0.63280
C          0.96250       -2.57970        0.40920
C          1.78940       -2.35530       -0.65910
C          1.88190       -0.99520       -0.98250
Cl         2.84850       -0.43650       -2.28360
C          1.12900       -0.16610       -0.16460
C          0.98740        1.25110       -0.22610
S          1.79780        2.17920       -1.50020
C          1.12310        3.66170       -0.88970
C          1.19800        4.96550       -1.25940
S          0.26490        5.94660       -0.19170
C         -0.22670        4.60140        0.75120
C          0.30660        3.43880        0.26500
C          0.25580        2.05850        0.60710
Cl        -0.65120        1.49470        1.94580
S          0.29430       -1.11620        1.03150
H         -1.79520       -3.74750        4.14130
H         -2.33310       -5.42500        3.95960
H         -2.74450       -4.21910        2.73040
H          0.08300       -5.21890        3.37310
H         -0.86010       -5.66750        1.93680
H          2.30290       -3.13840       -1.18520
H          1.72980        5.41020       -2.07470
H         -0.86910        4.73890        1.59640
