50

C          1.95800       -2.37350        6.11070
C          1.40050       -0.98630        6.41260
O          0.36800       -0.61210        5.52040
C          0.66640       -0.24240        4.25770
C          1.93890       -0.03940        3.72800
C          2.10520        0.35670        2.41420
C          1.01420        0.53840        1.57190
C          1.22050        0.94150        0.17970
N          2.17690        1.80770       -0.05360
C          2.30800        2.31290       -1.29320
C          3.33820        3.22960       -1.57480
C          3.39220        3.80700       -2.81180
F          4.36180        4.68900       -3.09980
C          2.43590        3.49860       -3.80280
F          2.52530        4.10140       -4.99850
C          1.43620        2.59840       -3.56390
C          1.36760        1.97150       -2.30560
N          0.45650        1.00740       -2.08190
C          0.40300        0.44920       -0.89630
C         -0.48830       -0.70150       -0.74080
C         -1.71610       -0.72800       -1.39240
C         -2.57910       -1.79900       -1.25440
C         -2.23460       -2.89840       -0.47090
O         -2.99090       -3.98940       -0.23200
C         -4.24400       -4.13970       -0.87100
C         -4.10850       -4.59370       -2.32090
C         -0.97490       -2.86850        0.14940
F         -0.59420       -3.92840        0.89060
C         -0.11540       -1.80410        0.02990
C         -0.26960        0.36330        2.09070
C         -0.42380       -0.01210        3.40290
F         -1.67100       -0.16480        3.89090
H          1.15170       -3.10240        6.11850
H          2.43500       -2.40130        5.13400
H          2.68800       -2.64600        6.86780
H          0.91610       -0.98550        7.39250
H          2.19730       -0.23260        6.41990
H          2.81390       -0.18280        4.34110
H          3.09690        0.51530        2.02080
H          4.05910        3.47690       -0.81300
H          0.71530        2.35250       -4.32630
H         -1.99650        0.11400       -2.00540
H         -3.52900       -1.76800       -1.76320
H         -4.82680       -3.21350       -0.80010
H         -4.75040       -4.91170       -0.28570
H         -5.09510       -4.75130       -2.74740
H         -3.55280       -5.52700       -2.36230
H         -3.58000       -3.85290       -2.91630
H          0.84450       -1.85130        0.51910
H         -1.14870        0.53500        1.49010
