58

C          5.23100        1.80200        6.17360
C          5.69390        0.41110        5.75400
O          5.73810        0.26010        4.34640
C          4.60500        0.08510        3.64030
C          3.32470       -0.08150        4.16500
C          2.24310       -0.27400        3.32830
C          2.39280       -0.31150        1.94550
C          1.23370       -0.53070        1.06870
C          0.09000        0.27350        1.14970
C         -0.13840        1.40540        1.99030
C         -1.35730        1.95180        1.81510
S         -2.31560        1.14410        0.61990
C         -1.02080        0.01420        0.31250
C         -1.05690       -1.03240       -0.59830
C         -2.24830       -1.30210       -1.41540
C         -2.82750       -0.30280       -2.19050
C         -3.95220       -0.54450       -2.95400
C         -4.54420       -1.80600       -2.96460
O         -5.62400       -2.17310       -3.68030
C         -6.35270       -1.21380       -4.42570
C         -7.24100       -0.34540       -3.54180
C         -3.96030       -2.81290       -2.17600
C         -4.60100       -4.17080       -2.17660
F         -3.96750       -5.04130       -1.37170
F         -5.87760       -4.14430       -1.75790
F         -4.61270       -4.74030       -3.39470
C         -2.83090       -2.56510       -1.41790
C          0.09360       -1.82640       -0.69160
C          0.33900       -2.93200       -1.56120
C          1.56010       -3.47470       -1.38590
S          2.50370       -2.68970       -0.16550
C          1.21280       -1.55450        0.13150
C          3.66660       -0.15200        1.41150
C          4.75280        0.04900        2.24270
C          6.12940        0.23980        1.67390
F          6.14290        0.21350        0.33110
F          6.99510       -0.70750        2.07120
F          6.67320        1.42010        2.02270
H          5.28570        1.89410        7.25470
H          5.87410        2.55240        5.72110
H          4.20830        1.98870        5.85440
H          5.07060       -0.36930        6.20640
H          6.72850        0.25250        6.06800
H          3.16310       -0.07150        5.23080
H          1.26270       -0.41780        3.75820
H          0.59520        1.78590        2.67770
H         -1.77700        2.80340        2.31410
H         -2.38110        0.67990       -2.20960
H         -4.36040        0.25800       -3.54630
H         -6.96950       -1.81630       -5.09720
H         -5.67520       -0.60160       -5.03250
H         -7.82970        0.32420       -4.16240
H         -6.64740        0.24530       -2.84810
H         -7.91260       -0.97730       -2.96640
H         -2.41400       -3.35270       -0.80890
H         -0.37260       -3.28310       -2.28600
H          1.99190       -4.30640       -1.90750
H          3.81120       -0.16660        0.34250
