28

C         -1.43100       -5.56780        3.87820
C         -0.73330       -5.30630        2.55740
O         -0.64040       -3.89340        2.36810
C          0.05470       -3.49430        1.29330
O          0.58620       -4.25160        0.51560
C          0.08780       -2.03970        1.18030
C         -0.47740       -1.08990        1.99670
C         -0.24150        0.21480        1.55980
C          0.50820        0.26690        0.40200
C          0.94960        1.40610       -0.34110
S          2.14950        1.14800       -1.61740
C          2.14720        2.84290       -2.00730
C          2.79820        3.61690       -2.91260
S          2.31120        5.26270       -2.75560
C          1.23060        4.90840       -1.47090
C          1.24280        3.57430       -1.17090
C          0.58380        2.72070       -0.23810
Cl        -0.57300        3.35220        0.85770
S          0.92810       -1.32680       -0.14800
H         -2.42460       -5.12800        3.87020
H         -0.86340       -5.13010        4.69510
H         -1.51710       -6.63860        4.03840
H          0.27670       -5.73160        2.54490
H         -1.29190       -5.73730        1.71850
H         -1.03820       -1.34340        2.87770
H         -0.59520        1.08520        2.07830
H          3.52090        3.33560       -3.64980
H          0.65710        5.69090       -1.01790
