78

C          4.30150        2.57280        8.48610
C          5.48130        2.11330        7.62670
C          5.08740        1.98060        6.19600
C          5.39330        2.80080        5.15170
C          4.80830        2.40110        3.93660
C          4.07230        1.25380        4.04720
C          3.27870        0.63190        3.01060
N          2.74580        1.44700        2.12380
C          1.84440        0.96790        1.25620
C          1.28350        1.81930        0.27260
C          0.26900        1.37010       -0.51220
C         -0.24820        0.05790       -0.36580
C          0.29460       -0.82570        0.58030
C         -0.22700       -2.13490        0.73200
C         -1.25670       -2.57640       -0.03760
C         -1.81930       -1.72420       -1.01910
N         -2.75840       -2.19290       -1.85190
C         -3.27960       -1.38510       -2.75150
C         -4.14640       -1.99110       -3.73280
C         -4.32820       -1.67800       -5.05360
C         -5.20320       -2.56130       -5.70910
C         -5.68930       -3.54370       -4.89690
C         -6.62290       -4.65030       -5.24900
C         -5.90410       -6.00070       -5.26640
S         -5.04370       -3.41090       -3.29720
C         -2.94750        0.00910       -2.74790
C         -3.67280        1.01650       -3.49040
C         -3.16730        2.19260       -3.97290
C         -4.13820        2.99780       -4.59660
C         -5.38900        2.45870       -4.56320
C         -6.64850        2.99510       -5.15040
C         -7.04500        2.21260       -6.40460
S         -5.38600        0.91850       -3.76950
N         -1.95660        0.45080       -2.00050
C         -1.34040       -0.39590       -1.16580
C          1.38870       -0.37180        1.37830
N          2.03300       -1.22320        2.18370
C          3.01400       -0.77440        2.94140
C          3.80360       -1.78070        3.61370
C          3.38270       -3.02280        4.00410
C          4.41340       -3.80970        4.54810
C          5.62540       -3.18660        4.55300
C          6.94150       -3.71920        5.00420
C          7.85960       -4.00950        3.81500
S          5.51000       -1.59220        3.88800
S          4.06780        0.67680        5.68740
H          3.93320        3.53550        8.13890
H          4.60620        2.67010        9.52510
H          3.49020        1.85090        8.42650
H          5.84160        1.15140        7.99960
H          6.29530        2.83740        7.70150
H          6.02020        3.66930        5.25180
H          4.92740        2.91830        3.00250
H          1.67130        2.82280        0.19120
H         -0.18840        2.00060       -1.25870
H          0.23240       -2.76670        1.47620
H         -1.65870       -3.57320        0.05560
H         -3.83190       -0.85820       -5.54230
H         -5.46890       -2.46890       -6.74760
H         -7.43590       -4.68890       -4.51980
H         -7.05370       -4.44880       -6.23210
H         -5.48280       -6.21330       -4.28670
H         -5.09660       -5.99030       -5.99490
H         -6.59900       -6.79490       -5.52790
H         -2.12620        2.44640       -3.89280
H         -3.91970        3.94870       -5.04970
H         -7.45530        2.92680       -4.41680
H         -6.50110        4.04730       -5.40260
H         -7.96590        2.61070       -6.82300
H         -7.19730        1.16380       -6.15910
H         -6.26210        2.28170       -7.15660
H          2.35980       -3.33770        3.91170
H          4.26480       -4.80700        4.92320
H          7.42660       -2.99220        5.66050
H          6.77340       -4.63620        5.57300
H          8.03770       -3.09870        3.24810
H          8.81430       -4.39790        4.16030
H          7.40260       -4.74320        3.15510
