48

C          3.69900        0.63900        6.72310
C          5.14370        0.46520        6.30240
S          5.41720       -1.12080        5.41790
C          4.52700       -0.78050        3.94330
C          4.94990       -0.03830        2.88240
C          3.98550        0.05440        1.86360
C          2.83310       -0.62960        2.14110
C          1.64260       -0.73700        1.31780
C          1.10050        0.38880        0.67510
C          1.53160        1.74770        0.74580
C          0.78220        2.57710       -0.00770
S         -0.50320        1.78180       -0.84930
C         -0.03850        0.25050       -0.15170
C         -0.67220       -0.96250       -0.38160
C         -1.82980       -1.06680       -1.28130
C         -1.80840       -1.99150       -2.34820
C         -2.86700       -2.09100       -3.20320
C         -4.01000       -1.27930       -3.04160
C         -5.12110       -1.36110       -3.90510
C         -6.21080       -0.55730       -3.71780
C         -6.23820        0.36550       -2.66010
C         -5.17650        0.46910       -1.80620
C         -4.03760       -0.34670       -1.97190
C         -2.92890       -0.26180       -1.10850
C         -0.14890       -2.07940        0.28160
C         -0.63000       -3.42390        0.25700
C          0.11170       -4.25880        1.01030
S          1.43640       -3.48250        1.80890
C          0.98340       -1.94650        1.11880
S          2.92510       -1.40430        3.69280
H          3.58720        1.55990        7.29270
H          3.04740        0.68980        5.85260
H          3.38210       -0.19710        7.34240
H          5.80570        0.40830        7.16530
H          5.47400        1.26830        5.64390
H          5.92180        0.41940        2.83820
H          4.15160        0.57210        0.93590
H          2.35460        2.07770        1.35270
H          0.89250        3.63750       -0.12680
H         -0.92940       -2.60370       -2.48940
H         -2.84240       -2.79500       -4.02320
H         -5.09480       -2.07240       -4.71870
H         -7.05970       -0.62520       -4.38250
H         -7.10760        0.99300       -2.52810
H         -5.19070        1.17870       -0.99130
H         -2.96420        0.43990       -0.28730
H         -1.50070       -3.72750       -0.29570
H         -0.03100       -5.31050        1.16620
