42

C         -2.33680       -4.28050       -2.08780
C         -1.26550       -4.58810       -1.04000
C         -0.27840       -3.47880       -0.93030
S         -0.70010       -1.93660       -0.27630
C          0.90140       -1.31170       -0.54470
C          1.24570        0.06940       -0.28860
N          2.09380        0.61430       -1.13180
C          2.31710        1.93630       -1.06950
C          3.24080        2.53980       -1.94400
C          3.35410        3.90120       -1.94950
F          4.21960        4.49980       -2.78030
C          2.56450        4.70410       -1.09670
F          2.70390        6.03640       -1.15350
C          1.67860        4.14540       -0.21970
C          1.55860        2.74340       -0.17230
N          0.79200        2.16330        0.76430
C          0.67530        0.85430        0.77330
C          0.00660        0.28880        1.92410
C         -0.97050        0.89130        2.66840
C         -1.33300        0.11240        3.78030
F         -2.29370        0.48930        4.64070
C         -0.64220       -1.05770        3.92480
C         -0.75940       -2.07050        5.01000
C          0.47460       -2.06550        5.91410
S          0.49730       -1.22060        2.63680
C          1.70430       -2.24900       -1.13500
C          1.02840       -3.46540       -1.32970
F          1.62500       -4.54200       -1.86850
H         -1.88200       -4.13900       -3.06570
H         -2.87670       -3.37420       -1.82080
H         -3.04420       -5.10310       -2.14970
H         -0.72960       -5.49900       -1.31430
H         -1.74510       -4.74680       -0.07120
H          3.83000        1.92850       -2.60740
H          1.08960        4.75710        0.44350
H         -1.41320        1.83680        2.41980
H         -0.87930       -3.06370        4.57070
H         -1.65060       -1.84230        5.59810
H          0.60110       -1.09000        6.37850
H          1.36750       -2.29360        5.33530
H          0.36580       -2.81120        6.69690
H          2.72940       -2.07520       -1.40080
