21

C         -1.10310       -2.58240        3.43640
C          0.16150       -1.74780        3.37840
O          0.16520       -1.01730        2.15160
C          1.22260       -0.22400        1.94240
O          2.14160       -0.09860        2.71070
C          1.09890        0.46310        0.65270
S         -0.31290        0.16280       -0.34640
C          0.29160        1.26290       -1.55560
C         -0.15730        1.69570       -2.76330
S          0.95750        2.81210       -3.45590
C          2.03070        2.70220       -2.12650
C          1.55060        1.83670       -1.18010
C          1.97070        1.34840        0.09050
F          3.11220        1.73720        0.65240
H         -1.13470       -3.27310        2.59820
H         -1.97820       -1.94010        3.38940
H         -1.12370       -3.14620        4.36440
H          0.21140       -1.03660        4.21080
H          1.05890       -2.37590        3.41590
H         -1.05490        1.43740       -3.28520
H          2.93940        3.26860       -2.11210
