66

C          7.17300        1.53570        2.62210
C          6.09680        2.48620        3.13990
O          4.84670        2.28600        2.51510
C          4.09400        1.19060        2.82050
C          4.35050        0.31630        3.87220
C          3.49830       -0.75970        4.09990
O          3.65590       -1.68320        5.08870
C          4.64390       -1.50330        6.08080
C          4.26550       -0.43450        7.10320
C          2.39980       -0.96420        3.27010
C          2.13710       -0.08510        2.23030
C          0.97730       -0.30010        1.35100
C          0.01790        0.69810        1.14380
C         -0.05950        1.98560        1.75660
C         -1.13910        2.68820        1.36230
S         -2.13760        1.84890        0.22150
C         -1.06850        0.46980        0.26670
C         -1.25410       -0.72180       -0.42080
C         -2.40400       -0.92370       -1.31510
C         -2.69130        0.01180       -2.29870
C         -3.78750       -0.16140       -3.13810
O         -3.97890        0.83400       -4.04660
C         -5.02540        0.75000       -4.99010
C         -4.69510       -0.17890       -6.15570
C         -4.59880       -1.28340       -2.99740
C         -4.31060       -2.22110       -2.01060
O         -5.03700       -3.35090       -1.79010
C         -6.16750       -3.61750       -2.59340
C         -6.76790       -4.93290       -2.12210
C         -3.21600       -2.04020       -1.17110
C         -0.29440       -1.72090       -0.21190
C         -0.20840       -3.00800       -0.82510
C          0.86600       -3.71200       -0.41840
S          1.85450       -2.87360        0.73170
C          0.78810       -1.49360        0.67100
C          2.98120        0.99390        2.00940
H          8.12300        1.75930        3.10000
H          6.90770        0.50090        2.82500
H          7.28030        1.65460        1.54690
H          6.36080        3.51710        2.88740
H          6.00570        2.41670        4.23160
H          5.20700        0.47150        4.50630
H          5.61940       -1.28390        5.62790
H          4.71070       -2.47750        6.57340
H          4.15660        0.53780        6.62860
H          3.31840       -0.69300        7.56980
H          5.03250       -0.37070        7.87040
H          1.75520       -1.80530        3.46570
H          0.66550        2.34160        2.46580
H         -1.43230        3.67390        1.66760
H         -2.06960        0.88030       -2.44110
H         -5.14110        1.77390       -5.35730
H         -5.96460        0.45350       -4.50620
H         -3.78380        0.15690       -6.64380
H         -4.54090       -1.19810       -5.81010
H         -5.50800       -0.16780       -6.87680
H         -5.45090       -1.42610       -3.64030
H         -5.87290       -3.69520       -3.65010
H         -6.90470       -2.80820       -2.49210
H         -7.64270       -5.17620       -2.71850
H         -6.03540       -5.72940       -2.21900
H         -7.05650       -4.85430       -1.07780
H         -3.03030       -2.76880       -0.39880
H         -0.92190       -3.36450       -1.54520
H          1.16080       -4.69810       -0.72080
H          2.80420        1.68020        1.19710
