14

C         -0.51920        0.22940        1.42280
C          0.34620       -0.74080        0.61680
C          1.76340       -0.27200        0.56950
C          2.31920        0.51200       -0.39610
S          3.96740        0.85120       -0.03890
C          3.78070       -0.09770        1.40400
N          2.61720       -0.59900        1.57730
H         -0.12280        0.33530        2.42940
H         -0.53300        1.20940        0.95070
H         -1.53940       -0.14070        1.48620
H          0.32560       -1.72300        1.09060
H         -0.04350       -0.82830       -0.39880
H          1.86410        0.90070       -1.28430
H          4.60200       -0.23700        2.07800
