74

C          9.32290       -0.09670        1.84650
C          7.92180       -0.10800        1.24660
Si         6.71500       -1.27930        2.16230
C          6.38640       -0.60790        3.92310
C          5.56630       -1.53920        4.81040
C          7.43110       -3.05840        2.17220
C          6.37890       -4.16040        2.26120
C          5.09410       -1.28280        1.19940
C          4.84970       -1.77680       -0.05250
C          3.52550       -1.62220       -0.48530
C          2.72330       -0.98840        0.43350
C          1.32100       -0.68290        0.31520
C          0.63950        0.26570        1.09860
C          1.05370        1.15940        2.13520
C         -0.04600        1.85650        2.49410
O         -1.13550        1.49500        1.78270
C         -0.74040        0.52560        0.92100
C         -1.56020       -0.10950       -0.02000
C         -2.95270        0.22480       -0.16620
C         -3.72700        1.00190        0.66310
C         -5.04380        1.16110        0.21040
C         -5.31540        0.52550       -0.97000
Si        -6.94420        0.41460       -1.91200
C         -7.99210        1.93710       -1.42570
C         -9.36000        1.95690       -2.09610
C         -7.85000       -1.19300       -1.37980
C         -6.90710       -2.33330       -1.00480
C         -6.60400        0.43510       -3.79680
C         -6.01350       -0.86070       -4.34370
S         -3.90180       -0.30310       -1.52580
C         -0.88060       -1.07030       -0.79310
C         -1.29090       -1.97490       -1.82230
C         -0.18860       -2.67000       -2.17810
O          0.90110       -2.29710       -1.47390
C          0.50110       -1.32410       -0.61900
S          3.64650       -0.59870        1.85480
H          9.75500       -1.09410        1.82960
H          9.29580        0.24420        2.87830
H          9.97920        0.56810        1.28740
H          7.52500        0.90780        1.25340
H          7.98800       -0.40340        0.19880
H          7.33580       -0.39980        4.41870
H          5.86470        0.34730        3.84280
H          6.09720       -2.47210        4.98210
H          4.61020       -1.76660        4.34590
H          5.37230       -1.07780        5.77720
H          8.01860       -3.21160        1.26530
H          8.12560       -3.16440        3.00710
H          5.80170       -4.07340        3.17760
H          5.68870       -4.09790        1.42360
H          6.84820       -5.14280        2.24560
H          5.61550       -2.24220       -0.64830
H          3.17220       -1.94890       -1.44530
H          2.03410        1.26750        2.54720
H         -0.18950        2.62490        3.22890
H         -3.36000        1.43580        1.57370
H         -5.78260        1.73730        0.73870
H         -7.45830        2.85280       -1.68070
H         -8.13330        1.95290       -0.34490
H         -9.25730        2.00300       -3.17720
H         -9.92220        1.06060       -1.84610
H         -9.93810        2.82190       -1.77490
H         -8.50780       -1.52710       -2.18370
H         -8.49400       -0.98030       -0.52450
H         -6.28110       -2.04790       -0.16280
H         -6.25500       -2.58720       -1.83630
H         -7.46890       -3.22320       -0.72570
H         -7.53420        0.64300       -4.32790
H         -5.92520        1.25670       -4.03240
H         -5.82960       -0.77880       -5.41380
H         -6.69360       -1.69260       -4.17950
H         -5.06970       -1.08710       -3.85390
H         -2.27060       -2.09670       -2.23160
H         -0.04470       -3.44440       -2.90650
