46

C          0.55030       -6.40730        4.86340
C          1.51030       -6.88490        3.79320
S          3.14920       -6.08860        3.92940
C          2.78360       -4.45670        3.41710
C          3.57190       -3.37930        3.70230
C          3.14870       -2.16330        3.13060
C          2.00590       -2.21640        2.38250
C          1.35630       -1.12110        1.69520
C          2.09370       -0.14540        0.99890
C          3.49780       -0.11710        0.74450
C          3.87660        0.93890       -0.00170
S          2.56600        1.97680       -0.44310
C          1.43160        0.94250        0.38670
C          0.04630        1.10940        0.39820
C         -0.57100        2.23010       -0.28020
C         -0.11260        3.51640       -0.33150
C         -0.84390        4.40590       -1.14300
C         -1.91140        3.85590       -1.79110
S         -3.02840        4.77520       -2.77430
C         -3.84530        3.45400       -3.73640
C         -2.93340        2.86320       -4.79200
Se        -2.10680        2.03310       -1.35870
C         -0.69140        0.11870        1.07150
C         -2.10260        0.04800        1.27590
C         -2.48160       -1.02950        1.99020
S         -1.15850       -2.02940        2.48100
C         -0.02720       -0.96300        1.69150
Se         1.33140       -3.97470        2.31300
H          0.95830       -6.60010        5.85290
H          0.36710       -5.33720        4.76470
H         -0.39960       -6.92860        4.76600
H          1.13310       -6.67630        2.78700
H          1.71270       -7.95140        3.88620
H          4.44270       -3.45740        4.33010
H          3.66010       -1.23550        3.32650
H          4.17680       -0.87730        1.08390
H          4.86420        1.19220       -0.33450
H          0.74200        3.84330        0.23610
H         -0.58130        5.44360       -1.25360
H         -4.71320        3.93600       -4.18520
H         -4.18470        2.69670       -3.02250
H         -3.46510        2.09700       -5.35230
H         -2.60000        3.63580       -5.48100
H         -2.05700        2.40760       -4.33180
H         -2.79990        0.78790        0.92110
H         -3.47360       -1.31390        2.28120
