26

C         -2.81830       -2.58190        0.44930
C         -1.75080       -1.78320        0.49860
C         -0.83680       -1.76510        1.68530
O         -0.94410       -2.43360        2.68540
C          0.20170       -0.77000        1.36520
C          1.27610       -0.39120        2.14490
C          2.14750        0.57560        1.64000
O          3.23310        1.04440        2.28310
C          3.53510        0.54370        3.56760
C          1.90880        1.12490        0.36850
C          0.83360        0.74260       -0.40300
C         -0.04380       -0.21990        0.09360
C         -1.23930       -0.81410       -0.47550
C         -1.79220       -0.52660       -1.69080
C         -1.27140        0.42640       -2.59350
N         -0.89650        1.18990       -3.36370
C         -2.95480       -1.13920       -2.20740
N         -3.89040       -1.60050       -2.68510
H         -3.50020       -2.62470       -0.38130
H         -3.01720       -3.22770        1.29020
H          1.40950       -0.84990        3.11150
H          2.72720        0.74910        4.27560
H          3.73380       -0.53140        3.53980
H          4.43460        1.06920        3.88280
H          2.60430        1.86720        0.00960
H          0.68650        1.18920       -1.37270
