26

C         -0.07210        2.92500       -0.25840
C          0.05040        1.62970        0.03700
C         -0.50900        1.05840        1.30950
O         -1.09950        1.68170        2.15770
C         -0.17900       -0.37180        1.26950
C         -0.47600       -1.36100        2.21530
O         -1.14470       -0.98540        3.31200
C         -1.46560       -1.94540        4.29230
C         -0.04760       -2.66430        1.93410
C          0.64010       -2.94960        0.76740
C          0.93680       -1.97170       -0.17100
C          0.52220       -0.67390        0.08640
C          0.68590        0.54110       -0.70350
C          1.31500        0.64590       -1.90910
C          1.44460        1.84710       -2.64270
N          1.58500        2.78320       -3.29060
C          1.92320       -0.42920       -2.59580
N          2.44320       -1.25330       -3.20130
H         -0.58670        3.56330        0.44270
H          0.31090        3.37920       -1.15480
H         -2.11690       -2.72730        3.88960
H         -1.99630       -1.39900        5.06970
H         -0.56580       -2.39990        4.71830
H         -0.25050       -3.46460        2.62790
H          0.95460       -3.96590        0.58370
H          1.47370       -2.22910       -1.06800
