178

C         -4.93690        4.87760        4.57210
C         -4.97420        3.40070        4.97000
C         -3.81920        2.66240        4.35630
C         -3.93340        2.07610        3.10370
C         -2.86000        1.42860        2.51800
C         -1.63900        1.36520        3.17290
C         -0.45520        0.61250        2.59510
C          0.83640        1.39200        2.72540
C          2.04650        0.74540        2.93120
C          3.22870        1.46220        2.96600
C          3.23390        2.83860        2.79010
C          4.52130        3.61140        2.76000
C          5.00490        3.77960        1.31790
C          2.02000        3.48160        2.58380
C          0.83650        2.77040        2.54990
C         -0.62700        0.22110        1.13580
C         -0.57060        1.03750        0.03110
C         -0.68300        0.42850       -1.21460
C         -0.89130       -0.96290       -1.34950
C         -0.94560       -1.77930       -0.24330
C         -0.77800       -1.17780        1.00110
C         -0.65390       -1.73640        2.31320
S         -0.62280       -3.34030        2.97380
C         -0.29150       -2.67310        4.54360
C         -0.02120       -3.20080        5.80690
C          0.21210       -2.19800        6.73700
S          0.11890       -0.59540        6.08910
C         -0.23690       -1.26780        4.52650
C         -0.42820       -0.74440        3.24740
C          0.48990       -2.79790        7.99490
S          0.89020       -2.30660        9.59160
C          0.97560       -3.96500       10.07820
C          0.71270       -4.84240        9.06830
C          0.42580       -4.17600        7.86740
C          0.10530       -4.56710        6.44140
C          1.27050       -5.37760        5.90360
C          1.35700       -6.72850        6.21730
C          2.42450       -7.48510        5.77510
C          3.43330       -6.91540        5.00840
C          4.61290       -7.72930        4.55960
C          5.73670       -7.66100        5.59570
C          3.34730       -5.56360        4.70710
C          2.28250       -4.80060        5.15100
C         -1.20430       -5.31050        6.27110
C         -1.48210       -5.92220        5.05460
C         -2.68030       -6.58040        4.85950
C         -3.63180       -6.64420        5.86990
C         -4.90920       -7.40910        5.67360
C         -4.71640       -8.87780        6.05690
C         -3.35180       -6.02460        7.07960
C         -2.15550       -5.35900        7.27910
C         -1.00600       -1.35020       -2.81710
C          0.02860       -2.34800       -3.29530
C         -0.16170       -2.99140       -4.51280
C          0.78890       -3.86630       -5.00030
C          1.95420       -4.12120       -4.28830
C          3.00290       -5.04340       -4.84120
C          3.95940       -4.27580       -5.75580
C          2.14660       -3.46370       -3.08140
C          1.19970       -2.58280       -2.59010
C         -2.42110       -1.84840       -3.04890
C         -2.73980       -3.17420       -2.78220
C         -4.03190       -3.63310       -2.95030
C         -5.04020       -2.78380       -3.38730
C         -6.45280       -3.27350       -3.52930
C         -7.22310       -3.06650       -2.22360
C         -4.71910       -1.45810       -3.64290
C         -3.42780       -0.99330       -3.47360
C         -0.72610       -0.02750       -3.48180
C         -0.56700        0.96500       -2.53500
S         -0.16710        2.51610       -3.19810
C         -0.18370        1.81960       -4.78840
C          0.07910        2.29350       -6.07320
C         -0.03840        1.28770       -7.02130
S         -0.49790       -0.24910       -6.36620
C         -0.50910        0.45120       -4.77490
C          0.31730        1.81900       -8.29110
S          0.41670        1.28970       -9.92240
C          0.95540        2.86370      -10.39880
C          1.05120        3.74290       -9.36120
C          0.69110        3.14570       -8.14400
C          0.56450        3.58020       -6.70060
C         -0.42200        4.72700       -6.63120
C          0.00700        6.00900       -6.95300
C         -0.87760        7.06900       -6.93580
C         -2.21220        6.87800       -6.59930
C         -3.17980        8.02630       -6.62340
C         -3.76580        8.20150       -8.02580
C         -2.63670        5.59430       -6.28790
C         -1.75480        4.52850       -6.30480
C          1.87610        3.92410       -6.02060
C          1.85250        4.60590       -4.80980
C          3.02430        4.85270       -4.12260
C          4.24810        4.42450       -4.62190
C          5.50860        4.64100       -3.83440
C          5.67780        3.53600       -2.78960
C          4.26550        3.74640       -5.83260
C          3.09440        3.49470       -6.52520
C         -1.51980        1.94680        4.42980
C         -2.59580        2.58840        5.01070
H         -5.77270        5.41370        5.01590
H         -4.01040        5.33640        4.91010
H         -4.99360        4.97880        3.49050
H         -4.92820        3.32020        6.05800
H         -5.91560        2.96100        4.63410
H         -4.87730        2.11960        2.57850
H         -2.97590        0.97170        1.54600
H          2.06850       -0.32700        3.06070
H          4.16190        0.94180        3.12970
H          4.37270        4.59700        3.20640
H          5.28430        3.08620        3.33790
H          5.93720        4.33900        1.28990
H          4.26110        4.31350        0.73050
H          5.16820        2.80730        0.85800
H          2.00140        4.55380        2.44670
H         -0.09780        3.29010        2.39220
H         -0.42080        2.10300        0.11480
H         -1.07710       -2.84730       -0.32600
H          1.21850       -4.18690       11.09830
H          0.72410       -5.91020        9.19110
H          0.57550       -7.19040        6.80340
H          2.47380       -8.53550        6.02540
H          4.98150       -7.35010        3.60420
H          4.31370       -8.77040        4.42160
H          6.59270       -8.24710        5.26900
H          6.05500       -6.63100        5.74060
H          5.39350       -8.04960        6.55190
H          4.12240       -5.09920        4.11390
H          2.24310       -3.75000        4.90450
H         -0.75160       -5.88580        4.25940
H         -2.88050       -7.05020        3.90700
H         -5.69920       -6.97670        6.29110
H         -5.21980       -7.34800        4.62850
H         -3.93900       -9.32910        5.44440
H         -5.63980       -9.43430        5.91300
H         -4.42010       -8.96020        7.10030
H         -4.07980       -6.05880        7.87800
H         -1.96240       -4.87840        8.22700
H         -1.06420       -2.80940       -5.07840
H          0.62240       -4.35970       -5.94720
H          2.52750       -5.84500       -5.41040
H          3.56930       -5.49400       -4.02360
H          4.45290       -3.47970       -5.20280
H          3.41290       -3.82810       -6.58280
H          4.71860       -4.94190       -6.15980
H          3.04980       -3.64210       -2.51480
H          1.37440       -2.07800       -1.65100
H         -1.96760       -3.85500       -2.45450
H         -4.26030       -4.66910       -2.74300
H         -6.95430       -2.72990       -4.33270
H         -6.45330       -4.33550       -3.78310
H         -8.24630       -3.42150       -2.32350
H         -7.24490       -2.01120       -1.96100
H         -6.74370       -3.60940       -1.41200
H         -5.48850       -0.77890       -3.98250
H         -3.20480        0.04370       -3.67790
H          1.17160        3.03870      -11.43390
H          1.36910        4.76330       -9.47480
H          1.04430        6.17540       -7.20610
H         -0.52710        8.06110       -7.18350
H         -3.99000        7.84330       -5.91480
H         -2.66980        8.94620       -6.32950
H         -4.28580        7.29700       -8.33350
H         -2.97390        8.40070       -8.74440
H         -4.46920        9.03090       -8.04470
H         -3.67120        5.42380       -6.02510
H         -2.10860        3.53790       -6.05950
H          0.90970        4.94410       -4.40490
H          2.98770        5.38240       -3.18140
H          6.37120        4.64090       -4.50380
H          5.46770        5.60860       -3.32940
H          5.74030        2.56440       -3.27490
H          6.58370        3.69440       -2.20890
H          4.82810        3.52320       -2.11080
H          5.20690        3.40490       -6.23990
H          3.13040        2.95780       -7.46200
H         -0.57540        1.89900        4.95270
H         -2.48540        3.03360        5.98920
