32

C          0.62750       -5.88640        4.36970
C         -0.59270       -5.58650        3.51990
O         -0.35240       -4.37700        2.79870
C         -1.34380       -3.97040        1.99400
O         -2.38740       -4.56170        1.86020
C         -1.00090       -2.72380        1.30480
C          0.14210       -1.99590        1.39630
C          0.13240       -0.82950        0.58080
C          1.13370        0.11730        0.44660
C          0.88010        1.17450       -0.41900
N          1.63020        2.23780       -0.76940
N          0.88510        2.88870       -1.61340
C          1.32620        4.12550       -2.19360
C          0.92420        5.30040       -1.30710
N         -0.29090        2.39830       -1.88370
C         -0.36040        1.27950       -1.13960
C         -1.36780        0.32510       -1.00420
C         -1.09800       -0.71150       -0.14390
S         -2.17710       -2.03770        0.21320
H          0.80730       -5.07260        5.06700
H          1.50400       -6.00350        3.73810
H          0.46560       -6.80400        4.92760
H         -0.78940       -6.39180        2.80290
H         -1.48900       -5.45700        4.13730
H          0.96840       -2.27750        2.02370
H          2.06380        0.04130        0.98560
H          2.41230        4.07410       -2.29000
H          0.86080        4.21150       -3.17710
H          1.26840        6.23080       -1.74960
H          1.36940        5.19450       -0.32080
H         -0.15740        5.33920       -1.20370
H         -2.29620        0.40390       -1.54370
