35

C         -3.33550       -3.17770        3.42780
C         -2.53300       -2.48780        2.61610
C         -1.07120       -2.79680        2.50550
O         -0.48050       -3.67260        3.09210
C         -0.52750       -1.81900        1.55060
C          0.80100       -1.70040        1.14200
C          1.02430       -0.68390        0.24610
C          0.00200        0.16170       -0.21130
C         -1.30950        0.05960        0.18160
C         -1.56340       -0.97450        1.09270
C         -2.81800       -1.36610        1.71930
C         -4.04330       -0.80270        1.50770
C         -4.29590        0.26610        0.61930
N         -4.57180        1.12630       -0.08790
C         -5.23520       -1.21510        2.14490
N         -6.23790       -1.49330        2.62780
C          0.94050        0.95450       -1.08580
C          0.89520        0.65210       -2.59860
C          2.20800        1.19570       -3.11490
C          3.17400        0.39460       -2.68400
C          2.53060       -0.70400       -1.86890
C          1.20380       -0.85040       -2.62480
C          2.07830        0.01150       -0.57770
H         -4.38740       -2.98610        3.54240
H         -2.90930       -3.97940        4.01040
H          1.55730       -2.36710        1.52570
H         -2.08190        0.72150       -0.17240
H          1.00690        2.01800       -0.86590
H         -0.00640        0.98840       -3.10290
H          2.30130        2.10690       -3.67560
H          4.23490        0.50290       -2.81320
H          3.11880       -1.60340       -1.70900
H          0.46570       -1.46490       -2.11230
H          1.34670       -1.22300       -3.63760
H          2.90590        0.44550       -0.01990
