58

C          4.13920       -3.15370        1.69290
C          3.26930       -1.92670        1.46910
O          1.96510       -2.38310        1.14880
C          0.99480       -1.47060        0.86010
C          1.09880       -0.08840        0.90150
O          2.22780        0.62210        1.23890
C          1.87130        1.92590        1.13870
C          2.41190        3.20040        1.30830
S          3.86070        4.03590        1.74380
C          3.05340        5.55720        1.51480
C          1.75590        5.45080        1.12730
C          1.37040        4.09940        1.00360
N          0.23930        3.41650        0.64380
C         -1.04050        4.01330        0.36220
C         -1.85070        4.22280        1.63940
C          0.53940        2.08400        0.74390
C          0.00710        0.77240        0.58140
C         -1.25300        0.27800        0.21790
O         -2.23140        1.20000       -0.01880
C         -3.43640        0.80750       -0.65320
C         -3.24440        0.50490       -2.13470
C         -1.35810       -1.10500        0.18350
O         -2.48640       -1.81730       -0.15100
C         -2.12230       -3.12090       -0.07880
C         -2.65640       -4.39530       -0.26850
S         -4.10280       -5.23190       -0.70980
C         -3.28340       -6.75180       -0.51770
C         -1.98370       -6.64420       -0.13800
C         -1.60640       -5.29300        0.01000
N         -0.47690       -4.60960        0.37390
C          0.81150       -5.20040        0.62630
C          1.59260       -5.40750       -0.67000
C         -0.78690       -3.27770        0.30330
C         -0.26060       -1.96620        0.48390
H          5.15180       -2.84400        1.93360
H          4.15770       -3.76730        0.79610
H          3.74590       -3.74790        2.51380
H          3.24040       -1.30820        2.37320
H          3.66760       -1.32110        0.64720
H          3.61130        6.45540        1.68970
H          1.11800        6.29660        0.94540
H         -0.86590        4.97030       -0.13770
H         -1.58340        3.34800       -0.30990
H         -2.79510        4.70720        1.40690
H         -2.05540        3.26220        2.10440
H         -1.30010        4.84370        2.34260
H         -3.88340       -0.04990       -0.14340
H         -4.09120        1.67520       -0.52750
H         -2.77700        1.35080       -2.63420
H         -2.61440       -0.37080       -2.26530
H         -4.20950        0.31040       -2.59330
H         -3.83650       -7.65020       -0.70600
H         -1.33850       -7.48890        0.02250
H          0.65440       -6.15870        1.12980
H          1.36510       -4.53040        1.28520
H          1.03020       -6.03430       -1.35850
H          2.54540       -5.88570       -0.45910
H          1.77870       -4.44760       -1.14500
