77

C          1.36770        2.48700       -8.96890
C          0.51320        3.41500       -8.10340
C          1.37890        4.19690       -7.15750
C          1.86770        5.44870       -7.50760
C          2.69210        6.14580       -6.64130
C          3.03980        5.60300       -5.41980
C          2.56490        4.34490       -5.05180
C          2.92430        3.76190       -3.76080
C          4.08480        4.03230       -3.09120
S          4.24440        3.21550       -1.57660
C          2.70170        2.46810       -1.80660
C          2.12880        2.84720       -3.01750
S          0.56040        2.12210       -3.28090
C          0.69150        1.31450       -1.75590
C         -0.02790        0.40030       -0.96330
C         -1.22210       -0.31140       -1.20550
N         -2.00960       -0.26410       -2.26870
S         -3.20400       -1.33990       -2.07000
N         -2.76540       -1.90580       -0.61720
C         -1.66800       -1.27200       -0.23440
C         -0.97260       -1.37750        0.98910
C         -1.28230       -2.06210        2.17730
S         -2.48320       -3.14860        2.78760
C         -1.74630       -3.04920        4.36830
C         -2.07990       -3.60070        5.63490
C         -3.21330       -4.48370        5.90320
C         -3.85360       -4.45830        7.14090
C         -4.92560       -5.29480        7.38380
C         -5.37100       -6.16320        6.40250
C         -4.74840       -6.20120        5.16150
C         -5.19700       -7.17270        4.10770
C         -4.45700       -8.50290        4.26170
C         -3.67200       -5.36030        4.92470
C         -1.19430       -3.17730        6.58520
S          0.03930       -2.12420        5.99000
C         -0.62850       -2.21930        4.39590
C         -0.35340       -1.66140        3.13630
N          0.53660       -0.77910        2.58230
C          1.39440        0.01470        3.43100
C          2.60660       -0.77730        3.92340
C          0.18720       -0.60070        1.25620
C          0.73810        0.19110        0.21440
N          1.91420        0.92260        0.11580
C          3.21430        0.62360        0.67540
C          3.94730       -0.41870       -0.16940
C          1.87570        1.59620       -1.08040
C          1.73730        3.65510       -5.93250
H          0.74050        1.92200       -9.65460
H          1.91710        1.78680       -8.34360
H          2.08530        3.06360       -9.54870
H         -0.20480        2.81860       -7.53710
H         -0.04190        4.09930       -8.74820
H          1.59620        5.88240       -8.45950
H          3.06120        7.12280       -6.91810
H          3.66400        6.16230       -4.73940
H          4.89350        4.65940       -3.40910
H         -3.52290       -3.76830        7.90270
H         -5.42100       -5.26650        8.34360
H         -6.21240       -6.81230        6.59870
H         -6.27130       -7.34590        4.19690
H         -4.99690       -6.76090        3.11680
H         -4.77850       -9.20830        3.49890
H         -4.65430       -8.93520        5.24050
H         -3.38410       -8.35160        4.16520
H         -3.17700       -5.39490        3.96560
H         -1.17050       -3.44220        7.62320
H          1.68440        0.91930        2.89450
H          0.80620        0.32450        4.30280
H          3.13280       -1.25680        3.10070
H          3.29280       -0.11620        4.44580
H          2.28750       -1.55430        4.61250
H          3.11780        0.25450        1.68890
H          3.78610        1.55640        0.69090
H          4.91970       -0.62980        0.26710
H          3.37160       -1.34130       -0.21140
H          4.09400       -0.05580       -1.18360
H          1.37070        2.67540       -5.66470
