122

C          6.06590       -0.39950       -4.04110
C          6.73690       -0.69400       -2.70220
O          6.52670        0.30660       -1.72590
C          5.39400        0.30840       -0.96980
C          5.38300        1.21010        0.09540
C          4.29430        1.26820        0.93930
C          3.20030        0.44300        0.73760
C          3.18730       -0.43910       -0.33250
C          1.98170       -1.33450       -0.54340
C          1.84160       -1.80970       -1.97970
C          1.58350       -3.13320       -2.29800
C          1.44640       -3.50990       -3.62680
C          1.53450       -2.57770       -4.63710
C          1.75410       -1.23320       -4.32690
O          1.78350       -0.37630       -5.38300
C          1.68530        1.01970       -5.16550
C          3.03060        1.70020       -4.92650
C          1.92170       -0.86570       -2.99990
C          0.67740       -0.61310       -0.20260
C          0.16160        0.54430       -0.73870
C         -1.07880        0.96900       -0.27310
C         -1.78580        0.26480        0.72310
C         -1.27710       -0.89830        1.25020
C         -0.03790       -1.32290        0.78210
C          0.76440       -2.44210        1.16000
S          0.54580       -3.71400        2.31590
C          2.09780       -4.33010        1.86530
C          2.94960       -5.38820        2.19120
S          3.06850       -6.77460        3.21310
C          4.63990       -7.12100        2.56080
C          5.06210       -6.23780        1.61790
C          4.09550       -5.23550        1.39700
N          3.97430       -4.12240        0.60750
C          4.99010       -3.67010       -0.30540
C          4.85620       -4.32160       -1.68130
C          2.74830       -3.56140        0.86990
C          1.95600       -2.47270        0.45990
C         -3.08920        0.98170        1.06980
C         -2.91980        1.51320        2.48370
C         -2.66790        2.85300        2.73540
C         -2.47120        3.28710        4.03810
C         -2.49350        2.39650        5.08850
C         -2.71220        1.03890        4.84560
O         -2.70480        0.23210        5.94200
C         -2.64030       -1.17140        5.77580
C         -1.27400       -1.63990        5.28340
C         -2.93750        0.61270        3.54370
C         -4.28400        0.06780        0.88610
C         -5.34530        0.02820        1.77790
C         -6.42020       -0.81440        1.53240
C         -6.44750       -1.61290        0.41060
C         -5.38610       -1.57690       -0.49730
O         -5.49520       -2.39930       -1.57120
C         -4.44110       -2.44380       -2.51340
C         -4.81140       -3.47210       -3.57030
C         -4.31390       -0.72910       -0.25410
C         -3.08880        2.08880        0.03750
C         -1.90110        2.06980       -0.66880
S         -1.73230        3.32160       -1.85830
C         -3.29960        3.90570       -1.40940
C         -4.19240        4.92550       -1.74860
S         -4.37340        6.28060       -2.80340
C         -5.94770        6.58880       -2.13850
C         -6.32650        5.71610       -1.16810
C         -5.32310        4.75360       -0.93450
N         -5.15410        3.66560       -0.11990
C         -6.12860        3.19700        0.83080
C         -6.01210        3.91190        2.17560
C         -3.91450        3.14290       -0.38790
C          4.28950       -0.50900       -1.17920
H          4.98470       -0.48230       -3.97590
H          6.31950        0.60710       -4.36370
H          6.42090       -1.10770       -4.78500
H          6.42550       -1.67370       -2.31960
H          7.82280       -0.70700       -2.83820
H          6.24200        1.84560        0.23900
H          4.29530        1.96240        1.76600
H          2.35270        0.49170        1.40390
H          1.48500       -3.87340       -1.51880
H          1.26090       -4.54570       -3.87000
H          1.42220       -2.85650       -5.67250
H          1.24870        1.40550       -6.09190
H          0.98970        1.23030       -4.34410
H          2.89140        2.77790       -4.93060
H          3.72390        1.43110       -5.71950
H          3.46610        1.41310       -3.97280
H          2.12890        0.15860       -2.73940
H          0.67910        1.12750       -1.48330
H         -1.80400       -1.48750        1.98360
H          5.16140       -7.98210        2.92840
H          6.00930       -6.31080        1.11490
H          5.96260       -3.92150        0.12950
H          4.91810       -2.58320       -0.38280
H          3.92670       -4.01920       -2.15850
H          4.86050       -5.40500       -1.58420
H          5.68790       -4.02910       -2.31780
H         -2.61490        3.56260        1.92440
H         -2.28950        4.33460        4.22830
H         -2.33440        2.71960        6.10480
H         -2.83360       -1.56870        6.77590
H         -3.43820       -1.52280        5.10940
H         -0.50600       -1.35540        5.99830
H         -1.27020       -2.72060        5.17210
H         -1.03020       -1.18730        4.32510
H         -3.14040       -0.42450        3.33570
H         -5.33710        0.64030        2.66730
H         -7.24350       -0.84390        2.23080
H         -7.27430       -2.27530        0.21050
H         -3.50270       -2.72920       -2.01750
H         -4.30560       -1.45590       -2.97550
H         -5.73980       -3.18630       -4.05690
H         -4.94860       -4.44560       -3.10770
H         -4.02220       -3.53710       -4.31370
H         -3.48310       -0.67710       -0.94050
H         -6.50340        7.42170       -2.52080
H         -7.26900        5.76810       -0.65380
H         -5.99220        2.12160        0.96140
H         -7.12120        3.37060        0.40350
H         -6.10950        4.98710        2.04240
H         -6.79830        3.56980        2.84310
H         -5.04900        3.70250        2.63510
H          4.26440       -1.19200       -2.01380
