98

C          7.23650       -0.03870        2.37440
C          6.20290       -0.02930        3.50200
C          4.84770        0.33820        2.97000
C          4.37090        1.64040        3.04640
C          3.13000        1.96130        2.52710
C          2.34960        0.99110        1.92220
C          2.81910       -0.31040        1.82390
C          1.98570       -1.43110        1.22790
C          2.80210       -2.29590        0.28970
C          2.58780       -3.66430        0.20970
C          3.32280       -4.42910       -0.67850
C          4.26540       -3.83570       -1.49780
C          4.48290       -2.46530       -1.43970
C          5.46280       -1.80000       -2.36360
C          4.76010       -1.34330       -3.64370
C          3.74290       -1.70750       -0.54440
C          0.73780       -0.95390        0.50360
C          0.65620       -0.26210       -0.68330
C         -0.61530        0.06700       -1.14090
C         -1.78070       -0.28250       -0.42210
C         -1.69980       -1.00130        0.74870
C         -0.42870       -1.33790        1.20180
C         -0.00070       -2.07660        2.35290
S         -0.79420       -2.86080        3.67960
C          0.75640       -3.33970        4.30070
C          1.17050       -4.07930        5.42510
C          2.52280       -4.19120        5.46840
S          3.32990       -3.40290        4.15310
C          1.81280       -2.89570        3.50200
C          1.37390       -2.17820        2.38340
C         -3.02600        0.23450       -1.12410
C         -3.71460        1.36090       -0.36970
C         -4.97770        1.77200       -0.77930
C         -5.60200        2.82810       -0.14340
C         -4.97390        3.48430        0.90080
C         -3.70710        3.09550        1.31180
C         -3.02690        3.77070        2.46850
C         -3.28040        2.99540        3.76280
C         -3.08610        2.03450        0.66550
C         -3.98240       -0.90600       -1.40250
C         -4.85970       -1.33040       -0.41150
C         -5.72500       -2.38000       -0.65560
C         -5.73330       -3.00650       -1.88970
C         -4.86130       -2.59780       -2.88810
C         -4.90090       -3.21560       -4.25620
C         -5.75780       -2.36040       -5.19210
C         -3.98330       -1.55430       -2.62700
C         -2.42020        0.84590       -2.35920
C         -1.04500        0.76120       -2.31880
S         -0.25580        1.48150       -3.68440
C         -1.80950        1.90930       -4.33500
C         -2.23140        2.55790       -5.51150
C         -3.58560        2.63720       -5.56990
S         -4.38620        1.93190       -4.20370
C         -2.86270        1.50730       -3.51030
C          4.06350       -0.62450        2.35350
H          6.95280       -0.75730        1.60860
H          8.21710       -0.30950        2.75900
H          7.30350        0.94500        1.91450
H          6.15950       -1.02120        3.95690
H          6.50830        0.68670        4.26750
H          4.97140        2.40380        3.52030
H          2.76310        2.97520        2.59550
H          1.37840        1.24920        1.52690
H          1.84880       -4.13400        0.84190
H          3.15750       -5.49540       -0.73050
H          4.83870       -4.43920       -2.18710
H          5.90930       -0.93440       -1.86950
H          6.26250       -2.49740       -2.62120
H          4.31740       -2.19460       -4.15610
H          5.46680       -0.86150       -4.31560
H          3.96700       -0.63670       -3.40960
H          3.91360       -0.64140       -0.48600
H          1.53610        0.02070       -1.24050
H         -2.57880       -1.29590        1.30070
H          0.50340       -4.50100        6.15410
H          3.11740       -4.69480        6.20430
H         -5.47060        1.26130       -1.59350
H         -6.58410        3.14150       -0.46580
H         -5.46810        4.30800        1.39620
H         -1.95130        3.82170        2.28600
H         -3.40420        4.78940        2.57760
H         -2.89480        1.98180        3.67800
H         -2.79090        3.48400        4.60220
H         -4.34750        2.94000        3.96680
H         -2.09690        1.73410        0.98030
H         -4.87610       -0.82730        0.54420
H         -6.40390       -2.70610        0.11910
H         -6.42180       -3.81780       -2.07850
H         -5.31950       -4.22230       -4.20010
H         -3.88870       -3.28740       -4.66010
H         -6.77510       -2.29060       -4.81310
H         -5.78670       -2.79510       -6.18860
H         -5.35140       -1.35370       -5.26230
H         -3.29530       -1.24340       -3.40030
H         -1.56870        2.93880       -6.26650
H         -4.18480        3.07490       -6.34330
H          4.42860       -1.63950        2.28320
