50

C          4.97080       -6.57600        1.84100
C          5.30260       -5.60700        0.70430
C          4.26330       -4.52680        0.61440
C          4.42620       -3.32270        1.28750
C          3.45510       -2.34210        1.23360
C          2.28530       -2.54300        0.50460
C          1.25380       -1.50450        0.44360
C          1.54250       -0.14650        0.26070
C          2.75530        0.57590        0.02740
C          2.39990        1.87220       -0.11080
O          1.06690        2.05940        0.01000
C          0.52150        0.83570        0.23020
C         -0.83550        0.55830        0.35870
C         -1.86490        1.59870        0.29590
C         -1.68800        2.81390        0.95290
C         -2.65970        3.79320        0.89070
C         -3.82750        3.59660        0.16450
C         -4.90150        4.64570        0.13170
C         -5.93790        4.38560        1.22690
C         -3.99770        2.38780       -0.49920
C         -3.03360        1.40130       -0.43650
C         -1.12440       -0.79970        0.54100
C         -2.33730       -1.52240        0.77250
C         -1.98210       -2.81880        0.91010
O         -0.64890       -3.00590        0.79070
C         -0.10320       -1.78200        0.57180
C          2.11270       -3.75660       -0.15690
C          3.09090       -4.72950       -0.10360
H          5.72300       -7.35890        1.90700
H          4.00090       -7.03850        1.67240
H          4.93540       -6.04630        2.79050
H          5.34470       -6.15920       -0.23720
H          6.28410       -5.16360        0.88430
H          5.32630       -3.15180        1.86170
H          3.58900       -1.42080        1.78100
H          3.74280        0.16990       -0.04470
H          2.98800        2.75080       -0.29500
H         -0.78790        2.98300        1.52400
H         -2.50900        4.72840        1.41170
H         -4.45990        5.63300        0.28140
H         -5.39770        4.63750       -0.84130
H         -5.46440        4.40060        2.20620
H         -6.40030        3.41100        1.08640
H         -6.71560        5.14570        1.20470
H         -4.89500        2.22170       -1.07910
H         -3.17010        0.47910       -0.98160
H         -3.32490       -1.11650        0.84350
H         -2.57050       -3.69750        1.09290
H          1.21200       -3.92790       -0.72650
H          2.94600       -5.66200       -0.63090
