30

C          0.72730       -4.88720        4.27620
C          1.86090       -4.45650        3.35650
O          1.46210       -3.38630        2.50120
C          0.76140       -3.71060        1.40620
O          0.46780       -4.83630        1.08860
C          0.41570       -2.50280        0.64160
C         -0.30590       -2.50150       -0.52210
S         -0.55090       -0.93460       -1.19010
C          0.33370       -0.22350        0.10800
C          0.70580        1.09730        0.46580
C          0.36810        2.30410       -0.30370
O          0.70110        3.42550       -0.01050
O         -0.35460        1.98230       -1.38510
C         -0.77290        3.05470       -2.22820
C         -2.01010        3.74810       -1.67630
C          1.42780        1.09590        1.62920
S          1.66720       -0.47040        2.30080
C          0.78270       -1.18150        1.00260
H         -0.08950       -5.30040        3.68930
H          1.08560       -5.64730        4.96430
H          0.36070       -4.03570        4.84470
H          2.70390       -4.06020        3.92610
H          2.18780       -5.29990        2.73920
H         -0.70580       -3.36490       -1.01600
H         -0.97850        2.58770       -3.19350
H          0.05010        3.77050       -2.32480
H         -1.77530        4.22580       -0.72820
H         -2.34640        4.50580       -2.37810
H         -2.80820        3.02580       -1.52180
H          1.83130        1.95890        2.12100
