44

C         -1.83220       -5.77340       -3.78110
C         -1.00970       -4.65180       -4.42110
C         -0.99880       -3.43890       -3.55810
S          0.17390       -3.23250       -2.30640
C         -0.51790       -1.71490       -1.79630
C          0.01250       -0.95610       -0.69290
C          1.28420       -1.15070       -0.12370
C          2.36420       -2.04300       -0.41030
C          3.33820       -1.75520        0.48070
O          2.98780       -0.75440        1.31620
C          1.73920       -0.36650        0.96420
C          0.99680        0.64290        1.58740
C          1.51880        1.38710        2.70470
C          2.82030        1.45220        3.13090
C          2.98330        2.25690        4.27480
Cl         4.51900        2.51580        5.01200
C          1.83080        2.81880        4.74440
C          1.63570        3.67520        5.94620
C          1.31930        2.82580        7.18000
S          0.50010        2.33900        3.75260
C         -0.27540        0.83670        1.01890
C         -1.35320        1.73280        1.30190
C         -2.32530        1.44820        0.40790
O         -1.97290        0.45100       -0.43100
C         -0.72370        0.06400       -0.07990
C         -1.60670       -1.41180       -2.57260
C         -1.86710       -2.38500       -3.55620
Cl        -3.17270       -2.24590       -4.67190
H         -2.86070       -5.45080       -3.63710
H         -1.41410       -6.04360       -2.81380
H         -1.82890       -6.65200       -4.42090
H         -1.44280       -4.39070       -5.38900
H          0.01410       -4.99610       -4.57820
H          2.40800       -2.78810       -1.17530
H          4.31310       -2.17910        0.62470
H          3.63660        0.95600        2.64320
H          0.81680        4.37410        5.76630
H          2.54970        4.24630        6.12300
H          0.41150        2.24840        7.01830
H          1.17740        3.46440        8.04790
H          2.13680        2.13800        7.38310
H         -1.39310        2.48460        2.06050
H         -3.29890        1.87440        0.26170
H         -2.19620       -0.52310       -2.45800
