66

C          1.09890        0.09250        3.85890
C         -0.25810       -0.59040        3.99230
O         -1.16130       -0.25890        2.94680
C         -0.70900       -0.47190        1.66580
C         -0.24070       -1.71450        1.21550
C          0.34830       -1.86500       -0.05630
C          0.44550       -0.79820       -0.93560
O          1.07390       -0.96240       -2.14310
C          2.01350        0.02980       -2.52980
C          3.44870       -0.45470       -2.34370
C         -0.21610        0.38040       -0.56010
C         -0.75450        0.55770        0.73310
C         -1.47380        1.90290        0.84480
C         -0.83110        2.89390        1.84500
C         -1.34580        2.85290        3.27970
C         -2.96180        1.60440        1.12190
C         -3.89970        2.79170        0.94120
C         -1.27590        2.44130       -0.54610
C         -1.63500        3.60790       -1.24520
C         -1.21200        3.56890       -2.53870
S         -0.35380        2.12320       -2.93180
C         -0.55090        1.56000       -1.31330
C          0.77010       -3.30540       -0.30170
C          2.30930       -3.36980       -0.39390
C          2.89880       -4.77320       -0.34180
C          0.11160       -3.87130       -1.57050
C         -1.40920       -3.77510       -1.53740
C          0.24850       -3.96930        0.93810
C          0.10640       -5.28820        1.40260
C         -0.53640       -5.33170        2.60240
S         -0.98840       -3.77240        3.18820
C         -0.28850       -3.03350        1.79490
H          0.98440        1.17220        3.81780
H          1.59990       -0.23900        2.95120
H          1.71700       -0.16540        4.71450
H         -0.76750       -0.25950        4.90130
H         -0.11260       -1.67310        4.05780
H          1.82650        0.24370       -3.58700
H          1.86990        0.94700       -1.95280
H          4.13450        0.31250       -2.69320
H          3.61950       -1.36360       -2.91470
H          3.64930       -0.65340       -1.29340
H         -0.97960        3.90440        1.45670
H          0.24600        2.70650        1.84000
H         -0.70180        3.46450        3.90990
H         -1.35320        1.84050        3.66360
H         -2.35440        3.25050        3.34820
H         -3.04140        1.21080        2.13430
H         -3.27200        0.80950        0.43850
H         -3.97630        3.06650       -0.10760
H         -3.56150        3.65850        1.50200
H         -4.89450        2.52520        1.29250
H         -2.17120        4.44180       -0.82990
H         -1.34910        4.30840       -3.30270
H          2.72330       -2.78570        0.43280
H          2.60000       -2.89090       -1.32780
H          2.67470       -5.25320        0.60720
H          2.51570       -5.39290       -1.14800
H          3.98060       -4.71630       -0.44560
H          0.48960       -3.31310       -2.42750
H          0.39960       -4.91790       -1.68110
H         -1.72530       -2.73790       -1.45430
H         -1.82860       -4.19080       -2.45090
H         -1.81480       -4.32630       -0.69150
H          0.43970       -6.16760        0.88160
H         -0.78090       -6.19210        3.19350
