38

C         -0.25840        1.23020        6.02140
C          0.26720        2.13920        4.91840
N          0.28120        1.44890        3.63030
C          1.43020        0.74320        3.31250
O          2.37710        0.71580        4.06870
C          1.43360        0.04440        2.01080
C          2.54770       -0.66670        1.60820
C          2.55950       -1.32920        0.38060
C          1.45720       -1.28440       -0.45120
C          0.30940       -0.56580       -0.06380
C         -0.82610       -0.50270       -0.89490
C         -1.93900        0.21090       -0.49370
C         -1.95080        0.87350        0.73390
C         -0.84960        0.82610        1.56710
C          0.29750        0.10580        1.18060
C         -0.87090        1.53100        2.86530
O         -1.83440        2.15770        3.25020
C         -0.82250       -1.20110       -2.19690
O         -1.77520       -1.18660       -2.94610
N          0.34010       -1.87640       -2.53090
C          0.35070       -2.57430       -3.81490
C         -0.16570       -3.99940       -3.66800
C          1.47860       -1.98890       -1.74960
O          2.43640       -2.62850       -2.12760
H         -0.25850        1.76600        6.96610
H         -1.27520        0.91620        5.79760
H          0.37480        0.35130        6.11820
H          1.29190        2.44570        5.13460
H         -0.37360        3.01590        4.81090
H          3.40610       -0.69780        2.26230
H          3.42710       -1.88620        0.06050
H         -2.79630        0.24450       -1.14900
H         -2.81740        1.43290        1.05280
H         -0.28450       -2.00850       -4.49830
H          1.38090       -2.57870       -4.17460
H         -0.14760       -4.49500       -4.63430
H          0.46170       -4.55770       -2.97720
H         -1.18830       -3.99280       -3.29790
