98

C          0.40880       -4.93570        6.90750
C          0.55230       -3.58400        7.60970
C          0.62680       -2.47300        6.60170
C          1.84620       -2.07830        6.06730
C          1.91470       -1.07970        5.11460
C          0.76040       -0.44450        4.67310
C          0.83670        0.61640        3.59500
C          2.06850        1.49100        3.73460
C          2.80980        1.89090        2.63200
C          3.89160        2.73890        2.78600
C          4.25470        3.21650        4.03740
C          5.45810        4.09950        4.20400
C          6.71520        3.25400        4.41730
C          3.50360        2.82110        5.13690
C          2.42190        1.97500        4.98880
C         -0.35580        1.53770        3.54740
C         -0.93650        2.49940        4.39050
C         -2.01600        3.08800        3.80400
S         -2.34110        2.49120        2.21460
C         -0.99780        1.42120        2.33330
C         -0.35770        0.43090        1.51320
C          0.72420       -0.06390        2.23960
C          1.53540       -1.06880        1.71990
C          1.27110       -1.55750        0.46450
C          0.19950       -1.06210       -0.30360
C         -0.08730       -1.52800       -1.60500
C         -1.15260       -1.01410       -2.34240
C         -1.96890       -0.01520       -1.81880
C         -1.72020        0.45550       -0.55350
C         -0.65180       -0.04380        0.21670
C         -1.22900       -1.65260       -3.72070
C         -1.06700       -0.54940       -4.74790
C          0.19110       -0.16410       -5.19020
C          0.33170        0.87750       -6.08820
C         -0.77650        1.56580       -6.56320
C         -0.61510        2.72490       -7.50450
C         -0.40300        4.02300       -6.72280
C         -2.03210        1.18590       -6.10810
C         -2.17800        0.14420       -5.21160
C         -2.47880       -2.47630       -3.95670
C         -2.77960       -2.90130       -5.24580
C         -3.88170       -3.69860       -5.48400
C         -4.70810       -4.10130       -4.44240
C         -5.93310       -4.92750       -4.71150
C         -7.12580       -4.02450       -5.03240
C         -4.39790       -3.68310       -3.15620
C         -3.29440       -2.88520       -2.91170
C         -0.06020       -2.60230       -3.65630
C          0.52410       -3.56020       -4.50130
C          1.58030       -4.17550       -3.90010
S          1.88000       -3.60750       -2.29520
C          0.55710       -2.51380       -2.42710
C         -0.46200       -0.84730        5.19280
C         -0.52520       -1.84660        6.14620
H          1.25950       -5.11430        6.25360
H         -0.49530       -4.95340        6.30290
H          0.35560       -5.74060        7.63710
H          1.45730       -3.59080        8.22090
H         -0.30410       -3.42880        8.26920
H          2.75550       -2.55610        6.40460
H          2.87560       -0.78130        4.72020
H          2.54280        1.53960        1.64620
H          4.45930        3.03820        1.91610
H          5.58820        4.71940        3.31440
H          5.31790        4.75940        5.06270
H          7.58840        3.89130        4.53710
H          6.87770        2.59770        3.56520
H          6.60950        2.63790        5.30770
H          3.76580        3.18480        6.12070
H          1.84920        1.67840        5.85590
H         -0.58640        2.74630        5.37630
H         -2.65600        3.84770        4.20690
H          2.36150       -1.45330        2.29880
H          1.89170       -2.33520        0.04490
H         -2.78580        0.38040       -2.40330
H         -2.34500        1.22820       -0.13100
H          1.06830       -0.68300       -4.83240
H          1.31910        1.15860       -6.42660
H          0.24350        2.55460       -8.15760
H         -1.50540        2.82240       -8.12910
H         -0.28590        4.86330       -7.40350
H         -1.25400        4.21670       -6.07370
H          0.48820        3.95000       -6.10330
H         -2.90860        1.71050       -6.46210
H         -3.16580       -0.14050       -4.87860
H         -2.14900       -2.59580       -6.06860
H         -4.10200       -4.01740       -6.49330
H         -6.16840       -5.53760       -3.83700
H         -5.75100       -5.59600       -5.55570
H         -6.91360       -3.41540       -5.90850
H         -8.01390       -4.62040       -5.23000
H         -7.33170       -3.35990       -4.19620
H         -5.02490       -3.98930       -2.33050
H         -3.06890       -2.57930       -1.90070
H          0.19200       -3.78680       -5.49820
H          2.21600       -4.94050       -4.29990
H         -1.37170       -0.37440        4.85240
H         -1.48580       -2.14170        6.54480
