33

C         -2.97720       -1.26150        3.50740
C         -1.66700       -0.53490        3.79810
O         -1.01360       -0.09530        2.62680
C         -0.37320       -0.99010        1.82250
C         -0.15490       -2.32690        2.14040
C          0.51440       -3.14370        1.25010
C          0.97160       -2.66160        0.03810
C          0.75760       -1.32900       -0.29570
O          1.17400       -0.75550       -1.45660
C          1.92550       -1.51970       -2.37660
C          2.28320       -0.60710       -3.53980
C          0.08660       -0.48180        0.59890
C         -0.12530        0.93040        0.25930
C          0.15680        2.01370        1.13860
C         -0.11340        3.22060        0.59000
S         -0.72720        3.07960       -1.01230
C         -0.60650        1.36880       -0.93750
H         -2.80010       -2.16650        2.93160
H         -3.46480       -1.52570        4.44190
H         -3.63590       -0.61400        2.93430
H         -1.87170        0.38730        4.35000
H         -1.00140       -1.15830        4.40840
H         -0.49550       -2.74120        3.07530
H          0.68110       -4.17970        1.50500
H          1.48860       -3.32650       -0.63430
H          1.33360       -2.37420       -2.73440
H          2.83870       -1.90070       -1.89810
H          2.86110       -1.15580       -4.27800
H          2.86610        0.23690       -3.18180
H          1.37750       -0.22730       -4.00440
H          0.55230        1.88010        2.12830
H          0.00890        4.19430        1.02110
H         -0.90890        0.78350       -1.78160
