27

C          1.88680       -3.23030        2.22360
C          0.73850       -2.39740        2.78580
O          0.06410       -1.65610        1.78850
C          0.62440       -0.52840        1.29480
C          1.78670        0.04880        1.72800
C          2.21850        1.23800        1.11440
N          3.31360        1.93750        1.39640
S          3.36770        3.21910        0.41480
N          2.00740        2.94480       -0.41110
C          1.45140        1.82950        0.05220
C          0.25850        1.22510       -0.38280
C         -0.14850        0.06920        0.22590
O         -1.26680       -0.62270       -0.08230
C         -2.10780       -0.13740       -1.11040
C         -3.28170       -1.09570       -1.23450
H          2.33080       -3.82350        3.01820
H          1.51260       -3.89700        1.45090
H          2.65290       -2.59430        1.78760
H          1.09070       -1.73580        3.58670
H         -0.03160       -3.05690        3.19520
H          2.38660       -0.36330        2.52120
H         -0.29540        1.69030       -1.18000
H         -2.46300        0.87180       -0.86010
H         -1.55250       -0.08790       -2.05730
H         -2.92180       -2.09270       -1.47200
H         -3.95200       -0.75970       -2.02050
H         -3.82440       -1.13960       -0.29450
