77

C         -1.32620        1.00110       -7.45400
C         -0.25360        0.56880       -8.45560
C         -0.15020       -0.93060       -8.50030
C         -0.76830       -1.63380       -9.52550
C         -0.76050       -3.01670       -9.55840
C         -0.13800       -3.72540       -8.54620
C          0.47800       -3.04280       -7.51460
C          0.48600       -1.65250       -7.48730
C          1.13940       -0.98820       -6.34840
C          2.21060       -0.14970       -6.41150
S          2.73120        0.44630       -4.86930
C          1.47720       -0.45080       -4.08160
C          0.72730       -1.17440       -5.00490
S         -0.55160       -2.11730       -4.28190
C         -0.06380       -1.53030       -2.72650
C         -0.40200       -1.69350       -1.37290
C         -1.34210       -2.55250       -0.76700
N         -2.18300       -3.39680       -1.34440
S         -2.99410       -4.18270       -0.18300
N         -2.30410       -3.47450        1.10030
C         -1.41440       -2.59650        0.66340
C         -0.60600       -1.71530        1.41100
C         -0.56820       -1.47350        2.79420
S         -1.31380       -2.04560        4.24940
C         -0.42630       -0.83870        5.14700
C         -0.40350       -0.48400        6.52130
C         -1.16790       -1.20570        7.54700
C         -1.04990       -2.59460        7.57050
C         -1.74210       -3.35180        8.49330
C         -2.58060       -2.72530        9.39990
C         -2.71510       -1.35090        9.36990
C         -2.01590       -0.56940        8.45670
C         -2.21680        0.92060        8.48470
C         -1.50940        1.55220        9.68510
C          0.44200        0.56480        6.72960
S          1.21950        1.14460        5.29430
C          0.39370       -0.04720        4.34820
C          0.32000       -0.42030        2.99600
N          0.84140       -0.01250        1.79870
C          1.67370        1.16570        1.77480
C          3.10530        0.86020        2.21740
C          0.30300       -0.80520        0.79850
C          0.46960       -0.85820       -0.61670
N          1.33980       -0.24640       -1.50420
C          2.52910        0.54890       -1.31790
C          2.28780        2.02150       -1.65340
C          1.01220       -0.64720       -2.77070
H         -1.07100        0.66160       -6.45290
H         -2.28940        0.57360       -7.72320
H         -1.41720        2.08500       -7.43980
H         -0.51510        0.94340       -9.44710
H          0.70100        1.01090       -8.16880
H         -1.26860       -1.08430      -10.31060
H         -1.24680       -3.53920      -10.36890
H         -0.13480       -4.80500       -8.55700
H          0.96440       -3.58710       -6.71820
H          2.76300        0.14820       -7.28060
H         -0.39600       -3.07720        6.85910
H         -1.63250       -4.42590        8.50170
H         -3.13340       -3.30730       10.12260
H         -3.38460       -0.86510       10.06590
H         -3.28660        1.13210        8.55750
H         -1.84710        1.37080        7.56270
H         -0.44220        1.34330        9.65750
H         -1.65240        2.63050        9.68590
H         -1.90470        1.14990       10.61490
H          0.69150        1.03610        7.65850
H          1.64250        1.61680        0.78760
H          1.24030        1.88370        2.48020
H          3.53920        0.04950        1.63550
H          3.11560        0.56330        3.26270
H          3.72380        1.74640        2.10540
H          3.29130        0.15950       -2.00230
H          2.90100        0.41960       -0.30570
H          3.16900        2.60660       -1.40500
H          2.08930        2.13310       -2.71590
H          1.43300        2.42020       -1.11060
