41

C          3.06810       -3.81620        4.61140
C          3.71590       -3.38030        3.30370
N          2.77920       -2.61740        2.48180
C          1.97870       -3.33960        1.61140
O          2.06850       -4.54640        1.53680
C          1.03140       -2.56220        0.78710
C          0.21520       -3.21020       -0.12050
C         -0.67950       -2.47960       -0.89750
C         -0.76590       -1.10510       -0.77250
C          0.05150       -0.41440        0.14520
C         -0.02390        0.99090        0.29100
C          0.80220        1.64280        1.20750
C          0.77770        3.11590        1.41770
C          1.70060        0.87710        1.97000
C          1.78820       -0.49030        1.84640
C          0.96030       -1.16400        0.92850
C          2.74830       -1.24720        2.67540
O          3.47890       -0.71060        3.48060
C         -0.99000        1.73880       -0.53930
O         -1.14170        2.94160       -0.47040
N         -1.74690        1.00420       -1.44140
C         -2.70010        1.74880       -2.26160
C         -4.06030        1.83300       -1.58140
C         -1.72440       -0.36610       -1.61310
O         -2.45240       -0.91270       -2.41490
H          2.75130       -2.94670        5.18260
H          2.20520       -4.44720        4.41160
H          3.78380       -4.38040        5.20230
H          4.02350       -4.25180        2.72340
H          4.57460       -2.73650        3.50100
H          0.28670       -4.28320       -0.21220
H         -1.32300       -2.96990       -1.61240
H          0.99170        3.63720        0.48570
H         -0.21660        3.43910        1.72310
H          1.50280        3.40850        2.17280
H          2.35020        1.36520        2.68230
H         -2.78540        1.22480       -3.21510
H         -2.28920        2.74770       -2.41610
H         -4.46200        0.83520       -1.42120
H         -3.97180        2.34160       -0.62410
H         -4.74880        2.38980       -2.21050
