12

C         -0.59270       -0.94730        1.41660
C          0.86560       -0.75500        1.20010
C          1.63860       -1.20480        0.17760
C          2.99720       -0.82620        0.29290
C          3.23950       -0.09100        1.40420
S          1.81300        0.15500        2.33600
H         -1.11770        0.00750        1.37170
H         -0.99790       -1.60510        0.65090
H         -0.78300       -1.38650        2.39600
H          1.25520       -1.79210       -0.63830
H          3.75300       -1.09380       -0.42400
H          4.16550        0.32680        1.74500
