30

C         -1.43890       -1.60310        2.75590
C         -0.82710       -0.38550        2.07670
C         -0.28340       -0.64440        0.64970
C         -1.36500       -1.16000       -0.32940
C         -1.43530       -2.67800       -0.45830
O          0.73600       -1.65710        0.72700
C          2.01120       -1.28460        0.95370
C          3.01590       -2.18600        1.37470
C          4.22850       -1.58200        1.48680
S          4.18870        0.09030        1.08500
C          2.49660       -0.00930        0.74450
C          1.59840        0.98140        0.26220
S          1.95050        2.57790       -0.29860
C          0.28590        2.83250       -0.66310
C         -0.48540        1.75100       -0.37450
C          0.26150        0.67710        0.15380
H         -1.65160       -1.37400        3.79800
H         -0.74540       -2.43940        2.72050
H         -2.36930       -1.89280        2.27530
H         -1.55970        0.42220        2.01990
H          0.01430       -0.02780        2.67780
H         -2.33190       -0.76990       -0.00850
H         -1.15030       -0.74870       -1.31880
H         -0.49150       -3.06860       -0.82740
H         -1.64860       -3.15120        0.49400
H         -2.22030       -2.94270       -1.16360
H          2.83070       -3.22440        1.57680
H          5.15700       -2.02080        1.79190
H         -0.01990        3.77600       -1.06800
H         -1.54850        1.72500       -0.53090
