22

C          0.99820        0.45860        4.24200
C          1.95260        0.08260        3.11400
N          1.26070        0.02990        1.84370
C          0.63410       -1.11060        1.36280
O          0.63460       -2.18330        1.91120
C          0.01050       -0.70490        0.07850
C         -0.73630       -1.42770       -0.82770
C         -1.20030       -0.76220       -1.95860
C         -0.91890        0.57890       -2.16750
C         -0.16250        1.30680       -1.25360
C          0.29430        0.64730       -0.13210
C          1.10440        1.13060        1.01370
O          1.55980        2.22580        1.22440
H          1.53620        0.49260        5.18500
H          0.20110       -0.27740        4.31950
H          0.56070        1.43630        4.05250
H          2.74770        0.82650        3.02310
H          2.38430       -0.90500        3.29280
H         -0.95090       -2.47130       -0.65860
H         -1.79090       -1.30000       -2.68500
H         -1.29400        1.06810       -3.05390
H          0.06100        2.35060       -1.40970
