122

C          7.42000        0.26260        0.18070
C          7.63930        0.02370       -1.31050
O          6.88480       -1.06460       -1.80300
C          5.54210       -0.93110       -1.98500
C          4.81980        0.25460       -1.90240
C          3.45650        0.25520       -2.13550
C          2.76960       -0.90930       -2.45410
C          1.26600       -0.87830       -2.66860
C          0.82170        0.09470       -3.74460
C          1.70010        0.73410       -4.61080
C          1.23160        1.59610       -5.58030
C         -0.13350        1.84470       -5.72050
O         -0.47330        2.69740       -6.72630
C         -1.81120        3.13160       -6.85920
C         -2.20100        4.16560       -5.80680
C         -1.01850        1.19770       -4.86380
C         -0.53770        0.33600       -3.89490
C          0.59240       -0.55500       -1.33470
C          0.57800        0.63230       -0.64070
C         -0.12780        0.66430        0.55810
C         -0.78710       -0.47230        1.07270
C         -0.82140       -1.64200        0.35030
C         -0.13610       -1.66650       -0.86050
C         -0.05600       -2.68010       -1.86650
S         -0.75090       -4.26150       -2.03970
C         -0.00760       -4.37770       -3.60090
C          0.11190       -5.27380       -4.66750
S         -0.38310       -6.84520       -5.18410
C          0.49670       -6.63680       -6.66690
C          1.13570       -5.44220       -6.77510
C          0.92090       -4.64840       -5.63010
N          1.31250       -3.41420       -5.18100
C          2.04370       -2.44280       -5.95030
C          1.13280       -1.71400       -6.93610
C          0.73720       -3.22800       -3.95060
C          0.70400       -2.25690       -2.93840
C         -1.44810       -0.15360        2.41380
C         -0.71180       -0.91120        3.50610
C         -0.74750       -2.29930        3.54140
C         -0.06400       -3.02050        4.50350
C          0.68430       -2.35920        5.47160
O          1.38170       -2.94630        6.48290
C          1.53610       -4.35060        6.50850
C          2.54610       -4.84940        5.47900
C          0.72090       -0.96560        5.44410
C          0.03900       -0.25750        4.47700
C         -2.93540       -0.44730        2.36430
C         -3.60630       -1.17750        3.33770
C         -4.96610       -1.38930        3.24710
C         -5.70370       -0.87140        2.18280
O         -7.03390       -1.16110        2.19770
C         -7.88960       -0.59270        1.22810
C         -8.20720        0.87270        1.51360
C         -5.03800       -0.13420        1.20850
C         -3.67340        0.06760        1.30670
C         -1.20420        1.33710        2.49740
C         -0.41140        1.74990        1.44540
S         -0.04190        3.44620        1.42840
C         -0.98040        3.62880        2.87390
C         -1.37750        4.62000        3.77660
S         -1.22980        6.31170        4.08890
C         -2.22300        6.13930        5.50310
C         -2.64870        4.86980        5.73620
C         -2.16880        3.98610        4.74830
N         -2.25080        2.64410        4.48160
C         -3.08710        1.70750        5.18430
C         -4.54360        1.82040        4.73790
C         -1.54530        2.41520        3.32840
C          3.49850       -2.09090       -2.53270
C          4.85880       -2.10300       -2.30760
H          8.05340        1.07800        0.51920
H          6.38160        0.51230        0.38470
H          7.67160       -0.63620        0.73800
H          8.67840       -0.26560       -1.49170
H          7.43140        0.93420       -1.88640
H          5.30110        1.18940       -1.66080
H          2.92570        1.19210       -2.07340
H          2.76410        0.56760       -4.53170
H          1.91300        2.09490       -6.25140
H         -1.84970        3.58270       -7.85480
H         -2.50050        2.27810       -6.84270
H         -1.52920        5.01850       -5.86280
H         -2.13710        3.74450       -4.80640
H         -3.21810        4.50440       -5.98410
H         -2.08400        1.34910       -4.93840
H         -1.23880       -0.15860       -3.23780
H          1.05610        1.52720       -1.00680
H         -1.38040       -2.50770        0.66870
H          0.48070       -7.43620       -7.38050
H          1.72410       -5.15480       -7.62760
H          2.49570       -1.73110       -5.25730
H          2.84180       -2.96210       -6.49010
H          0.69220       -2.42010       -7.63630
H          1.70020       -0.97300       -7.49170
H          0.33330       -1.20690       -6.40140
H         -1.32630       -2.84070        2.81000
H         -0.13000       -4.09700        4.48310
H          0.56820       -4.85110        6.38010
H          1.89930       -4.56280        7.51810
H          3.50750       -4.36970        5.64490
H          2.66640       -5.92510        5.57410
H          2.21770       -4.61750        4.46880
H          1.29920       -0.45380        6.19710
H          0.10300        0.81960        4.48430
H         -3.06880       -1.59090        4.17810
H         -5.48700       -1.96150        3.99860
H         -8.80420       -1.18900        1.29220
H         -7.47120       -0.71330        0.22130
H         -7.30570        1.47980        1.48080
H         -8.91190        1.24600        0.77570
H         -8.64770        0.96700        2.50300
H         -5.56310        0.28500        0.36450
H         -3.17100        0.64150        0.54100
H         -2.43160        7.01550        6.08390
H         -3.26940        4.59170        6.56870
H         -3.00610        1.91130        6.25660
H         -2.71050        0.70190        4.98930
H         -4.92650        2.81710        4.94600
H         -4.62140        1.63150        3.67000
H         -5.15300        1.09050        5.26270
H          3.00570       -3.02160       -2.76750
H          5.42040       -3.02140       -2.37390
