25

C         -1.65920       -0.90540        4.21600
C         -1.15850       -1.97560        3.24410
C         -0.47780       -1.33990        2.06640
C         -1.20230       -0.97220        0.93910
C         -0.58670       -0.35270       -0.13020
C          0.77980       -0.07880       -0.10410
C          1.43860        0.56800       -1.23750
C          2.58220        1.41080       -1.12740
C          3.00670        1.88760       -2.32060
S          2.03750        1.32050       -3.62520
C          1.04210        0.44040       -2.53830
C          1.50490       -0.44300        1.02880
C          0.88290       -1.06240        2.09500
H         -0.82790       -0.30390        4.57740
H         -2.15190       -1.36600        5.06930
H         -2.36750       -0.24550        3.71990
H         -2.00500       -2.57570        2.90300
H         -0.46030       -2.63520        3.76400
H         -2.26340       -1.17570        0.89970
H         -1.17180       -0.06330       -0.99060
H          3.04540        1.66400       -0.19080
H          3.83010        2.54210       -2.52520
H          0.23500       -0.14370       -2.93250
H          2.56820       -0.25740        1.06710
H          1.46430       -1.34170        2.96270
