26

C          3.04760        0.25240        1.26630
C          1.75420        0.11110        0.99560
C          0.99730       -0.97460        1.66630
O          1.53920       -1.87670        2.26200
N         -0.39040       -0.92450        1.56700
C         -1.13040       -2.09010        2.04950
C         -1.30330       -3.12020        0.94150
C         -1.13440        0.11980        1.06140
O         -2.33440        0.06530        0.97970
C         -0.32580        1.35820        0.67730
C         -1.09520        2.22280       -0.18930
N         -1.65910        2.92240       -0.89340
C          1.00350        0.96100        0.01360
C          0.76290        0.19840       -1.29260
H          3.53080       -0.40470        1.96950
H          3.64940        1.01350        0.80010
H         -2.10290       -1.74090        2.39970
H         -0.56230       -2.51380        2.87940
H         -0.33280       -3.45980        0.58590
H         -1.86080       -2.69220        0.11110
H         -1.85240       -3.97620        1.32280
H         -0.12330        1.91230        1.60530
H          1.58030        1.86500       -0.20830
H          1.71470       -0.06450       -1.74800
H          0.20080        0.81660       -1.98930
H          0.20270       -0.71740       -1.11510
