30

C         -2.61380       -0.53850        4.10080
C         -1.32600       -0.04200        3.46380
O         -1.22890       -0.62740        2.17940
C         -0.16010       -0.33060        1.40990
C          0.86780        0.50170        1.76190
C          1.93430        0.73530        0.86940
N          2.93870        1.55470        1.22920
C          3.90210        1.73500        0.35850
C          3.90070        1.10850       -0.89770
N          2.93690        0.30400       -1.27520
C          1.93360        0.09920       -0.40230
C          0.87000       -0.75850       -0.75120
C         -0.16030       -0.97810        0.12230
O         -1.24290       -1.75790       -0.09530
C         -1.33180       -2.51800       -1.28480
C         -0.45400       -3.76540       -1.24810
H         -2.72290       -0.11220        5.09400
H         -2.59630       -1.62210        4.17600
H         -3.46470       -0.24870        3.49090
H         -0.46020       -0.33330        4.07440
H         -1.34000        1.05300        3.37660
H          0.90610        1.00250        2.71480
H          4.70510        2.39550        0.65750
H          4.70200        1.26780       -1.60710
H          0.91510       -1.21610       -1.72550
H         -1.09520       -1.89800       -2.15770
H         -2.38520       -2.80680       -1.34020
H         -0.60990       -4.34990       -2.15050
H          0.59750       -3.49920       -1.17680
H         -0.71490       -4.37160       -0.38430
