16

C          0.62640       -0.92810       -1.11220
C         -0.33330       -1.22610       -0.12840
C         -0.20110       -0.75070        1.14630
C          0.90960        0.04850        1.48240
N          1.04440        0.52050        2.74060
C          2.09300        1.25500        2.99320
C          3.05590        1.55410        2.00600
N          2.95520        1.11390        0.78170
C          1.88110        0.35020        0.48640
C          1.71510       -0.15570       -0.81810
H          0.49350       -1.31890       -2.11040
H         -1.18240       -1.83920       -0.39230
H         -0.92510       -0.96680        1.91660
H          2.19250        1.62870        4.00390
H          3.91970        2.16500        2.23320
H          2.46330        0.08530       -1.55720
