98

C         -0.75390        6.04720        4.64750
C          0.37400        5.97080        3.61630
C          0.65630        4.54040        3.25660
C         -0.06380        3.90620        2.25350
C          0.15490        2.57450        1.95220
C          1.11010        1.84500        2.64590
C          1.31190        0.35900        2.39610
C          2.76860       -0.04110        2.46990
C          3.74090        0.77550        1.90470
C          5.07160        0.40700        1.93640
C          5.46840       -0.78370        2.53170
C          6.91300       -1.19430        2.53290
C          7.25670       -1.94690        1.24600
C          4.49230       -1.60230        3.08210
C          3.15800       -1.23990        3.04920
C          0.71750       -0.10440        1.07720
C          1.16920        0.14160       -0.19910
C          0.42770       -0.38780       -1.25010
C         -0.75590       -1.12480       -1.02950
C         -1.18810       -1.40080        0.24720
C         -0.43210       -0.89340        1.29840
C         -0.59200       -1.02100        2.71810
Se        -1.79940       -1.88320        3.86030
C         -0.74170       -1.19420        5.25020
C         -0.78610       -1.27940        6.65640
C          0.23810       -0.59680        7.22800
S          1.28460        0.16950        6.08100
C          0.33060       -0.43580        4.77480
C          0.41490       -0.34980        3.37880
C         -1.38660       -1.53600       -2.34860
C         -2.66780       -0.77730       -2.65450
C         -3.49570       -1.22120       -3.67850
C         -4.62950       -0.51090       -4.02180
C         -4.96670        0.66060       -3.35590
C         -6.17500        1.45480       -3.76180
C         -5.81230        2.45380       -4.86250
C         -4.13120        1.10450       -2.34060
C         -2.99300        0.39900       -1.99440
C         -1.59190       -3.03450       -2.36290
C         -0.61720       -3.88940       -2.85670
C         -0.80150       -5.25940       -2.81840
C         -1.95430       -5.81000       -2.27590
C         -2.17290       -7.29580       -2.27310
C         -2.88350       -7.73480       -3.55490
C         -2.92300       -4.95030       -1.77440
C         -2.74560       -3.58110       -1.81390
C         -0.35740       -1.03070       -3.32720
C          0.64030       -0.34390       -2.66820
Se         1.93680        0.38070       -3.80840
C          0.92280       -0.37740       -5.19480
C          1.05590       -0.42930       -6.59710
C          0.04150       -1.12770       -7.16700
S         -1.10500       -1.73990       -6.02310
C         -0.20880       -1.04480       -4.72050
C          1.82900        2.47290        3.65570
C          1.60430        3.80300        3.95390
H         -0.96490        7.08220        4.90690
H         -1.66040        5.59620        4.25000
H         -0.47500        5.51140        5.55210
H          0.08270        6.52730        2.72300
H          1.27210        6.43370        4.03020
H         -0.80850        4.46060        1.69980
H         -0.42310        2.10200        1.17160
H          3.45470        1.71380        1.45130
H          5.81530        1.05710        1.49710
H          7.11470       -1.83800        3.39150
H          7.54850       -0.30970        2.61230
H          6.64450       -2.84150        1.15670
H          7.06940       -1.31790        0.37860
H          8.30410       -2.24000        1.24360
H          4.77840       -2.53540        3.54670
H          2.41620       -1.89580        3.48120
H          2.06220        0.71810       -0.39210
H         -2.07460       -1.98750        0.43980
H         -1.53600       -1.81800        7.20790
H          0.45530       -0.48710        8.27210
H         -3.25230       -2.13190       -4.20610
H         -5.26230       -0.87270       -4.81980
H         -6.95370        0.78290       -4.12860
H         -6.56910        1.99680       -2.89960
H         -5.04390        3.13940       -4.51220
H         -5.42990        1.93080       -5.73630
H         -6.68580        3.03110       -5.15700
H         -4.37230        2.01570       -1.81140
H         -2.35650        0.76800       -1.20350
H          0.29360       -3.48420       -3.27340
H         -0.03370       -5.91050       -3.21200
H         -2.78060       -7.57790       -1.41060
H         -1.21350       -7.81170       -2.19840
H         -2.28360       -7.48010       -4.42580
H         -3.84490       -7.23380       -3.64440
H         -3.05060       -8.80960       -3.54950
H         -3.82720       -5.35830       -1.34470
H         -3.51470       -2.92900       -1.42510
H          1.86010        0.02590       -7.14720
H         -0.11690       -1.32890       -8.20800
H          2.57130        1.91680        4.20960
H          2.17380        4.27430        4.74230
