55

C          1.34690        0.23840        5.80270
C          2.30580       -0.81860        5.26120
O          1.63520       -1.91600        4.67870
C          1.07760       -1.79440        3.43980
C          0.35450       -2.91280        3.01140
C         -0.25200       -2.94600        1.76950
C         -0.13340       -1.84610        0.94580
C          0.58900       -0.72310        1.36350
C          1.19750       -0.68530        2.60850
C          0.54710        0.27120        0.30250
C          1.10370        1.53910        0.23510
C          0.90540        2.29050       -0.91880
O          1.40530        3.53980       -1.14260
C          2.09320        4.21900       -0.11370
C          1.15450        4.79030        0.94580
C          0.15760        1.76150       -1.97620
C         -0.39700        0.49720       -1.90450
C         -0.20070       -0.24730       -0.76020
C         -0.69810       -1.63520       -0.43780
C         -0.25920       -2.68030       -1.43450
C          1.02230       -3.02240       -1.80570
C          1.19110       -4.02470       -2.75170
C          0.09590       -4.66640       -3.30990
C         -1.19460       -4.32460       -2.93870
C         -1.37050       -3.32570       -1.99550
C         -2.57610       -2.75620       -1.41430
C         -3.91520       -3.03920       -1.62670
C         -4.86540       -2.32220       -0.91720
C         -4.48840       -1.34110       -0.01260
C         -3.14790       -1.05220        0.20530
C         -2.20100       -1.76310       -0.49830
H          1.90880        1.02570        6.29810
H          0.75530        0.67480        5.00150
H          0.66790       -0.21640        6.51960
H          3.01670       -0.37590        4.55210
H          2.87550       -1.25700        6.08580
H          0.28730       -3.75320        3.68390
H         -0.80700       -3.81680        1.45370
H          1.75110        0.19200        2.90360
H          1.67850        1.91260        1.06780
H          2.85020        3.56920        0.34330
H          2.61000        5.03500       -0.62730
H          1.72540        5.35800        1.67570
H          0.61470        3.99670        1.45680
H          0.42860        5.44850        0.47490
H          0.02910        2.37440       -2.85430
H         -0.97210        0.10340       -2.72930
H          1.87480       -2.52190       -1.37030
H          2.18790       -4.30810       -3.05660
H          0.25190       -5.44350       -4.04430
H         -2.04450       -4.82730       -3.37620
H         -4.21390       -3.80240       -2.33010
H         -5.91460       -2.52970       -1.07020
H         -5.24680       -0.79510        0.52900
H         -2.85290       -0.28810        0.90970
