54

C          5.78320       -1.96920        4.87330
C          6.11810       -2.35480        3.43220
C          4.88390       -2.73680        2.68090
C          4.54370       -4.00240        2.31910
S          3.03060       -4.11930        1.47870
C          2.81950       -2.40630        1.60240
C          3.88820       -1.81660        2.27080
S          3.73290       -0.08320        2.42190
C          2.22200       -0.16430        1.57980
C          1.21240        0.69930        1.11030
C          1.10290        2.10620        1.07410
N          1.94810        3.01180        1.54040
S          1.38530        4.48280        1.16040
N          0.03780        4.02220        0.38950
C         -0.02290        2.69990        0.40170
C         -1.05520        1.86320       -0.07460
C         -2.34020        2.13920       -0.57700
S         -3.29510        3.49760       -1.01160
C         -4.61830        2.43090       -1.35510
C         -4.36790        1.10620       -1.15450
C         -5.36080        0.01030       -1.41190
C         -6.73730        0.50560       -1.83830
C         -3.02970        0.93450       -0.69940
N         -2.19390       -0.10120       -0.32090
C         -2.68190       -1.38160        0.15050
C         -3.00850       -2.37980       -0.97240
C         -0.97700        0.45650        0.04480
C          0.23100       -0.12570        0.50390
N          0.65710       -1.44380        0.54960
C          0.35870       -2.47910       -0.41530
C          1.41530       -2.53100       -1.51910
C          1.86130       -1.45910        1.20990
H          6.68770       -1.68730        5.40650
H          5.31980       -2.80580        5.39210
H          5.09520       -1.12720        4.88830
H          6.82020       -3.19040        3.42540
H          6.58570       -1.50290        2.93260
H          5.09760       -4.90400        2.49060
H         -5.53080        2.87340       -1.69860
H         -4.96200       -0.63860       -2.19710
H         -5.47170       -0.59050       -0.50470
H         -6.67570        1.06330       -2.76920
H         -7.17050        1.14600       -1.07390
H         -7.40130       -0.34250       -1.99180
H         -3.57860       -1.20080        0.75230
H         -1.92580       -1.79150        0.82250
H         -2.53370       -2.07880       -1.90390
H         -4.07750       -2.43640       -1.14980
H         -2.66440       -3.37740       -0.71150
H          0.32030       -3.44040        0.10710
H         -0.60270       -2.26980       -0.86990
H          2.39070       -2.78490       -1.11380
H          1.13990       -3.28370       -2.25280
H          1.48500       -1.56520       -2.01550
