86

C          7.25720        1.16920        3.13860
C          6.06030        2.01090        3.58660
C          4.77570        1.33400        3.25320
C          3.90400        0.70530        4.09000
C          2.80660        0.13110        3.42260
C          2.85630        0.29320        2.06470
C          1.83280       -0.12190        1.13020
N          0.61270       -0.18250        1.64060
C         -0.40890       -0.43170        0.82070
C         -0.20100       -0.56190       -0.57460
N          1.03330       -0.56550       -1.07770
C          2.05300       -0.40220       -0.25130
C          3.35940       -0.56440       -0.84750
C          4.49560       -1.13540       -0.34330
C          5.54560       -1.18190       -1.27830
C          5.21160       -0.66040       -2.49290
C          6.08000       -0.48790       -3.69170
C          6.50040        0.97400       -3.85910
S          3.56950       -0.11280       -2.50960
C         -1.32770       -0.78620       -1.40060
C         -1.38440       -1.05900       -2.77990
S         -0.31180       -1.16940       -4.13100
C         -1.66340       -1.64000       -5.13120
C         -1.77610       -1.96730       -6.50480
C         -0.61880       -1.99690       -7.45000
C          0.29190       -3.18990       -7.15830
C         -3.06140       -2.27530       -6.82100
S         -4.16370       -2.17430       -5.48500
C         -2.86900       -1.70220       -4.43710
C         -2.70870       -1.36170       -3.08440
N         -3.49180       -1.24970       -1.96060
C         -4.73700       -1.98380       -1.91720
C         -4.52140       -3.39430       -1.37110
C         -2.65570       -0.89350       -0.90980
C         -2.87660       -0.60570        0.45890
C         -1.74050       -0.45890        1.30020
C         -2.22960       -0.22890        2.59840
S         -1.61700        0.08650        4.18440
C         -3.25620        0.28450        4.75220
C         -3.80420        0.58600        6.02270
C         -2.98330        0.84700        7.24400
C         -2.26790        2.19430        7.14080
C         -5.16110        0.63750        5.95950
S         -5.80940        0.32000        4.38270
C         -4.21060        0.10790        3.75350
C         -3.61990       -0.19550        2.51610
N         -4.01530       -0.42180        1.22270
C         -5.36700       -0.11260        0.82070
C         -6.34290       -1.23810        1.15990
S          4.25830        1.21010        1.60300
H          8.18850        1.67310        3.38490
H          7.21970        1.00900        2.06330
H          7.24370        0.20030        3.63290
H          6.10500        2.17140        4.66600
H          6.10340        2.98440        3.09220
H          4.04090        0.66040        5.15620
H          2.00380       -0.39480        3.90580
H          4.56840       -1.52860        0.65540
H          6.51590       -1.59200       -1.05840
H          6.96710       -1.11520       -3.58070
H          5.54090       -0.80890       -4.58580
H          7.04840        1.31180       -2.98250
H          5.62220        1.60340       -3.98030
H          7.13630        1.08810       -4.73360
H         -0.04650       -1.07340       -7.33470
H         -0.98740       -2.05290       -8.47570
H          1.13210       -3.19910       -7.84810
H         -0.25790       -4.12230       -7.26720
H          0.67710       -3.13000       -6.14340
H         -3.45230       -2.55950       -7.77790
H         -5.10480       -2.03920       -2.94510
H         -5.48280       -1.46040       -1.32510
H         -4.11920       -3.35420       -0.36060
H         -5.46230       -3.93810       -1.35800
H         -3.81600       -3.93490       -1.99810
H         -2.23950        0.05320        7.34560
H         -3.62760        0.83510        8.12490
H         -2.99110        3.00070        7.03920
H         -1.67130        2.37270        8.03190
H         -1.61050        2.20670        6.27500
H         -5.84780        0.84370        6.75640
H         -5.37160        0.13030       -0.24290
H         -5.67550        0.78840        1.36380
H         -6.39960       -1.36320        2.23800
H         -6.02890       -2.18220        0.72360
H         -7.33460       -0.98960        0.79150
