52

C          4.72110       -2.48410        4.30760
C          4.89690       -2.35030        2.79780
N          3.67410       -1.92310        2.18270
N          2.70710       -2.76690        1.91530
C          1.74340       -2.00070        1.39990
C          2.21630       -0.66180        1.38810
N          3.44990       -0.66320        1.89850
C          1.41500        0.35200        0.82900
C          1.67220        1.70610        0.56320
S          2.93710        2.86760        0.79820
C          1.99640        4.03470       -0.09390
C          2.22670        5.37420       -0.46560
C          1.19320        5.87800       -1.18510
S         -0.09230        4.74270       -1.42960
C          0.77130        3.53710       -0.53600
C          0.57940        2.20070       -0.14660
N         -0.35830        1.21460       -0.30500
C         -1.41590        1.38830       -1.27260
C         -2.53980        2.28800       -0.75920
C          0.12560        0.06250        0.30110
C         -0.41190       -1.24420        0.47260
C          0.43460       -2.27840        0.96150
C         -0.33090       -3.45450        0.99320
S         -0.15690       -5.11650        1.45370
C         -1.84720       -5.36480        1.10080
C         -2.69410       -6.48740        1.19040
C         -3.96290       -6.18750        0.81610
S         -4.16680       -4.53420        0.34050
C         -2.49270       -4.21560        0.64670
C         -1.61680       -3.11930        0.57310
N         -1.67070       -1.78830        0.25400
C         -2.95530       -1.14790        0.09720
C         -3.59370       -1.43870       -1.26080
H          4.44400       -1.52540        4.73950
H          5.64960       -2.81880        4.76130
H          3.93990       -3.20790        4.52650
H          5.17140       -3.31380        2.36270
H          5.65450       -1.60100        2.56170
H          3.11230        5.92690       -0.21230
H          1.08920        6.85990       -1.60150
H         -0.98020        1.85760       -2.16300
H         -1.78840        0.41010       -1.56440
H         -2.17680        3.30290       -0.62520
H         -3.35130        2.30560       -1.48140
H         -2.92770        1.94320        0.19660
H         -2.37480       -7.45960        1.51700
H         -4.81710       -6.83370        0.78460
H         -2.83910       -0.08060        0.26420
H         -3.61940       -1.53690        0.87870
H         -2.92950       -1.18150       -2.08260
H         -4.51280       -0.86820       -1.36100
H         -3.83390       -2.49470       -1.34400
