42

C         -2.66010       -1.13570       -3.70390
C         -1.45900       -2.08340       -3.71820
C         -0.65220       -1.94070       -2.47490
S          0.33020       -0.55420       -2.16930
C          0.78480       -1.12220       -0.59610
C          1.72640       -0.35130        0.18290
N          2.60510        0.34270       -0.50280
C          3.60170        0.95940        0.15080
C          4.54810        1.72210       -0.55940
C          5.61110        2.25030        0.11650
F          6.52990        2.97340       -0.53790
C          5.77200        2.04380        1.50560
F          6.84150        2.57260        2.11410
C          4.85670        1.32920        2.22520
C          3.73840        0.79200        1.55990
N          2.76530        0.19000        2.25980
C          1.74700       -0.33340        1.62040
C          0.65160       -0.81410        2.43560
S         -1.01310       -0.63230        1.97740
C         -1.58530       -1.33120        3.44980
C         -3.03810       -1.46590        3.74520
C         -3.69410       -0.09820        3.94240
C         -0.53010       -1.67380        4.24350
F         -0.67810       -2.24170        5.44740
C          0.73460       -1.37120        3.68610
F          1.87940       -1.64730        4.30410
C          0.21870       -2.34890       -0.35480
F          0.43760       -3.07530        0.74840
C         -0.59780       -2.79990       -1.41410
F         -1.25740       -3.96650       -1.37740
H         -3.23250       -1.24830       -4.62020
H         -2.32460       -0.10490       -3.62440
H         -3.30810       -1.35720       -2.86000
H         -0.83440       -1.85960       -4.58470
H         -1.80330       -3.11630       -3.79330
H          4.43330        1.86520       -1.62110
H          4.96910        1.18070        3.28640
H         -3.52990       -1.98610        2.91990
H         -3.15020       -2.06690        4.64950
H         -4.75280       -0.22090        4.15300
H         -3.58350        0.50630        3.04500
H         -3.23320        0.42730        4.77520
