44

C         -2.96800       -4.73510       -4.13890
C         -2.00720       -3.67210       -4.67770
C         -1.06170       -3.22430       -3.61840
S         -1.47330       -1.94750       -2.52670
C          0.03130       -2.10850       -1.66720
C          0.36010       -1.25400       -0.54210
C          1.63590       -0.67850       -0.41980
C          2.71930       -0.72680       -1.34800
C          3.79410       -0.02550       -0.93780
S          3.57620        0.73660        0.59960
C          1.95190        0.11250        0.70810
C          1.04330        0.38900        1.72800
C          1.42480        1.23340        2.84380
C          2.61730        1.24610        3.50880
C          2.67460        2.24440        4.50440
Cl         4.05740        2.47010        5.50560
C          1.55200        3.01380        4.60030
C          1.26070        4.11930        5.55390
C          0.53170        3.59780        6.79480
S          0.37300        2.48190        3.45170
C         -0.23840       -0.17080        1.59550
C         -1.33870       -0.09330        2.50090
C         -2.41560       -0.78580        2.08060
S         -2.18000       -1.58180        0.56420
C         -0.55050       -0.97100        0.47100
C          0.79270       -3.10510       -2.20670
C          0.16340       -3.73460       -3.30170
Cl         0.89430       -5.03350       -4.16660
H         -3.64940       -5.05580       -4.92250
H         -2.41230       -5.60000       -3.78490
H         -3.54900       -4.33360       -3.31180
H         -2.57860       -2.81620       -5.04110
H         -1.43370       -4.08720       -5.50930
H          2.67020       -1.24560       -2.28730
H          4.73100        0.10210       -1.44380
H          3.41780        0.55410        3.32520
H          0.64480        4.87400        5.06100
H          2.20440        4.58040        5.85270
H          0.33710        4.41410        7.48540
H          1.13770        2.85010        7.30080
H         -0.41630        3.14490        6.51350
H         -1.31050        0.45050        3.42660
H         -3.36330       -0.89010        2.57170
H          1.74700       -3.40950       -1.81840
