33

C         -0.42650       -4.20330        2.90970
C         -0.16030       -4.15400        1.40930
O         -0.44330       -2.88560        0.84620
C          0.38730       -1.83810        1.08200
C          1.63320       -1.94080        1.68650
C          2.40180       -0.80570        1.87250
F          3.59960       -0.93180        2.47330
C          1.95600        0.43510        1.46390
F          2.72490        1.51880        1.68500
C          0.71030        0.57240        0.84230
C          0.24000        1.87000        0.38770
C         -1.04450        2.34120        0.36360
C         -1.14740        3.63420       -0.18400
C          0.05420        4.13240       -0.57810
S          1.34140        3.04290       -0.27440
C         -0.07300       -0.57640        0.65250
O         -1.31120       -0.44480        0.08280
C         -1.49120       -1.04380       -1.19540
C         -0.67240       -0.34560       -2.27570
H          0.22200       -3.51510        3.44580
H         -0.25340       -5.21060        3.27780
H         -1.45850       -3.92610        3.10830
H         -0.84320       -4.83090        0.88860
H          0.86750       -4.45910        1.17910
H          2.03340       -2.87980        2.02910
H         -1.87780        1.77790        0.73880
H         -2.07580        4.16840       -0.28010
H          0.26670        5.08210       -1.02800
H         -2.55960       -0.93220       -1.39310
H         -1.24450       -2.10980       -1.15740
H         -0.91960        0.71290       -2.30870
H          0.39200       -0.44650       -2.07120
H         -0.88730       -0.79060       -3.24330
