26

C          1.10640       -2.27180        3.49700
C          0.84250       -2.79340        2.08760
O          0.17780       -1.84690        1.27280
C          0.86470       -0.80160        0.75520
C          2.23090       -0.60440        0.85040
C          2.82580        0.50050        0.25410
F          4.15980        0.65570        0.37180
C          2.06020        1.41390       -0.43720
F          2.61820        2.49380       -1.01880
C          0.68660        1.23430       -0.54420
C          0.07690        0.13930        0.04230
O         -1.24750       -0.12770       -0.00180
C         -2.10280        0.76000       -0.69770
C         -3.51700        0.21350       -0.58860
H          0.17020       -1.95740        3.95090
H          1.78190       -1.42030        3.48010
H          1.54620       -3.05890        4.10300
H          1.77130       -3.13120        1.61210
H          0.15120       -3.63950        2.13010
H          2.87410       -1.28950        1.37650
H          0.12660        1.97250       -1.09280
H         -2.04700        1.76290       -0.25220
H         -1.80040        0.82520       -1.75200
H         -4.20850        0.86980       -1.10900
H         -3.80690        0.14290        0.45590
H         -3.56520       -0.77890       -1.02760
