30

C          0.16410       -2.42840        6.07760
C          1.14740       -1.35210        5.61270
C          0.92960       -1.01210        4.17880
C          1.64310       -1.41440        3.10490
C          1.13430       -0.93330        1.86200
C          1.62120       -1.15440        0.57740
C          0.94770       -0.57200       -0.47520
S          1.36040       -0.69930       -2.16430
C          0.00660        0.31880       -2.60960
C         -0.25130        0.60240       -4.04900
C         -0.89100       -0.60340       -4.74070
C         -0.70840        0.71900       -1.53580
C         -0.20360        0.23230       -0.29350
C         -0.69270        0.45020        0.99070
C         -0.02030       -0.13370        2.04320
S         -0.43460       -0.00850        3.73210
H         -0.85920       -2.08030        5.95660
H          0.29220       -3.33570        5.49150
H          0.33050       -2.66370        7.12580
H          1.01470       -0.45700        6.22490
H          2.17160       -1.70910        5.74060
H          2.51860       -2.03600        3.17510
H          2.49750       -1.76220        0.41570
H         -0.91510        1.46620       -4.12670
H          0.68990        0.84420       -4.54830
H         -1.06950       -0.38500       -5.79060
H         -1.83970       -0.84990       -4.26920
H         -0.23520       -1.46830       -4.67100
H         -1.57630        1.35120       -1.60500
H         -1.56970        1.05720        1.15240
