68

C          1.64500       -1.63650        3.60450
C          0.82520       -0.40900        3.23260
C          0.93960        0.05550        1.76690
C          2.37260        0.41410        1.32330
C          3.09490        1.47040        2.14940
C          0.38080       -0.94240        0.78610
C         -0.74610       -0.47950        0.17650
C         -1.02400        0.86250        0.61130
C         -2.00540        1.77890        0.23610
C         -2.00900        3.00930        0.85260
C         -1.06190        3.31910        1.85140
C         -0.07510        2.41330        2.22490
C         -0.03950        1.20200        1.57170
C         -1.35030        4.65120        2.29510
S         -0.70420        5.76040        3.43970
C         -1.89610        6.92720        2.98470
C         -2.73980        6.48680        2.00950
C         -2.42660        5.17620        1.61140
C         -2.94270        4.17330        0.62960
C         -1.27950       -1.45850       -0.83690
C         -1.29500       -0.76370       -2.21380
C         -1.73860       -1.61290       -3.39790
C         -2.62800       -2.08120       -0.42360
C         -3.80390       -1.11830       -0.33820
C         -0.22310       -2.54760       -0.74080
C         -0.17160       -3.74710       -1.41450
C          0.91890       -4.57570       -1.17430
C          1.93200       -4.21700       -0.26010
C          1.85410       -3.04190        0.45180
C          0.75930       -2.20970        0.22220
C          3.00160       -5.28000       -0.21170
C          2.48570       -6.28280       -1.19370
C          2.89220       -7.52400       -1.71170
C          1.99740       -8.00230       -2.62140
S          0.64350       -6.95590       -2.86830
C          1.28940       -5.84680       -1.72350
H          1.31810       -2.50370        3.03780
H          1.51190       -1.85330        4.66280
H          2.70490       -1.47290        3.42650
H         -0.23030       -0.62030        3.42460
H          1.11040        0.42390        3.87740
H          2.96390       -0.50250        1.32600
H          2.31490        0.75700        0.28650
H          2.60790        2.43680        2.06000
H          4.11510        1.57500        1.78430
H          3.14030        1.19240        3.19910
H         -2.74000        1.54260       -0.51800
H          0.62600        2.67500        3.00200
H         -1.89510        7.87980        3.47640
H         -3.53990        7.08060        1.60480
H         -2.88740        4.53990       -0.39830
H         -3.98200        3.90010        0.82760
H         -1.94450        0.10960       -2.14160
H         -0.28240       -0.39710       -2.40340
H         -1.78000       -0.99020       -4.28980
H         -2.72690       -2.03550       -3.23670
H         -1.03560       -2.41880       -3.58610
H         -2.48390       -2.54720        0.55500
H         -2.86570       -2.87880       -1.12930
H         -3.98300       -0.62730       -1.29140
H         -3.62910       -0.36410        0.42390
H         -4.70360       -1.66900       -0.07000
H         -0.93670       -4.05640       -2.10940
H          2.62510       -2.77850        1.15910
H          3.10600       -5.70150        0.79100
H          3.97570       -4.88170       -0.50600
H          3.79280       -8.04320       -1.43600
H          2.04470       -8.91900       -3.17520
