72

C          2.91400        0.27980       -1.50990
C          1.80060        1.14530       -0.93650
C          1.14750        0.63410        0.36920
C          2.12860        0.65980        1.54800
C          1.47400        0.20670        2.84760
C          0.48190       -0.70140        0.18760
C         -0.87520       -0.59980        0.21990
C         -1.26710        0.76740        0.43550
C         -2.51000        1.37570        0.47980
C         -2.53470        2.73820        0.74390
C         -1.33740        3.48280        0.95540
C         -0.08950        2.85980        0.86490
C         -0.06850        1.51650        0.60250
C         -1.76970        4.80480        1.20710
S         -1.13150        6.36910        1.56270
C         -2.73740        7.01810        1.61450
C         -3.71590        6.10430        1.37510
C         -3.16300        4.82860        1.14010
N         -3.62440        3.57170        0.85230
C         -4.99460        3.17210        0.70990
C         -1.54080       -1.93490        0.03470
C         -2.50880       -1.95810       -1.15530
C         -1.83760       -1.51070       -2.44850
C         -2.20870       -2.44640        1.33250
C         -3.33220       -1.58450        1.89140
C         -0.32400       -2.81880       -0.18960
C         -0.30250       -4.16410       -0.44150
C          0.94570       -4.78700       -0.52900
C          1.37790       -6.11140       -0.76770
S          0.73940       -7.68010       -1.10320
C          2.34570       -8.32840       -1.15490
C          3.32440       -7.41120       -0.93010
C          2.77150       -6.13340       -0.70650
N          3.23340       -4.87140       -0.44240
C          4.60300       -4.47410       -0.28750
C          2.14310       -4.03950       -0.32900
C          2.11760       -2.67600       -0.07070
C          0.87430       -2.06860       -0.02670
H          3.73300        0.16950       -0.80370
H          3.30850        0.74900       -2.40910
H          2.53790       -0.70380       -1.77630
H          1.01120        1.23680       -1.68720
H          2.18820        2.14840       -0.74390
H          2.97470        0.00700        1.32950
H          2.50970        1.67660        1.66650
H          1.12490       -0.81980        2.76000
H          2.18540        0.26130        3.66890
H          0.62180        0.83960        3.08500
H         -3.42040        0.82400        0.31090
H          0.81300        3.43680        1.00050
H         -2.85720        8.06240        1.82500
H         -4.76420        6.34340        1.37160
H         -5.28440        2.48070        1.50680
H         -5.15030        2.67970       -0.25310
H         -5.63070        4.05290        0.76020
H         -3.35390       -1.30050       -0.94750
H         -2.89350       -2.97330       -1.27640
H         -0.98820       -2.15040       -2.67750
H         -2.54110       -1.55960       -3.27690
H         -1.48110       -0.48700       -2.35770
H         -2.59100       -3.45070        1.13570
H         -1.42850       -2.53500        2.09300
H         -3.73750       -2.05580        2.78480
H         -4.14200       -1.47590        1.17430
H         -2.96250       -0.60010        2.16400
H         -1.20480       -4.74280       -0.57080
H          2.46540       -9.37500       -1.35320
H          4.37290       -7.64980       -0.92670
H          4.83620       -3.64100       -0.95520
H          4.80550       -4.16410        0.74190
H          5.24860       -5.31360       -0.53480
H          3.02750       -2.12290        0.09670
