18

C          0.03200       -2.99250       -0.12050
C          0.41370       -1.78570        0.29400
C         -0.43790       -0.81680        1.04260
O         -1.58400       -0.96870        1.38480
C          0.42590        0.36720        1.27370
C          0.12190        1.54960        1.92330
C          1.10790        2.52470        2.01500
Cl         0.76370        4.00380        2.81480
C          2.37890        2.31280        1.46170
Cl         3.57750        3.53460        1.58980
C          2.68020        1.12300        0.80960
C          1.69620        0.15550        0.72070
C          1.76200       -1.18360        0.08490
O          2.70200       -1.68330       -0.48110
H         -0.96530       -3.35370        0.07230
H          0.71220       -3.63340       -0.65800
H         -0.85630        1.71120        2.34850
H          3.65750        0.95860        0.38350
