25

C         -2.48540       -0.92620        3.11290
C         -1.39720       -0.89580        2.34130
C         -0.45040       -2.05800        2.26930
O         -0.55600       -3.10110        2.86930
C          0.60160       -1.64810        1.32850
C          1.71440       -2.35290        0.90590
C          2.57320       -1.75070        0.00250
C          2.33400       -0.46300       -0.47940
C          3.26670        0.15210       -1.47260
C          1.21180        0.24140       -0.05070
C          0.34170       -0.34730        0.85430
C         -0.88590        0.15490        1.45880
C         -1.45520        1.37570        1.24490
C         -2.65400        1.81830        1.84820
N         -3.61810        2.24070        2.30400
C         -0.92390        2.36590        0.38810
N         -0.54330        3.20930       -0.29030
H         -2.67740       -1.81440        3.69440
H         -3.18980       -0.11760        3.19530
H          1.89690       -3.34790        1.28130
H          3.44840       -2.28340       -0.33960
H          3.21040        1.23700       -1.44040
H          4.29220       -0.15940       -1.28840
H          2.99500       -0.16970       -2.47850
H          1.03580        1.23580       -0.42890
