124

C          2.21730        1.58590       -8.57580
C          2.54910        0.66930       -7.39670
C          1.98370        1.22790       -6.12240
C          0.65110        1.01900       -5.78790
C          0.11200        1.58110       -4.64910
C          0.89180        2.36180       -3.80090
C          0.21110        2.99460       -2.60080
C          1.12710        3.79940       -1.69360
C          1.81810        4.89410       -2.20390
C          2.64270        5.65400       -1.39730
C          2.79180        5.35960       -0.04840
C          3.73160        6.14900        0.81620
C          5.13150        5.53190        0.78010
C          2.07990        4.28670        0.46630
C          1.25700        3.52010       -0.34000
C         -0.88630        3.93460       -3.07830
C         -0.99020        5.06220       -3.90760
C         -2.27110        5.52620       -3.96590
S         -3.38420        4.60500       -3.01820
C         -2.10400        3.56800       -2.53500
C         -1.93100        2.38970       -1.75950
S         -2.95310        1.37720       -0.80660
C         -1.57020        0.36250       -0.44360
C         -1.65220       -0.73260        0.40130
C         -2.96730       -1.09200        0.93430
C         -3.57480       -0.71970        2.09140
C         -4.92280       -1.13270        2.16310
C         -5.34640       -1.80380        1.05840
C         -6.70650       -2.36240        0.79340
C         -6.88660       -2.82660       -0.64550
S         -4.06840       -1.95610       -0.09800
C         -0.47180       -1.45250        0.63610
C         -0.19930       -2.55620        1.48430
C          1.09400       -3.01460        1.35340
S          2.06250       -2.13260        0.22950
C          0.69660       -1.07910       -0.08580
C          0.77570        0.00970       -0.93920
C          2.02960        0.22660       -1.66220
C          3.10210        0.99600       -1.34130
C          4.19550        0.81290       -2.21730
C          3.95960       -0.10030       -3.19460
C          4.88490       -0.59750       -4.25110
C          5.45690       -1.96700       -3.87880
S          2.36400       -0.75980       -3.05680
C         -0.37740        0.79410       -1.08970
C         -0.61350        1.98840       -1.81830
C          1.28930       -4.13480        2.20610
S          2.52460       -5.27350        2.55990
C          1.45250       -6.09030        3.64120
C          0.21920       -5.51490        3.72500
C          0.12080       -4.38120        2.90340
C         -0.92880       -3.33150        2.56630
C         -1.13820       -2.48890        3.81440
C         -1.59810       -3.08780        4.98320
C         -1.77610       -2.35140        6.13830
C         -1.48860       -0.99340        6.17140
C         -1.63850       -0.20040        7.43740
C         -0.32780       -0.20360        8.22660
C         -1.00420       -0.40240        5.01410
C         -0.82880       -1.13620        3.85410
C         -2.17540       -4.02060        2.04220
C         -2.05890       -4.77150        0.87650
C         -3.13430       -5.48010        0.38060
C         -4.35640       -5.47390        1.04140
C         -5.50470       -6.30410        0.54370
C         -5.44150       -7.71250        1.13830
C         -4.46980       -4.71930        2.19880
C         -3.40070       -3.99030        2.68900
C          2.22630        2.55380       -4.12040
C          2.75910        1.99990       -5.27160
H          1.13990        1.68760       -8.68490
H          2.63880        2.57560       -8.41370
H          2.62410        1.18200       -9.50010
H          2.13070       -0.32230       -7.58290
H          3.63390        0.57400       -7.31300
H          0.02910        0.41030       -6.42840
H         -0.92850        1.41320       -4.41020
H          1.71370        5.15740       -3.24500
H          3.17430        6.49440       -1.82150
H          3.78360        7.18080        0.46300
H          3.36880        6.15770        1.84610
H          5.81530        6.09880        1.40780
H          5.51630        5.52720       -0.23740
H          5.10120        4.50520        1.13850
H          2.16640        4.04340        1.51630
H          0.71750        2.69710        0.10200
H         -0.18200        5.51180       -4.45450
H         -2.64150        6.36510       -4.52080
H         -3.08070       -0.16230        2.86670
H         -5.55820       -0.92480        3.00630
H         -6.88410       -3.20380        1.47050
H         -7.44980       -1.59520        1.03140
H         -6.73680       -1.99720       -1.33280
H         -6.16340       -3.60370       -0.88310
H         -7.88780       -3.22470       -0.79380
H          3.11580        1.67100       -0.50470
H          5.12570        1.34430       -2.11720
H          5.69950        0.11960       -4.37550
H          4.34660       -0.67950       -5.19800
H          6.13530       -2.31800       -4.65270
H          6.00010       -1.90650       -2.93850
H          4.65220       -2.68940       -3.76480
H          1.80610       -6.96370        4.15220
H         -0.56900       -5.91270        4.33750
H         -1.82280       -4.14300        4.99370
H         -2.14330       -2.84070        7.02970
H         -1.91180        0.82970        7.19880
H         -2.43100       -0.63060        8.05320
H         -0.43340        0.37040        9.14440
H         -0.04400       -1.22180        8.48340
H          0.47170        0.23360        7.63260
H         -0.76130        0.65120        5.01470
H         -0.44780       -0.63660        2.97740
H         -1.11300       -4.79940        0.35440
H         -3.02250       -6.05150       -0.52990
H         -6.45150       -5.83870        0.82520
H         -5.46780       -6.37260       -0.54560
H         -4.50960       -8.19920        0.85920
H         -6.27100       -8.31670        0.77810
H         -5.49050       -7.66670        2.22420
H         -5.40910       -4.69730        2.73380
H         -3.53770       -3.39110        3.57550
H          2.86870        3.12520       -3.46870
H          3.80100        2.17020       -5.50390
