23

C         -1.87990       -2.09070        2.68270
C         -1.03900       -0.91230        3.16100
N         -0.27720       -0.34110        2.07070
C          0.98970       -0.78100        1.71770
O          1.60900       -1.63890        2.29250
C          1.37540        0.02420        0.53310
C          2.52190       -0.01500       -0.20520
C          2.58580        0.88130       -1.29200
N          3.58930        1.02640       -2.15630
S          3.20090        2.16480       -3.21760
N          1.74840        2.54010       -2.64980
C          1.49150        1.78110       -1.58530
C          0.32420        1.79220       -0.79430
C          0.29990        0.90860        0.24470
C         -0.76540        0.66220        1.24730
O         -1.83810        1.19550        1.36850
H         -2.57830       -1.76620        1.91470
H         -1.23840       -2.86800        2.27380
H         -2.44230       -2.50320        3.51540
H         -0.32640       -1.23670        3.92290
H         -1.68060       -0.12310        3.55990
H          3.33610       -0.68540        0.01540
H         -0.49170        2.46200       -1.01060
