30

C         -3.31360       -1.17990       -0.30930
C         -2.05800       -1.23110       -1.18500
C         -0.83370       -1.29980       -0.34600
S         -0.10410       -2.83280       -0.00820
C          1.11950       -2.11440        0.98000
C          2.16970       -2.93220        1.63880
C          2.05200       -4.42050        1.34520
C          0.96350       -0.75060        1.04120
C         -0.16270       -0.28210        0.28390
C         -0.52770        1.13360        0.18390
O         -1.48440        1.55370       -0.44310
C          0.38310        2.01850        0.92560
C          0.26120        3.37730        0.98320
S          1.48130        4.09980        1.94470
C          2.17550        2.57020        2.28560
C          1.49860        1.54860        1.68450
C          1.85970        0.12760        1.79210
O          2.81300       -0.26760        2.44200
H         -3.30650       -0.27490        0.29210
H         -3.35770       -2.04430        0.35010
H         -4.20070       -1.17170       -0.93640
H         -2.10120       -2.10390       -1.83950
H         -2.02000       -0.32450       -1.79220
H          3.14740       -2.55620        1.32030
H          2.12030       -2.75110        2.71730
H          1.09410       -4.80480        1.69020
H          2.13210       -4.60820        0.27630
H          2.84440       -4.96560        1.85120
H         -0.48690        3.97880        0.50580
H          3.04460        2.49110        2.90840
