52

C          1.78040       -4.93310        6.82220
C          2.12860       -5.40010        5.41480
N          1.68940       -4.43020        4.41610
C          2.57950       -3.42570        4.07840
O          3.68190       -3.37110        4.58440
C          2.11830       -2.44830        3.07840
C          2.96200       -1.42840        2.68440
C          2.54260       -0.48810        1.75510
C          1.27610       -0.53720        1.18320
C          0.81550        0.45990        0.23030
C          1.57020        1.58210       -0.09280
C          1.13420        2.51280       -1.02420
C         -0.07440        2.34340       -1.67070
C         -0.87770        1.22870       -1.36230
C         -2.10960        1.05920       -2.02310
C         -2.89870       -0.03430       -1.72460
C         -2.49880       -0.94820       -0.76090
C         -1.29830       -0.80990       -0.07310
C         -0.88390       -1.74440        0.96080
C         -1.70450       -2.77750        1.40000
C         -1.28800       -3.68170        2.36570
C         -0.02520       -3.58600        2.91660
C          0.83230       -2.54460        2.51290
C          0.40400       -1.59970        1.54410
C          0.40430       -4.57190        3.92220
O         -0.31590       -5.47250        4.30270
C         -0.44930        0.28390       -0.39350
C         -2.56600        2.02950       -3.03200
O         -3.61530        1.90460       -3.63010
N         -1.73720        3.11290       -3.26580
C         -2.17640        4.08280       -4.26450
C         -1.68680        3.69780       -5.65450
C         -0.50930        3.33590       -2.66750
O          0.15930        4.30780       -2.95550
H          2.26940       -3.98520        7.03480
H          2.11700       -5.67020        7.54560
H          0.70430       -4.81110        6.92150
H          3.20900       -5.51070        5.30760
H          1.62840       -6.34450        5.19330
H          3.94920       -1.37590        3.11820
H          3.23540        0.28980        1.47920
H          2.52010        1.75630        0.38510
H          1.73240        3.37910       -1.26290
H         -3.83370       -0.15720       -2.24990
H         -3.14960       -1.78280       -0.55910
H         -2.69640       -2.89490        0.99600
H         -1.93830       -4.47760        2.69590
H         -1.77180        5.05410       -3.97460
H         -3.26720        4.10520       -4.23870
H         -0.59990        3.66320       -5.67320
H         -2.02570        4.43360       -6.37810
H         -2.08100        2.72380       -5.93470
