45

C          1.58490        0.66780        3.39390
C          1.69180       -0.58430        2.52260
N          1.84860       -0.23410        1.12690
C          2.97530        0.45850        0.75160
C          4.30380        0.61130        1.17780
O          5.08860        0.13560        2.16390
C          6.30570        0.70650        1.97680
C          6.32830        1.53940        0.89850
C          5.02100        1.48820        0.36360
S          4.07780        2.15290       -0.93930
C          2.71310        1.23810       -0.37500
C          1.35560        1.04520       -0.70160
C          0.50860        1.65940       -1.65030
N          0.81080        2.58610       -2.54560
S         -0.54330        3.01040       -3.32460
N         -1.57110        2.02450       -2.55390
C         -0.89160        1.32530       -1.65880
C         -1.35590        0.29230       -0.81480
C         -2.59410       -0.37200       -0.72730
S         -4.17970       -0.27240       -1.42910
C         -4.62660       -1.69800       -0.53770
C         -5.73520       -2.55200       -0.33780
C         -5.30340       -3.49740        0.54280
O         -4.01150       -3.30580        0.91410
C         -3.59630       -2.20620        0.25360
C         -2.42330       -1.44080        0.15490
N         -1.13930       -1.44990        0.63940
C         -0.58820       -2.66060        1.20820
C         -1.14160       -2.93870        2.60460
C         -0.47440       -0.37990        0.07050
C          0.84800        0.10290        0.22790
H          2.48660        1.26970        3.31500
H          1.44710        0.38310        4.43360
H          0.73600        1.27180        3.07910
H          2.56580       -1.17120        2.82040
H          0.79550       -1.18040        2.65650
H          7.07090        0.43950        2.67770
H          7.16100        2.10710        0.54000
H         -6.70660       -2.47890       -0.78000
H         -5.80340       -4.34080        0.97490
H         -0.86260       -3.49710        0.55360
H          0.50010       -2.58850        1.20750
H         -2.20610       -3.14720        2.54580
H         -0.64260       -3.80420        3.03220
H         -0.99950       -2.08800        3.26800
