10

C         -0.13580       -1.15010        2.52660
N         -0.14140       -1.51630        1.29630
C          1.11010       -1.49760        0.80560
S          1.80710       -1.86070       -0.72480
C          3.36040       -1.44920       -0.02700
N          3.36600       -1.08290        1.20330
C          2.11450       -1.10160        1.69400
S          1.41750       -0.73850        3.22430
H         -1.02420       -1.08990        3.12220
H          4.24890       -1.50940       -0.62270
