19

C          0.75540        2.28190        2.47410
C          0.81290        0.78830        2.77530
N          0.83420        0.01050        1.55440
C          2.01450       -0.32870        0.89900
O          3.12050       -0.05630        1.28760
C          1.57620       -1.06420       -0.30200
C          2.12750       -1.68070       -1.37570
S          0.89660       -2.33710       -2.39470
C         -0.36670       -1.77360       -1.35990
C          0.15080       -1.11730       -0.29300
C         -0.32580       -0.41580        0.91380
O         -1.44410       -0.22630        1.31640
H          0.74030        2.84470        3.40300
H          1.62700        2.58190        1.89680
H         -0.14330        2.51600        1.90800
H         -0.06750        0.48000        3.34400
H          1.72100        0.54660        3.33270
H          3.15990       -1.79460       -1.63870
H         -1.39100       -1.96410       -1.60990
