22

C         -1.46010       -0.34970        3.40700
C         -0.71420       -0.38270        2.30060
C         -0.66600       -1.59780        1.42330
O         -1.24880       -2.63760        1.60800
C          0.23270       -1.24300        0.31070
C          0.60280       -2.01090       -0.77970
C          1.46290       -1.46330       -1.71590
C          1.93290       -0.16570       -1.54220
Br         3.10800        0.56390       -2.84260
C          1.57350        0.61890       -0.45440
C          0.71120        0.07010        0.48340
C          0.15350        0.63700        1.70780
C          0.39670        1.88100        2.20710
C         -0.17940        2.39470        3.39200
N         -0.61720        2.87090        4.33870
C          1.25860        2.82810        1.60710
N          1.94760        3.63150        1.16590
H         -2.03310       -1.22650        3.66520
H         -1.53010        0.49990        4.06280
H          0.22180       -3.01430       -0.88890
H          1.77120       -2.03210       -2.57940
H          1.96210        1.62000       -0.36010
