20

C          1.04220        2.62880        2.44620
C          2.05660        1.58010        1.99960
N          1.41150        0.55780        1.22550
N          0.89580       -0.49750        1.79200
C          0.35540       -1.18470        0.77160
C         -0.33720       -2.39990        0.72590
C         -0.76100       -2.83040       -0.50270
C         -0.51700       -2.09340       -1.67940
C          0.15850       -0.90270       -1.66460
C          0.60290       -0.43720       -0.42190
N          1.28140        0.66710       -0.06740
H          1.53810        3.39840        3.03100
H          0.57630        3.09120        1.57930
H          0.27000        2.16620        3.05610
H          2.82410        2.03450        1.37020
H          2.51390        1.09780        2.86560
H         -0.52100       -2.95950        1.62910
H         -1.30000       -3.76300       -0.58420
H         -0.87840       -2.48980       -2.61710
H          0.34800       -0.33480       -2.56140
