28

C         -2.97220       -1.77490        3.81600
C         -1.92300       -0.68740        4.02850
N         -1.06350       -0.58440        2.88450
N          0.02470       -1.30440        2.77850
C          0.52180       -0.96870        1.57990
C          1.67190       -1.39360        0.89980
C          1.91390       -0.85050       -0.33420
O          2.97960       -1.15270       -1.12350
C          3.90880       -2.09280       -0.64750
C          1.02320        0.12230       -0.91570
O          1.41670        0.55440       -2.14390
C          0.61510        1.50490       -2.79800
C         -0.10210        0.54420       -0.25850
C         -0.35880       -0.00690        1.00490
N         -1.35380        0.20130        1.87840
H         -3.58020       -1.54150        2.94540
H         -3.61710       -1.84450        4.68740
H         -2.48730       -2.73530        3.65900
H         -1.29620       -0.92510        4.89020
H         -2.40260        0.28340        4.16780
H          2.32010       -2.12080        1.35760
H          4.66390       -2.18170       -1.42690
H          3.44280       -3.06980       -0.48030
H          4.38280       -1.75570        0.28050
H          0.54580        2.43550       -2.22480
H          1.10810        1.70230       -3.74860
H         -0.39320        1.12040       -2.98500
H         -0.78340        1.26930       -0.66890
