8

C          0.65160       -0.63720        2.13240
C          1.59210       -1.58760        2.12250
C          1.84390       -2.40060        0.98380
N          2.04350       -3.05260        0.06510
C          2.41490       -1.86040        3.24920
N          3.07920       -2.07780        4.15500
H          0.47980       -0.03320        3.00770
H          0.04160       -0.44850        1.26470
