44

C         -0.65950       -5.53220       -4.27320
C         -1.83910       -5.21740       -3.35080
C         -1.71150       -3.85780       -2.75500
C         -2.40070       -2.72650       -3.06380
C         -1.99700       -1.60090       -2.31810
C         -0.97970       -1.86500       -1.44600
C         -0.35690       -0.95630       -0.50250
C          1.02990       -0.91750       -0.28270
C          2.05100       -1.68100       -0.92470
C          3.28530       -1.40390       -0.46180
S          3.30480       -0.19190        0.77270
C          1.57100       -0.02820        0.67360
C          0.79700        0.83050        1.45000
C          1.41180        1.68440        2.44850
C          2.56200        2.41210        2.33700
C          2.90840        3.09530        3.52000
C          2.03570        2.88670        4.54230
C          2.10330        3.39340        5.94180
C          2.59740        2.30540        6.89750
S          0.74860        1.83470        4.05250
C         -0.58830        0.80210        1.21980
C         -1.60660        1.58240        1.84580
C         -2.84300        1.29140        1.39760
S         -2.86520        0.06400        0.17840
C         -1.12810       -0.07630        0.25290
S         -0.52160       -3.54350       -1.53450
H         -0.77380       -6.52150       -4.70920
H         -0.60270       -4.80130       -5.07690
H          0.27290       -5.50390       -3.71340
H         -2.77220       -5.26590       -3.91620
H         -1.88080       -5.96610       -2.55560
H         -3.18260       -2.69630       -3.80200
H         -2.42260       -0.62200       -2.44660
H          1.85790       -2.39760       -1.70130
H          4.21860       -1.83120       -0.77240
H          3.12730        2.48270        1.42530
H          3.77710        3.72390        3.60630
H          1.11400        3.72850        6.26200
H          2.78270        4.24760        5.97460
H          1.91860        1.45620        6.88320
H          3.58550        1.96250        6.60010
H          2.65230        2.69040        7.91270
H         -1.40850        2.32970        2.59170
H         -3.77480        1.72940        1.69770
