28

C         -3.15080       -3.07120        1.72770
C         -2.10250       -2.30960        1.40850
C         -0.70880       -2.68050        1.82140
O         -0.38780       -3.65860        2.44840
C          0.15450       -1.60270        1.30080
C          1.52210       -1.46110        1.41690
C          2.12360       -0.34100        0.84410
C          3.59980       -0.19370        0.97980
O          4.30720       -0.99980        1.52810
O          4.05390        0.93690        0.42750
C          5.45540        1.15200        0.52100
C          1.35140        0.60560        0.16970
C         -0.02120        0.46200        0.05100
C         -0.63030       -0.64980        0.62040
C         -2.03150       -1.05300        0.66020
C         -3.08180       -0.38720        0.10110
C         -4.42820       -0.81350        0.16920
N         -5.53920       -1.09710        0.19310
C         -2.96970        0.81890       -0.62790
N         -2.94450        1.79390       -1.23080
H         -2.97570       -3.97240        2.29460
H         -4.16680       -2.84490        1.45700
H          2.12070       -2.19280        1.93800
H          5.77160        1.13830        1.56590
H          5.99490        0.37090       -0.01840
H          5.64370        2.12500        0.07520
H          1.83900        1.46380       -0.26510
H         -0.59360        1.20870       -0.47480
