28

C         -2.29370       -3.00520        3.04740
C         -1.42020       -2.23700        2.39290
C         -0.11370       -1.83530        3.01040
O          0.27380       -2.13300        4.11520
C          0.57090       -1.02190        1.99450
C          1.80010       -0.42990        2.06260
C          2.27430        0.30780        0.95610
C          3.53570        0.93550        0.96810
C          3.97540        1.64210       -0.11800
C          3.17330        1.75310       -1.26440
C          1.94300        1.15700       -1.30850
C          1.45840        0.42010       -0.20760
C          0.19070       -0.20050       -0.25040
C         -0.25160       -0.91520        0.83410
C         -1.48820       -1.65140        1.05290
C         -2.52300       -1.77420        0.17130
C         -3.70340       -2.50910        0.41720
N         -4.68270       -3.09180        0.55060
C         -2.55180       -1.18060       -1.11030
N         -2.63380       -0.72270       -2.15910
H         -3.23890       -3.32280        2.64460
H         -2.04180       -3.33360        4.04380
H          2.40370       -0.52660        2.95270
H          4.14970        0.84740        1.85250
H          4.94400        2.11900       -0.10010
H          3.53580        2.31390       -2.11270
H          1.32170        1.23970       -2.18820
H         -0.40220       -0.09750       -1.14520
