52

C          4.51730       -1.91160        7.07510
C          5.66050       -2.38460        6.19840
S          5.14190       -3.69730        5.03670
C          3.94660       -2.90540        4.00120
C          3.92580       -1.53920        3.75370
C          2.95510       -1.00300        2.93060
C          2.00220       -1.81530        2.32270
C          0.97650       -1.23210        1.44850
C          0.16700       -0.17010        1.87380
C          0.12550        0.44850        3.16030
C         -0.80200        1.42210        3.24520
S         -1.69280        1.66390        1.78000
C         -0.79250        0.38870        0.99740
C         -1.00100       -0.07170       -0.29530
C         -2.02660        0.51150       -1.16950
C         -2.07590        1.88520       -1.39720
C         -3.03110        2.42340       -2.23250
C         -3.97110        1.60170       -2.84790
S         -5.16640        2.39360       -3.88330
C         -5.68490        1.08100       -5.04520
C         -4.54170        0.60820       -5.92190
C         -3.95030        0.23550       -2.60060
C         -2.97960       -0.30080       -1.77740
C         -0.19150       -1.13370       -0.72060
C         -0.15000       -1.75230       -2.00710
C          0.77750       -2.72590       -2.09200
S          1.66830       -2.96770       -0.62670
C          0.76800       -1.69250        0.15580
C          2.05140       -3.18900        2.55040
C          3.00660       -3.72710        3.38580
H          4.10700       -2.74530        7.64000
H          3.72020       -1.47960        6.47310
H          4.87350       -1.15700        7.77390
H          6.43860       -2.86140        6.79420
H          6.10930       -1.57080        5.62980
H          4.66500       -0.88430        4.18830
H          2.95180        0.05970        2.73490
H          0.75730        0.15110        3.97770
H         -1.03690        2.03720        4.09200
H         -1.34280        2.53020       -0.93680
H         -3.05920        3.48560       -2.42070
H         -6.13360        0.26710       -4.47680
H         -6.46300        1.55790       -5.64100
H         -4.13140        1.44200       -6.48670
H         -4.89770       -0.14640       -6.62090
H         -3.74450        0.17620       -5.31990
H         -4.68950       -0.41940       -3.03520
H         -2.97630       -1.36350       -1.58180
H         -0.78190       -1.45490       -2.82450
H          1.01240       -3.34110       -2.93880
H          1.31830       -3.83410        2.09010
H          3.03470       -4.78940        3.57410
