9

F          1.29350       -1.82380        3.86620
C          1.47340       -1.32380        2.63420
C          0.73310       -1.77290        1.51590
C          1.10030       -1.11320        0.38950
S          2.33630        0.04540        0.68350
C          2.37610       -0.34870        2.35300
H         -0.01870       -2.53790        1.56890
H          0.72000       -1.23480       -0.60450
H          3.04780        0.14860        3.02210
