22

C          1.44340       -0.53780        3.80300
C          1.06930       -0.45520        2.52440
C          1.39360       -1.54280        1.54630
O          1.98330       -2.56500        1.78830
C          0.83970       -1.08480        0.25610
C          0.21740        0.16970        0.42170
C         -0.37460        0.79770       -0.66580
C         -0.33540        0.16850       -1.89930
C          0.27950       -1.06580       -2.05950
Br         0.30070       -1.86710       -3.76790
C          0.88100       -1.71940       -0.97760
Cl         1.63910       -3.23940       -1.16760
C          0.33580        0.59110        1.81200
C         -0.14730        1.74680        2.35040
C          0.00120        2.12080        3.70580
N          0.09010        2.48570        4.78930
C         -0.86180        2.72950        1.62770
N         -1.44750        3.55900        1.09490
H          1.98650       -1.41330        4.12310
H          1.23920        0.21720        4.54090
H         -0.85840        1.75540       -0.57280
H         -0.78820        0.64150       -2.75710
