22

C          1.42950        1.46250        3.50530
C          0.99030        0.67630        2.52260
C          1.31430       -0.78520        2.47360
O          1.80720       -1.43690        3.35640
C          0.93890       -1.21630        1.10990
C          1.16200       -2.44310        0.50460
Cl         1.82430       -3.75220        1.37200
C          0.83750       -2.58190       -0.85280
Cl         1.06810       -4.08260       -1.63400
C          0.36490       -1.48570       -1.57680
Cl         0.06540       -1.65640       -3.25030
C          0.14440       -0.24390       -0.96010
Cl        -0.27930        1.09450       -1.94330
C          0.37230       -0.12880        0.40760
C          0.20380        0.98990        1.32570
C         -0.67160        2.03030        1.23620
C         -0.75770        3.05120        2.21400
N         -0.86680        3.91550        2.95890
C         -1.70260        2.18560        0.28030
N         -2.62420        2.35490       -0.38020
H          1.99660        1.01900        4.30840
H          1.26930        2.52560        3.53820
