28

C          0.81590       -4.76160        1.34390
C          0.72940       -3.43740        1.19730
C          1.71620       -2.51310        1.84410
O          2.65830       -2.83530        2.52560
C          1.28740       -1.15300        1.47220
C          1.84990        0.04180        1.82270
C          1.26680        1.24000        1.35770
C          1.80490        2.49790        1.69420
C          1.21760        3.64210        1.23300
F          1.72850        4.83680        1.55430
C          0.06890        3.58040        0.41610
F         -0.48410        4.71860       -0.01930
C         -0.47540        2.37590        0.07160
C          0.10590        1.17600        0.53190
C         -0.45290       -0.07290        0.18410
C          0.12760       -1.22680        0.64830
C         -0.23820       -2.62500        0.45780
C         -1.28970       -3.09060       -0.27540
C         -1.61970       -4.45610       -0.42680
N         -1.94370       -5.54470       -0.58520
C         -2.19280       -2.26600       -0.98410
N         -2.95300       -1.64620       -1.57870
H          0.13030       -5.46370        0.90400
H          1.62120       -5.15980        1.94130
H          2.72840        0.06860        2.44900
H          2.68250        2.56330        2.31800
H         -1.35380        2.34570       -0.55390
H         -1.33080       -0.08770       -0.44100
