19

C         -0.44980        0.70470        3.94740
C          0.75800        0.15820        3.67750
C          0.97190       -0.01610        2.28670
C          2.09680       -0.54970        1.60720
N          3.21840       -1.01190        2.14110
S          4.19280       -1.50880        0.95230
N          3.22960       -1.15750       -0.29610
C          2.10340       -0.63560        0.16870
C          0.98510       -0.18720       -0.57970
C          0.78400       -0.17980       -1.98320
C         -0.42100        0.32990       -2.32730
S         -1.36550        0.82360       -0.96680
C         -0.10830        0.33370        0.11840
C         -0.11480        0.41750        1.52160
S         -1.38150        1.03240        2.52930
H         -0.87020        0.94470        4.90370
H          1.48470       -0.11840        4.41860
H          1.51730       -0.54230       -2.67950
H         -0.83250        0.45420       -3.30920
