57

C          7.76080       -0.57470        2.06300
C          7.58920       -0.36650        0.55830
C          6.38790       -1.09740        0.05240
C          6.41410       -2.21420       -0.72190
S          4.84620       -2.84110       -1.11660
C          4.09780       -1.56990       -0.21170
C          5.05310       -0.72650        0.34780
S          4.36030        0.58920        1.26480
C          2.78130       -0.00910        0.88790
C          1.43240        0.33080        1.10240
C          0.85680        1.46970        1.71180
N          1.50520        2.46290        2.28880
Se         0.33340        3.67560        2.80740
N         -1.03320        2.74110        2.19680
C         -0.57590        1.62450        1.66410
C         -1.34800        0.56880        1.12670
C         -2.74050        0.37260        1.10430
S         -4.18740        1.20690        1.55550
C         -5.11460       -0.20190        1.10100
C         -6.50020       -0.49280        1.13480
C         -7.54590        0.47590        1.58350
C         -7.72060        1.60150        0.56390
C         -6.73580       -1.75270        0.68200
S         -5.30770       -2.61530        0.21100
C         -4.32970       -1.24830        0.62450
C         -2.96550       -0.91460        0.61790
N         -1.77070       -1.51240        0.31630
C         -1.71750       -2.93790        0.09440
C         -2.12690       -3.31280       -1.32960
C         -0.76090       -0.61280        0.59930
C          0.65300       -0.67190        0.46810
N          1.50820       -1.57630       -0.14630
C          1.28020       -2.39340       -1.31820
C          1.09100       -1.52410       -2.56040
C          2.79230       -1.16150        0.10560
H          7.88690       -1.63170        2.28790
H          8.63560       -0.03650        2.41910
H          6.88740       -0.20800        2.59660
H          7.46460        0.69990        0.35610
H          8.47720       -0.71900        0.03090
H          7.27400       -2.72740       -1.10440
H         -8.49230       -0.04960        1.72240
H         -7.24150        0.90420        2.54130
H         -8.47770        2.30310        0.90510
H         -6.78480        2.13880        0.43160
H         -8.02870        1.19770       -0.39810
H         -7.67980       -2.25300        0.59480
H         -2.42090       -3.40700        0.79200
H         -0.71930       -3.29760        0.34790
H         -1.55040       -2.76170       -2.06780
H         -3.17820       -3.08450       -1.48240
H         -1.98170       -4.37800       -1.48780
H          0.42300       -3.04550       -1.18530
H          2.16620       -3.02230       -1.43960
H          0.22560       -0.87460       -2.44260
H          0.94620       -2.15140       -3.43580
H          1.96810       -0.90130       -2.72060
