39

C          1.41890       -3.28350        2.18900
C          1.58030       -1.76490        2.14070
N          1.71390       -1.25540        0.79550
C          2.91350       -1.36760        0.13340
C          4.09910       -2.12080        0.26460
C          4.99450       -1.77510       -0.69930
S          4.44230       -0.53160       -1.77650
C          2.95490       -0.45590       -0.91730
C          1.75430        0.27940       -0.88680
C          1.33470        1.41870       -1.60530
N          1.95890        2.05120       -2.58690
S          1.08540        3.35290       -2.99460
N         -0.12560        3.16000       -1.93640
C          0.10900        2.06750       -1.22610
C         -0.70310        1.46880       -0.24000
C         -2.00120        1.77280        0.21360
S         -3.24110        2.94440       -0.00190
C         -4.28140        2.02660        1.04060
C         -3.72120        0.88860        1.53190
C         -2.39770        0.74540        1.06470
N         -1.37950       -0.16970        1.19010
C         -1.66320       -1.50720        1.65640
C         -1.86130       -1.58080        3.16960
C         -0.32190        0.26430        0.40610
C          0.97980       -0.25690        0.17450
H          0.54350       -3.61500        1.63640
H          2.28770       -3.77010        1.75570
H          1.31910       -3.60580        3.22210
H          2.48930       -1.49530        2.69370
H          0.74340       -1.26270        2.62120
H          4.29430       -2.86590        1.01420
H          5.97340       -2.18510       -0.85080
H         -5.26940        2.39650        1.23140
H         -4.23870        0.20670        2.18190
H         -2.58730       -1.84390        1.16920
H         -0.86170       -2.16650        1.33000
H         -2.06630       -2.60790        3.45990
H         -2.69990       -0.96040        3.47180
H         -0.98310       -1.23660        3.70980
