30

C         -1.47150       -0.85410        5.56080
C         -0.27600        0.01860        5.19420
N          0.02910       -0.08530        3.78360
C          0.88250       -1.04430        3.25840
O          1.49580       -1.85240        3.90900
C          0.86120       -0.83850        1.79150
C          1.52030       -1.52790        0.81270
C          1.26600       -1.09020       -0.49730
N          1.71990       -1.53180       -1.67930
N          1.14730       -0.75670       -2.55550
C          1.34140       -0.94980       -3.96430
C          0.30100       -1.92380       -4.50970
N          0.35010        0.16750       -2.10090
C          0.38060        0.00810       -0.76980
C         -0.27670        0.70140        0.25970
C         -0.01460        0.24800        1.52190
C         -0.54620        0.72810        2.81870
O         -1.31200        1.63080        3.04490
H         -1.25770       -1.89640        5.33500
H         -1.68430       -0.76230        6.62200
H         -2.34920       -0.54240        4.99910
H         -0.49150        1.06860        5.40610
H          0.61170       -0.30000        5.74570
H          2.18290       -2.35100        1.02240
H          2.34830       -1.34590       -4.10670
H          1.24370        0.02430       -4.44670
H          0.39020       -2.88580       -4.01090
H          0.45260       -2.06610       -5.57560
H         -0.70040       -1.53300       -4.34650
H         -0.94170        1.52520        0.06070
