48

C          6.23110       -1.46860       -1.67470
C          5.16280       -1.89470       -2.68170
C          3.92070       -2.34030       -1.98020
C          3.49580       -3.62660       -1.87040
S          2.03220       -3.81460       -0.95850
C          1.96350       -2.10550       -0.69460
C          3.03850       -1.46370       -1.30220
S          3.02010        0.26910       -1.08560
C          1.55760        0.11670       -0.17210
C          0.61620        0.93580        0.47880
C          0.49350        2.34050        0.54430
N          1.29440        3.26980        0.04570
S          0.64120        4.72250        0.34150
N         -0.69010        4.22350        1.12140
C         -0.66670        2.90100        1.17650
C         -1.57700        2.04040        1.82040
C         -2.68370        2.32330        2.64110
Se        -3.65910        3.76070        3.28230
C         -4.61650        2.48210        4.26600
C         -4.19790        1.20180        4.08020
C         -3.12410        1.11030        3.16630
N         -2.34740        0.08880        2.67730
C         -2.38340       -1.21030        3.30370
C         -3.57480       -2.04490        2.83210
C         -1.39970        0.63340        1.83030
C         -0.36170        0.07030        1.03880
N         -0.03870       -1.23900        0.70200
C         -0.92230       -2.36790        0.50730
C         -1.85780       -2.13190       -0.67730
C          1.11730       -1.19730       -0.03790
H          5.86910       -0.64210       -1.06810
H          6.48380       -2.29740       -1.01690
H          7.13140       -1.14930       -2.19350
H          4.91940       -1.04710       -3.32670
H          5.54090       -2.70790       -3.30350
H          3.95310       -4.50640       -2.27760
H         -5.42080        2.78950        4.90990
H         -4.64550        0.36140        4.58280
H         -2.46770       -1.05550        4.38600
H         -1.43350       -1.71630        3.12570
H         -4.50450       -1.57520        3.14120
H         -3.52770       -3.03990        3.26770
H         -3.59310       -2.13280        1.74900
H         -1.50010       -2.57680        1.40220
H         -0.28570       -3.23440        0.30860
H         -2.49810       -2.99780       -0.82530
H         -2.47990       -1.25610       -0.50310
H         -1.28070       -1.96780       -1.58440
