109
BT-BIC.sdf
C          3.23316       -3.03412       -1.23316
O          3.41083       -3.07230       -0.02673
C          2.85980       -4.18591       -2.10443
C          2.64699       -5.55340       -1.86251
C          2.00346       -6.32103       -2.88396
C          1.67079       -5.73474       -4.12262
C          2.03647       -4.41544       -4.38678
C          2.62706       -3.68020       -3.35982
C          3.10622       -2.31138       -3.38712
C          4.14316       -1.92750       -4.17782
C          4.85273       -0.67853       -4.08383
N          5.47117        0.29019       -4.06538
C          4.78574       -2.92171       -5.01063
N          5.28081       -3.73230       -5.67008
C          2.93632       -1.81473       -2.03608
C          2.44617       -0.65482       -1.52402
C          1.82364        0.54417       -2.22274
S          0.92350        0.54826       -3.70418
C          0.68725        2.23381       -3.82722
C          1.23456        2.75077       -2.67185
C          1.89052        1.90097       -1.78889
C          2.57074        2.51132       -0.56732
C          3.70406        3.53295       -0.85835
S          1.11874        4.40781       -2.56720
C          0.50351        4.46175       -4.07493
C          0.27224        3.31137       -4.68858
N         -0.13805        3.56253       -5.98051
C         -0.28332        2.48972       -6.95235
C          0.98301        1.73888       -7.17351
C         -0.02589        4.96207       -6.14945
C          0.40931        5.45790       -4.90871
C          0.83798        6.73455       -4.62769
N          1.20028        7.21687       -3.41105
S          1.71494        8.73819       -3.78493
N          1.55116        8.79278       -5.42652
C          1.04945        7.56419       -5.70283
C          0.64487        7.14236       -6.94534
C         -0.10062        5.98201       -7.23178
N         -0.69468        6.24438       -8.48793
C         -1.78793        5.57813       -9.25811
C         -1.31736        5.10037      -10.55883
C         -0.16072        7.47639       -8.84940
C          0.79209        7.83672       -8.04694
S          1.67425        9.12625       -8.57311
C          0.65228        9.45091       -9.89831
C         -0.48337        8.64478       -9.61888
S         -1.37863        9.79720       -8.64737
C         -0.46227       11.24620       -8.94892
C          0.50335       10.85349       -9.89871
C          0.25527       11.52353      -11.25334
C          1.29546       11.08733      -12.28084
C         -0.05031       12.33532       -7.92243
C         -0.71249       13.48679       -7.54577
C         -0.20073       14.63931       -6.72032
C          0.67456       14.60497       -5.68475
C          0.85304       15.77555       -4.82512
N          0.93170       16.75423       -4.20358
C          1.29713       13.37819       -5.26476
N          1.85426       12.46842       -4.81913
C         -0.97327       15.82395       -7.19607
C         -0.71346       17.18770       -7.01946
C         -1.58917       18.13403       -7.55737
C         -2.72755       17.73664       -8.27780
C         -2.98480       16.35237       -8.49498
C         -2.07270       15.41030       -7.93203
C         -2.05697       13.93968       -7.93602
O         -3.05688       13.29018       -7.67646
C          1.69440       -7.66424       -2.65089
C          2.08322       -8.27216       -1.45890
C          2.77318       -7.54201       -0.48620
C          3.03310       -6.17969       -0.67138
C         -4.10894       15.99939       -9.27696
C         -4.98481       16.98778       -9.75665
C         -4.73829       18.33669       -9.50698
C         -3.60218       18.71278       -8.79086
H          1.16605       -6.30824       -4.89293
H          1.81872       -3.96538       -5.35030
H          2.41820       -0.67241       -0.45069
H          1.76098        2.99156       -0.00527
H          2.99233        1.77795        0.11149
H          3.42713        4.35605       -1.49322
H          4.08527        4.05099        0.03997
H          4.54537        3.08352       -1.38771
H         -1.13362        1.91234       -6.80172
H         -0.45672        2.86782       -7.92153
H          1.76892        2.49090       -7.26847
H          1.22098        1.13251       -6.36665
H          0.96305        0.94150       -7.92414
H         -2.29222        4.80300       -8.70253
H         -2.60004        6.25415       -9.55882
H         -0.54502        4.38377      -10.36742
H         -2.06380        4.74826      -11.29333
H         -0.92883        6.01745      -10.90487
H         -0.76582       11.28569      -11.64431
H          0.33029       12.62975      -11.15940
H          1.26468        9.98540      -12.44537
H          1.16028       11.59200      -13.26296
H          2.27836       11.37848      -11.87394
H          0.98506       12.27091       -7.56521
H          0.15846       17.54172       -6.49873
H         -1.37366       19.18520       -7.41461
H          1.16467       -8.24445       -3.39750
H          1.85797       -9.31755       -1.29788
H          3.09878       -8.03548        0.41841
H          3.56724       -5.63482        0.09546
H         -4.32687       14.97479       -9.53492
H         -5.86061       16.71199      -10.33173
H         -5.42277       19.08983       -9.88574
H         -3.40936       19.76814       -8.63324
