109
BT-BO-L4F.sdf
C          3.09724       -1.57523        3.17921
O          3.62860       -0.47513        3.11098
C          2.12317       -1.96860        4.20197
C          1.59321       -1.21726        5.24472
C          0.39985       -1.67066        5.84756
C         -0.19430       -2.89895        5.43429
C          0.46661       -3.71452        4.49851
C          1.61409       -3.20209        3.87718
C          2.33444       -3.71426        2.71099
C          2.62371       -5.00661        2.45781
C          3.31128       -5.50186        1.31827
N          3.85951       -6.01228        0.44051
C          2.30905       -6.00671        3.43278
N          2.02662       -6.76041        4.26064
C          2.82731       -2.50572        2.04608
C          2.79820       -2.04402        0.78220
C          2.12582       -2.56077       -0.45734
S          1.76505       -4.19162       -0.83547
C          1.04847       -3.91565       -2.32580
C          1.05903       -2.55435       -2.50561
C          1.61483       -1.76642       -1.52408
C          1.57125       -0.26491       -1.70173
C          0.18187        0.31880       -1.79949
S          0.37163       -2.04253       -3.93876
C          0.04233       -3.61244       -4.29199
C          0.42472       -4.54182       -3.42034
N          0.09687       -5.77844       -3.89452
C          0.59837       -7.00711       -3.30881
C          1.39378       -7.83749       -4.28942
C         -0.58387       -5.54187       -5.09394
C         -0.52998       -4.16724       -5.32967
C         -0.99942       -3.49308       -6.43197
N         -0.99786       -2.14195       -6.56558
S         -1.68791       -1.94577       -8.04669
N         -1.96846       -3.50606       -8.54740
C         -1.51060       -4.23613       -7.49534
C         -1.65229       -5.61800       -7.30448
C         -1.32275       -6.29375       -6.09659
N         -1.92496       -7.54550       -6.15512
C         -2.01614       -8.69544       -5.25111
C         -3.22998       -8.64128       -4.33740
C         -2.60209       -7.52261       -7.33130
C         -2.20991       -6.54358       -8.11132
S         -2.70314       -6.88263       -9.65515
C         -3.69010       -8.23625       -9.24701
C         -3.75956       -8.16156       -7.86045
S         -5.20273       -7.16898       -7.73182
C         -5.77606       -7.22882       -9.36949
C         -4.86765       -8.08935       -9.98635
C         -4.91856       -8.46478      -11.41592
C         -5.79582       -9.73161      -11.54876
C         -6.48973       -6.09668      -10.14263
C         -7.80343       -5.75931      -10.33987
C         -8.26459       -4.38808      -10.86463
C         -7.48379       -3.37300      -10.41499
C         -7.40850       -3.24901       -8.96987
N         -7.31467       -3.12215       -7.82828
C         -6.30365       -2.93848      -11.11060
N         -5.31971       -2.52725      -11.55470
C         -9.69863       -4.38625      -10.41616
C        -10.63106       -3.35854      -10.51477
C        -11.93928       -3.57438      -10.01690
C        -12.29521       -4.81465       -9.41394
C        -11.34961       -5.82413       -9.34233
C        -10.08802       -5.57213       -9.86154
C         -9.02277       -6.48213       -9.93052
O         -9.22489       -7.68024       -9.92331
C         -1.47404       -3.24389        5.90767
C         -2.14364       -2.39752        6.79767
C         -1.52582       -1.22905        7.25521
C         -0.25970       -0.86875        6.78538
C        -13.58413       -5.02152       -8.90544
C        -12.89493       -2.57255      -10.10591
F         -3.40078       -2.70313        7.20743
F         -2.17156       -0.41757        8.12770
F        -15.76940       -4.18224       -8.49506
C        -14.52348       -3.99647       -8.99414
C        -14.17863       -2.77855       -9.59526
F        -15.08849       -1.78330       -9.68074
H          2.00996       -0.24971        5.48352
H          0.01593       -4.64572        4.17570
H          3.24176       -1.09984        0.75757
H          2.11243        0.29576       -0.91944
H          2.04561       -0.05038       -2.65538
H         -0.41042        0.07792       -0.92220
H          0.22492        1.37586       -2.05967
H         -0.38031       -0.00966       -2.63075
H          0.93957       -6.74853       -2.31333
H         -0.19756       -7.64558       -2.93691
H          0.78609       -8.10202       -5.16144
H          2.11899       -7.22791       -4.77044
H          1.90667       -8.69893       -3.80690
H         -1.99190       -9.64663       -5.81084
H         -1.09375       -8.78547       -4.67862
H         -4.07579       -8.79512       -4.90691
H         -3.29239       -9.51187       -3.67451
H         -3.46122       -7.68496       -3.83522
H         -5.31907       -7.67081      -12.06841
H         -3.84389       -8.54039      -11.71030
H         -6.86946       -9.57478      -11.31887
H         -5.77500      -10.18532      -12.55394
H         -5.51627      -10.46310      -10.86481
H         -5.77355       -5.35749      -10.58222
H        -10.34200       -2.42877      -10.98077
H        -11.57903       -6.78337       -8.89126
H         -1.97844       -4.13694        5.55130
H          0.18696        0.05861        7.11864
H        -13.85877       -5.96736       -8.44151
H        -12.63313       -1.63273      -10.56772
