152
BT-IC.sdf
C         -0.85161       -0.30974       -1.31571
C         -1.21144        0.68931       -0.32403
C         -0.19756        0.78105        0.64760
C          0.90641       -0.14025        0.66660
C          1.30833       -1.15951       -0.25322
C          0.35669       -1.19014       -1.35231
O          0.49119       -2.07181       -2.38219
C          1.55422       -2.93372       -2.53830
O         -0.19557        1.67004        1.64010
C         -1.23591        2.26633        2.25883
S          1.84183       -0.20186        1.98155
C          2.77947       -1.39809        1.45490
C          2.57617       -1.94607        0.22897
C          3.61825       -2.02226        2.28664
C          4.16406       -3.04682        1.72095
C          3.81406       -3.14034        0.17637
C          3.41743       -4.69161       -0.14053
C          5.19440       -2.70014       -0.52536
C          3.39902       -5.66221        0.88663
C          3.02699       -6.98100        0.75016
C          2.59013       -7.46330       -0.47139
C          2.63173       -6.60091       -1.55990
C          3.06086       -5.27166       -1.40677
C          6.48666       -2.93706        0.02316
C          7.67285       -2.50781       -0.59753
C          7.65211       -1.79050       -1.79540
C          6.41302       -1.50735       -2.34758
C          5.25909       -1.95554       -1.70271
C          2.08518       -8.88131       -0.62190
C          0.62790       -8.91503       -1.10073
C          8.93179       -1.28371       -2.43509
C          9.91999       -2.40157       -2.78139
S          3.73310       -1.87049        3.93781
C          4.52497       -3.31872        4.04885
C          4.78331       -3.76785        2.73963
C          4.71082       -3.94152        5.38468
C          5.30554       -5.12925        5.66813
C          5.95013       -6.06834        4.72373
C          6.54431       -7.11084        5.39163
C          6.33247       -7.01470        6.73470
C          5.50918       -5.78594        7.02031
O          6.05106       -6.07826        3.53167
C          5.04790       -5.39104        8.24769
C          4.21343       -4.23794        8.46942
C          5.33479       -6.10267        9.46986
N          3.54232       -3.33417        8.74129
N          5.52360       -6.62602       10.48652
C          7.25113       -8.11923        4.75299
C          7.78385       -9.11788        5.53345
C          7.59544       -9.07681        6.92505
C          6.87030       -8.02677        7.53680
S         -2.12777       -0.39228       -2.37995
C         -3.12203        0.67429       -1.58052
C         -2.59623        1.34732       -0.48927
C         -4.50278        0.84672       -1.73588
C         -4.91882        1.74004       -0.85235
C         -3.87028        2.36975        0.02606
C         -4.43982        2.14066        1.58371
C         -3.83286        3.92755       -0.52946
C         -4.67007        0.83410        2.13548
C         -5.05028        0.59272        3.47737
C         -5.09636        1.63297        4.40110
C         -4.89088        2.91097        3.92371
C         -4.67806        3.16881        2.56883
C         -4.64326        4.44768       -1.61667
C         -4.58753        5.80231       -2.04418
C         -3.73017        6.71813       -1.41864
C         -2.93882        6.26158       -0.39339
C         -3.00671        4.93288        0.00956
C         -5.41250        1.39846        5.85925
C         -4.70051        2.36826        6.81502
C         -3.64745        8.17545       -1.79376
C         -4.99966        8.84203       -1.59211
S         -5.76877        0.11257       -2.58018
C         -6.92697        1.06741       -1.77037
C         -6.26427        1.92324       -0.88191
C         -8.40401        0.90572       -1.82416
C         -9.25057        1.54409       -2.68962
C         -8.87246        2.48322       -3.77131
C        -10.01343        2.98375       -4.41132
C        -11.14887        2.41991       -3.89668
C        -10.76664        1.48508       -2.76846
O         -7.77106        2.75100       -4.20259
C        -11.63028        0.76622       -1.99740
C        -11.22802       -0.13708       -0.94429
C        -13.05731        0.85349       -2.20397
N        -11.01575       -0.88441       -0.08523
N        -14.19960        0.94070       -2.38903
C         -9.97333        3.89302       -5.45799
C        -11.16372        4.26206       -6.04428
C        -12.36154        3.70727       -5.56882
C        -12.36579        2.78454       -4.49562
C         -0.85661        3.66038        2.59879
C          2.61966       -2.32293       -3.37440
H          1.94141       -3.20034       -1.57351
H          1.28533       -3.87642       -3.02100
H         -2.19408        2.24548        1.80224
H         -1.39677        1.63392        3.10469
H          3.61267       -5.48927        1.86512
H          3.05749       -7.59859        1.63769
H          2.32461       -6.96237       -2.53690
H          3.05598       -4.76918       -2.33273
H          6.65064       -3.42793        0.95436
H          8.61035       -2.73195       -0.11592
H          6.33421       -0.91534       -3.25959
H          4.43771       -1.66447       -2.12768
H          2.71190       -9.42346       -1.35875
H          2.14549       -9.41927        0.34990
H          0.52972       -8.41388       -2.08769
H          0.27690       -9.96459       -1.21623
H         -0.02974       -8.40664       -0.36470
H          8.70461       -0.72066       -3.36655
H          9.43016       -0.57821       -1.73568
H          9.46642       -3.10672       -3.50810
H         10.84019       -1.96790       -3.23139
H         10.23627       -2.95507       -1.87308
H          5.22448       -4.62083        2.45630
H          4.28541       -3.33503        6.18183
H          7.37426       -8.12036        3.66974
H          8.33153       -9.91219        5.04890
H          8.01179       -9.86484        7.52297
H          6.74594       -8.03586        8.59915
H         -4.54555       -0.05998        1.58077
H         -5.26004       -0.42001        3.80164
H         -4.86947        3.76321        4.58680
H         -4.67358        4.21766        2.43850
H         -5.34706        3.84500       -2.16791
H         -5.22370        6.14226       -2.85318
H         -2.26374        6.94243        0.12516
H         -2.40108        4.77603        0.77248
H         -6.50800        1.51369        5.98903
H         -5.13376        0.36107        6.13232
H         -5.00195        3.42198        6.63815
H         -4.99136        2.14684        7.85918
H         -3.59933        2.27766        6.70666
H         -2.90577        8.71370       -1.15170
H         -3.30772        8.26732       -2.84492
H         -5.32686        8.73144       -0.53389
H         -4.92096        9.91920       -1.83851
H         -5.75310        8.37195       -2.25571
H         -6.63967        2.65216       -0.21587
H         -8.77794        0.23942       -1.05212
H         -9.02671        4.29419       -5.81154
H        -11.13822        4.96466       -6.86539
H        -13.28227        3.99521       -6.04118
H        -13.30213        2.38345       -4.18169
H         -0.95833        4.13224        1.69112
H         -1.52564        4.16850        3.32466
H          0.18432        3.93595        2.41035
H          2.25682       -2.10975       -4.36833
H          2.76414       -1.34256       -2.89418
H          3.51852       -3.00518       -3.46663
