182
BTA103.sdf
C          2.91948       -1.07858       -0.64617
C          2.81140       -0.72819        0.69786
C          1.98722        0.29263        1.19119
C          1.01866        0.83403        0.29839
C          0.96028        0.23283       -0.95893
C          1.92685       -0.58806       -1.50935
C          3.95776       -2.21951       -0.85891
C          3.98755       -2.70596        0.58813
C          3.43230       -1.80048        1.42851
C          4.40837       -3.89600        1.21740
C          4.06572       -3.97436        2.59445
S          3.29588       -2.45903        2.96072
C         -0.23408        1.75537        0.42216
C         -1.14722        0.73826       -0.26001
C         -0.44715        0.09092       -1.23017
C         -2.42586        0.20291       -0.06882
C         -2.70783       -0.90611       -0.89207
S         -1.33169       -1.17985       -1.87454
C          4.30998       -5.14874        3.59413
C         -3.93577       -1.80099       -0.79309
C         -0.69036        2.26081        1.84001
C         -0.04577        2.95912       -0.61160
C          3.46323       -3.35778       -1.83867
C          5.36761       -1.61470       -1.16858
C          4.94280       -6.42243        3.34614
C          5.17858       -7.48632        4.45347
C          4.73798       -7.16993        5.77768
C          4.11964       -5.90399        5.90832
C          3.91485       -4.99275        4.89738
C         -5.19960       -1.35652       -0.34337
C         -6.35574       -2.31235       -0.25571
C         -6.22483       -3.73510       -0.69810
C         -4.89925       -4.04282       -1.04627
C         -3.84642       -3.14621       -1.09245
N          3.66685       -5.32751        7.02576
N          3.15574       -4.16351        6.68488
N          3.29830       -3.92196        5.40055
N         -4.39521       -5.24493       -1.32372
N         -3.10274       -5.06767       -1.55158
N         -2.73071       -3.80696       -1.42505
C          4.95057       -8.10486        6.98442
C          4.15994       -8.19585        8.10839
C         -7.41203       -4.82382       -0.77755
C         -7.70347       -5.99062       -1.56253
C         -2.19046       -6.15134       -1.85657
C          2.53191       -3.24634        7.61637
C         -7.00691       -6.65484       -2.60864
N         -7.62290       -7.75151       -3.27561
C         -8.84441       -8.07588       -2.69653
S         -9.15440       -6.89123       -1.48719
C          4.34120       -8.96392        9.28066
N          3.40056       -8.74677       10.31347
C          2.47927       -7.78024        9.96987
S          2.74901       -7.36915        8.39318
C          3.50278       -9.39617       11.63168
O          5.29239       -9.71985        9.41183
C          1.51218       -7.13800       10.70182
C          0.84809       -5.96160       10.16700
C          1.08070       -7.40690       12.04999
C          4.35761       -4.16023       -2.59639
C          3.99434       -5.14596       -3.45782
C          2.67426       -5.48621       -3.59161
C          1.72216       -4.75675       -2.87502
C          2.10417       -3.70604       -2.02587
C          6.03329       -0.74591       -0.27260
C          7.29110       -0.21241       -0.58446
C          7.94375       -0.53153       -1.78768
C          7.30591       -1.37957       -2.66989
C          6.06349       -1.85967       -2.36437
C          0.22120        2.47609        2.89532
C         -0.10495        2.97689        4.12637
C         -1.40992        3.29105        4.41936
C         -2.38131        3.07253        3.42988
C         -2.02730        2.58035        2.15757
C         -0.53481        2.89582       -1.95299
C         -0.31602        3.90483       -2.88528
C          0.36041        5.06959       -2.52813
C          0.85152        5.17616       -1.22987
C          0.68739        4.13293       -0.31680
O         -5.92120       -6.26595       -2.94842
C         -7.00830       -8.35714       -4.51690
C         -9.72881       -9.13226       -2.94049
C        -11.04989       -9.16982       -2.37120
C         -9.54304      -10.34876       -3.73967
N          0.26221       -5.01876        9.83812
N          0.66756       -7.53923       13.12302
N         -9.39379      -11.31187       -4.37334
N        -12.12885       -9.32887       -1.98665
C         -1.73991        3.83132        5.78081
C          0.59855        6.17592       -3.52887
C          9.28656        0.05016       -2.16618
C          2.30220       -6.62383       -4.49624
C          2.96861       -7.93411       -4.06424
C         10.16487        0.35558       -0.95376
C         -2.64595       -6.86974       -3.11254
C         -0.70616        6.73444       -4.09500
C         -1.00757        5.14445        6.07898
C          2.75017       -1.81169        7.15530
C          3.45111      -10.91007       11.50776
C         -7.90207       -8.25573       -5.76634
O          5.79200       -8.75123        4.19173
C          5.89902      -10.11595        4.66595
O          5.28529       -6.63200        2.04209
C          5.85479       -7.82699        1.78904
O         -7.56765       -1.87768        0.21152
C         -8.00004       -0.56728        0.11949
O         -5.23015       -0.00124       -0.08077
C         -5.45786        1.34597        0.26820
H          2.06651        0.46848        2.24314
H          1.76545       -0.93446       -2.50715
H          4.88819       -4.66771        0.65781
H         -3.07380        0.52231        0.70498
H          5.84371       -8.72578        6.97979
H         -8.23737       -4.60069       -0.11004
H         -1.16836       -5.75157       -1.99639
H         -2.18917       -6.86392       -1.00395
H          1.44453       -3.46860        7.67894
H          2.98636       -3.38910        8.61698
H          4.44484       -9.11079       12.14013
H          2.69374       -9.08411       12.29694
H          5.39830       -4.14463       -2.60560
H          4.78594       -5.65691       -3.99587
H          0.67867       -4.99572       -2.97835
H          1.29472       -3.20797       -1.54622
H          5.60497       -0.45558        0.67235
H          7.74712        0.45002        0.12665
H          7.74224       -1.66203       -3.62556
H          5.70864       -2.37904       -3.17419
H          1.23584        2.30098        2.88264
H          0.71159        3.10442        4.83095
H         -3.41332        3.28707        3.63752
H         -2.81841        2.45517        1.45290
H         -1.06909        2.05634       -2.34877
H         -0.68255        3.76337       -3.89181
H          1.39870        6.05775       -0.91579
H          1.17795        4.30477        0.60155
H         -6.09013       -7.79196       -4.83238
H         -6.75449       -9.41598       -4.39074
H         -2.83109        3.99821        5.84489
H         -1.44350        3.08544        6.55004
H          1.15851        7.00983       -3.05263
H          1.22027        5.79276       -4.36668
H          9.83265       -0.66745       -2.81854
H          9.13962        0.98502       -2.75306
H          1.20286       -6.75782       -4.48892
H          2.62057       -6.39171       -5.53416
H          2.65426       -8.20767       -3.03592
H          2.67022       -8.74850       -4.75621
H          4.07749       -7.84976       -4.09483
H         10.35479       -0.57043       -0.37114
H         11.13455        0.77448       -1.28321
H          9.68844        1.11326       -0.29912
H         -2.65186       -6.17879       -3.98205
H         -1.97554       -7.72782       -3.32280
H         -3.67284       -7.24458       -2.94327
H         -1.33780        7.14940       -3.28227
H         -0.48238        7.54832       -4.81707
H         -1.27081        5.94473       -4.63417
H         -1.29652        5.93067        5.35048
H         -1.26936        5.49466        7.09906
H          0.09435        5.00157        6.04436
H          2.30361       -1.65894        6.14710
H          2.27220       -1.11601        7.86894
H          3.84038       -1.60227        7.10219
H          4.30713      -11.28225       10.90958
H          3.50645      -11.35564       12.52063
H          2.50711      -11.22584       11.02417
H         -7.94978       -7.19590       -6.02434
H         -7.54107       -8.77395       -6.67948
H         -8.89789       -8.69311       -5.65419
H          6.17248      -10.36311        5.68424
H          4.98318      -10.76283        4.58653
H          6.90433      -10.56234        4.45230
H          6.82395       -7.70753        2.34055
H          5.01935       -8.50013        2.08547
H          6.07374       -8.30362        0.82259
H         -7.29678        0.06716        0.57895
H         -8.24293       -0.35843       -0.93474
H         -8.86212       -0.25987        0.72860
H         -5.47008        1.52696        1.36461
H         -4.67395        1.96495       -0.17973
H         -6.42425        1.74949       -0.12132
