114
BTC6-4F.sdf
C          1.12505        2.59927      -10.81666
O          0.67287        1.72897      -10.09464
C          2.30141        2.46145      -11.67664
C          3.20807        1.41685      -11.77705
C          4.43666        1.68504      -12.40739
C          4.71610        2.97353      -12.92277
C          3.73262        3.97643      -12.90552
C          2.52105        3.67715      -12.29546
C          1.36551        4.51329      -12.01515
C          0.56303        5.18089      -12.87970
C         -0.67564        5.84532      -12.47735
N         -1.66728        6.38285      -12.20053
C          0.85438        5.06388      -14.29272
N          1.12647        4.94450      -15.41243
C          0.99806        4.06780      -10.70801
F          5.95061        3.25789      -13.40472
C          1.09551        4.85950       -9.63206
F          5.38825        0.72290      -12.44636
C        -13.39257        7.54026        3.63870
O        -13.45516        8.13993        2.58514
C        -13.29059        8.23884        4.85572
C        -12.99971        9.58346        5.00714
C        -12.80334       10.05643        6.29925
C        -12.88589        9.16766        7.39325
C        -13.26258        7.81865        7.19903
C        -13.49358        7.37586        5.89687
C        -13.95634        6.07613        5.33938
C        -14.80656        5.18752        5.91841
C        -15.30514        4.02221        5.22110
N        -15.68871        3.09582        4.64125
C        -15.36900        5.42461        7.22208
N        -15.83619        5.59113        8.26700
C        -13.48980        6.08073        3.93979
F        -12.60624        9.61888        8.63738
C        -13.22002        4.99126        3.17891
F        -12.49937       11.36324        6.48407
C        -12.62319        5.06874        1.84169
S        -11.55608        6.28107        1.31947
C        -11.19849        5.39214       -0.04275
C        -11.89675        4.24990       -0.16375
C        -12.73087        4.07480        0.87543
C        -10.12063        5.31725       -0.92749
C        -10.17752        4.13288       -1.58848
C        -11.44907        3.34473       -1.29571
S         -8.65584        6.08623       -1.04025
C         -8.00824        4.82217       -1.98214
C         -8.98376        3.83303       -2.22056
C         -6.57996        4.71990       -2.35456
C         -5.77356        5.87695       -2.51352
C         -4.43025        5.77571       -2.91128
C         -3.84483        4.51648       -3.16706
C         -4.65596        3.40118       -3.00200
C         -5.95644        3.48178       -2.60899
N         -4.34166        2.11480       -3.19989
N         -5.44241        1.43461       -2.92688
N         -6.44966        2.22677       -2.56105
C         -2.46232        4.37474       -3.64551
S         -1.94752        3.08528       -4.63194
C         -0.49711        3.82583       -4.91859
C         -0.34159        5.01215       -4.25899
C         -1.46091        5.34840       -3.51957
C          0.39337        3.78981       -6.00762
C          1.09822        4.93904       -5.97005
C          0.89569        5.76716       -4.71319
S          0.25614        3.12960       -7.54411
C          1.06750        4.45163       -8.21784
C          1.50419        5.30647       -7.22253
F         -3.73948        6.92761       -3.09247
C          2.08560        5.55176       -3.71466
C          2.00610        6.33535       -2.39161
C          0.60981        7.27964       -5.06734
C         -0.63021        7.62945       -5.92985
C        -12.45898        3.40351       -2.49464
C        -13.79211        2.64287       -2.32298
C        -11.10214        1.87826       -0.80294
C        -10.25487        1.70280        0.48791
C         -5.51630       -0.01832       -3.03637
C         -6.58422       -0.41736       -4.04693
F         -6.26662        7.12318       -2.31754
H          3.01225        0.46122      -11.30861
H          3.94035        4.97802      -13.26330
H          1.34341        5.90688       -9.83178
H        -12.90135       10.23211        4.14120
H        -13.33311        7.13799        8.03359
H        -13.35709        3.98562        3.58120
H        -13.27932        3.21299        0.90355
H         -8.81055        2.90320       -2.72208
H         -1.58466        6.28425       -3.01120
H          1.96015        6.21507       -7.43481
H          2.14111        4.47695       -3.44518
H          3.04892        5.83182       -4.19602
H          1.05415        6.16909       -1.86773
H          2.81897        6.02078       -1.71136
H          2.16518        7.41521       -2.53338
H          0.49531        7.86437       -4.13221
H          1.48073        7.68462       -5.62380
H         -1.59701        7.52937       -5.44379
H         -0.64799        8.70789       -6.13716
H         -0.67678        7.11564       -6.89591
H        -12.73351        4.46447       -2.66157
H        -11.97686        3.02210       -3.42092
H        -14.31334        2.91032       -1.38078
H        -14.46402        2.85668       -3.17683
H        -13.67376        1.55397       -2.39298
H        -12.04362        1.31995       -0.61449
H        -10.54745        1.34476       -1.60545
H        -10.76471        1.98581        1.41142
H        -10.06089        0.63008        0.67467
H         -9.28190        2.21754        0.46444
H         -4.52548       -0.42445       -3.34418
H         -5.77617       -0.45178       -2.04831
H         -6.32973       -0.01286       -5.04936
H         -6.65293       -1.52290       -4.10655
H         -7.57221       -0.01461       -3.73305
