107
BTCIC.sdf
S          2.54911        0.32295       -0.19292
N          1.64636       -1.05810       -0.26739
C          0.36491       -0.60567       -0.26059
C          0.24346        0.83938       -0.20664
N          1.41856        1.52412       -0.16133
C         -0.76795       -1.47409       -0.32632
C         -2.02316       -0.82615       -0.28213
C         -2.13461        0.58399       -0.20347
C         -1.01375        1.47109       -0.19052
C         -1.23059        2.99437       -0.16162
C         -0.65382       -3.00742       -0.43421
C          0.44519       -3.98571       -0.49915
C         -0.02078       -5.37000       -0.47544
C         -1.36243       -5.32820       -0.41819
S         -2.07457       -3.86906       -0.42900
C          0.36540       -6.92687       -0.35010
C         -1.07874       -7.53542       -0.57011
C         -1.95399       -6.54967       -0.45271
C         -1.79443       -8.67336       -1.03176
C         -3.19835       -8.44679       -1.18968
S         -3.50917       -6.89476       -0.69698
C         -0.51912        4.19135       -0.64380
C         -1.27747        5.42428       -0.42370
C         -2.41508        5.07316        0.20595
S         -2.63898        3.50867        0.54595
C         -1.42953        7.00435       -0.71402
C         -2.69003        7.28461        0.20645
C         -3.21815        6.11166        0.56095
C         -3.35447        8.29002        0.97162
C         -4.40777        7.74762        1.78982
S         -4.48481        6.09508        1.60864
C         -4.27835       -9.30904       -1.78290
C         -4.26606      -10.68593       -1.77408
C         -5.21127      -11.68028       -2.44987
C         -4.58003      -13.04356       -2.22088
C         -3.45167      -12.90946       -1.45951
C         -3.29221      -11.57568       -1.06614
C         -4.89393      -14.34140       -2.68212
C         -4.04417      -15.42140       -2.38245
C         -2.88831      -15.22882       -1.61856
C         -2.59243      -13.96139       -1.13143
C         -6.34989      -11.46190       -3.19108
O         -2.58573      -11.35295       -0.10773
C         -7.12677      -12.58007       -3.70658
C         -6.82740      -10.13321       -3.53689
N         -7.71815      -13.50117       -4.09851
N         -7.18359       -9.05980       -3.79636
C          0.82210       -7.06663        1.15536
C          1.40020       -7.65305       -1.31691
C          2.01498       -6.22186        1.63952
C          1.66475       -9.16536       -1.06240
C         -1.77360        7.04282       -2.25796
C         -3.05139        6.31549       -2.72819
C         -0.31422        8.09435       -0.41405
C         -5.29391        8.34611        2.83138
C         -5.71344        9.62590        2.89155
C         -6.54262       10.33542        3.94830
C         -6.55028       11.77904        3.53012
C         -5.88022       11.90357        2.32984
C         -5.45642       10.62699        1.85568
C         -7.05929       12.94584        4.13894
C         -6.84432       14.19050        3.52098
C         -6.13552       14.27686        2.31353
C         -5.65758       13.12048        1.70431
O         -5.06637       10.42918        0.71837
C         -7.13418        9.83152        5.07026
C         -7.91976       10.65268        5.96414
C         -7.02914        8.45337        5.48958
N         -6.96907        7.35770        5.86082
N         -8.55728       11.26702        6.71123
C         -0.64665        9.56559       -0.76310
H         -2.93739       -1.40755       -0.30396
H         -3.13423        0.97358       -0.17486
H          1.49607       -3.71248       -0.49564
H         -1.30954       -9.54706       -1.33068
H          0.43187        4.15784       -1.17368
H         -3.04188        9.31985        1.03215
H         -5.08338       -8.77054       -2.27392
H         -5.73725      -14.57513       -3.28852
H         -4.27160      -16.40917       -2.75980
H         -2.22208      -16.05629       -1.41248
H         -1.69632      -13.79588       -0.54172
H         -0.00818       -6.74417        1.82026
H          1.06559       -8.11965        1.39434
H          1.04589       -7.57527       -2.37038
H          2.39764       -7.16210       -1.27644
H          1.75932       -5.16596        1.75311
H          2.30082       -6.51114        2.65825
H          2.91305       -6.30440        1.07996
H          0.80810       -9.76791       -1.01022
H          2.23222       -9.63743       -1.87394
H          2.25068       -9.41653       -0.18244
H         -1.89382        8.09092       -2.62270
H         -0.92655        6.59435       -2.82160
H         -3.96436        6.85543       -2.41140
H         -3.06441        6.25878       -3.83607
H         -3.14070        5.27651       -2.38211
H         -0.04396        8.06216        0.66859
H          0.61902        7.86277       -0.96479
H         -5.58653        7.64223        3.60505
H         -7.59328       12.94959        5.06974
H         -7.21666       15.09347        3.98264
H         -5.95378       15.23489        1.84847
H         -5.10490       13.16386        0.77587
H         -1.58586        9.88627       -0.30773
H          0.12221       10.25275       -0.34873
H         -0.68918        9.76123       -1.85490
