107
BTCIC-4Cl.sdf
S          2.57284        0.05968       -0.06753
N          1.57684       -1.26003       -0.12754
C          0.33235       -0.71580       -0.10680
C          0.32254        0.76345       -0.05793
N          1.54405        1.35333       -0.02471
C         -0.88005       -1.52323       -0.16137
C         -2.04687       -0.75396       -0.13650
C         -2.04897        0.67033       -0.04719
C         -0.87883        1.51071       -0.01232
C         -1.09246        3.07959        0.04733
C         -0.90769       -3.10803       -0.21506
C         -1.80447       -4.15762       -0.77985
C         -1.25252       -5.56051       -0.68883
C         -0.07832       -5.47927       -0.00919
S          0.37878       -3.95210        0.43760
C         -1.34022       -7.10936       -1.28502
C          0.11303       -7.70400       -0.62251
C          0.67591       -6.67288        0.06516
C          1.08114       -8.86821       -0.41313
C          2.40721       -8.60932        0.33954
S          2.19737       -6.99284        0.77777
C         -0.42618        4.34432       -0.37315
C         -1.32160        5.55146       -0.27857
C         -2.47563        5.14424        0.28295
S         -2.57891        3.55694        0.64227
C         -1.59804        7.08698       -0.83569
C         -3.17014        7.23851       -0.31284
C         -3.49959        6.08078        0.29639
C         -4.38052        8.10461       -0.18606
C         -5.61388        7.46917        0.40274
S         -5.07636        5.94264        0.85015
C          3.81143       -9.50964        0.71929
C          5.08724       -9.18754        1.47578
C          6.09152      -10.19234        2.33898
C          5.14645      -10.60620        3.35124
C          4.22095       -9.56287        3.41279
C          4.59384       -8.43666        2.52230
C          4.95113      -11.86018        3.94778
C          3.67264      -12.15049        4.37992
C          2.64701      -11.20359        4.17708
C          2.93289       -9.90183        3.73102
C          7.45725      -10.59058        2.66120
O          5.26613       -7.49366        2.92177
C          7.74839      -11.56564        3.73575
C          8.79980      -10.19211        2.21258
N          7.98353      -12.33317        4.58129
N          9.93436      -10.01815        2.00554
Cl         3.34906      -13.79224        4.91226
Cl         0.97832      -11.69716        4.27127
C         -1.58019       -6.73122       -2.85564
C         -2.49895       -8.26142       -1.07223
C         -0.50572       -5.88967       -3.53390
C         -2.78879       -8.75758        0.35350
C         -1.15596        6.82687       -2.37068
C         -1.91839        5.76574       -3.16373
C         -0.89281        8.53468       -0.54744
C         -0.89586        9.09816        0.89558
C         -7.17578        7.90996        0.59948
C         -8.28646        7.16675        1.21835
C         -9.64752        7.73956        1.86880
C         -9.08971        8.45517        2.99711
C         -7.85305        7.86991        3.22376
C         -7.68541        6.66803        2.37191
C         -9.50599        9.65236        3.58401
C         -8.52459       10.42617        4.17720
C         -7.18215        9.98245        4.14324
C         -6.85592        8.68105        3.71082
O         -8.06493        5.56938        2.76334
C        -11.04580        7.59646        1.85179
C        -11.92159        8.27727        2.80697
C        -11.95261        6.76279        1.08813
N        -12.82423        6.17970        0.58963
N        -12.65215        8.79557        3.54562
Cl        -5.88527       11.10942        4.44849
Cl        -8.97907       12.03753        4.70931
H         -3.00697       -1.24876       -0.15187
H         -3.03144        1.10813       -0.02569
H         -2.69615       -3.86058       -1.34143
H          0.82328       -9.83513       -0.81146
H          0.54227        4.32490       -0.87446
H         -4.36179        9.12804       -0.53185
H          3.65914      -10.57793        0.61434
H          5.63765      -12.69450        3.92372
H          2.15911       -9.20894        3.45591
H         -1.82329       -7.56708       -3.53763
H         -2.50417       -6.07383       -2.94941
H         -3.48766       -7.97870       -1.53108
H         -2.25167       -9.21066       -1.66504
H          0.31353       -6.55504       -3.87346
H         -0.87580       -5.36114       -4.44109
H         -0.21658       -5.07390       -2.85802
H         -2.77675       -7.89086        1.03705
H         -3.75564       -9.30588        0.46381
H         -2.12194       -9.56002        0.73227
H         -1.05142        7.72910       -3.00719
H         -0.10235        6.41259       -2.37152
H         -2.84489        6.19914       -3.59037
H         -1.32156        5.38300       -4.02030
H         -2.06982        4.87479       -2.53564
H          0.15753        8.57880       -0.92631
H         -1.39576        9.35360       -1.16794
H         -0.67191        8.28405        1.59982
H         -0.16979        9.93057        1.04774
H         -1.82529        9.62281        1.19170
H         -7.34797        8.97145        0.44797
H        -10.47394       10.11258        3.44994
H         -5.83839        8.35277        3.58901
