101
BTDTP-4F.sdf
C         -0.92670       -2.18364        0.22831
C         -1.07098       -0.87822       -0.13577
S         -2.77446       -0.70755       -0.50634
C         -3.15262       -2.38587       -0.33800
C         -2.03822       -3.05636        0.02876
N         -2.20714       -4.43335        0.05776
C         -0.92552       -5.29138        0.21838
C         -3.61216       -4.61622       -0.30952
C         -4.18476       -3.32447       -0.49599
C         -5.55984       -3.14762       -0.81910
N         -6.15803       -1.93685       -0.92731
S         -7.73022       -2.33862       -1.27227
N         -7.72925       -3.98844       -1.32307
C         -6.43766       -4.27480       -1.04309
C         -5.94669       -5.56317       -0.97124
C         -4.60557       -5.75035       -0.59805
N         -4.49878       -7.09805       -0.52033
C         -3.49245       -7.63085        0.23844
C         -3.07337       -8.81085       -0.26368
C         -5.60719       -7.79799       -0.95560
C         -6.55623       -6.85654       -1.17585
S         -8.02682       -7.65525       -1.56963
C         -7.36620       -9.25413       -1.50688
C         -6.01543       -9.24194       -1.19162
C         -0.40906       -5.70316        1.59613
C         -8.51688      -14.57081       -2.36239
C         -8.52970      -15.14417       -3.61213
C         -9.17415      -16.41363       -4.13048
C         -9.19077      -17.66723       -3.60677
C         -9.76586      -18.79376       -4.31389
N        -10.20143      -19.74021       -4.82064
C         -8.48443      -17.98083       -2.38919
N         -7.90337      -18.17742       -1.40782
C         -9.62651      -16.06446       -5.50832
C        -10.53282      -16.66585       -6.40402
C        -10.71847      -16.07679       -7.67131
F        -11.60726      -16.61283       -8.54392
C         -9.98830      -14.92955       -8.03938
C         -9.06696      -14.36830       -7.15167
C         -8.91938      -14.94606       -5.90195
C         -8.06218      -14.50589       -4.82724
O         -7.05339      -13.83351       -4.95228
N         -5.49717      -10.60376       -1.22973
C         -6.60619      -11.33725       -1.55093
C         -7.73734      -10.59399       -1.69921
C         -4.13857      -11.38131       -1.08964
C         -3.89665      -12.46653        0.00891
C         -6.75597      -12.72887       -1.77092
C         -8.06665      -13.12354       -2.08297
S         -9.02059      -11.66650       -2.08176
F        -10.17645      -14.35440       -9.25171
C          3.29218       -3.57798        0.00229
O          2.75692       -3.89934       -1.04221
C          4.27434       -4.48531        0.54271
C          4.12100       -5.85235        0.80641
C          5.22586       -6.56780        1.27434
C          6.46325       -5.91640        1.42512
F          7.53434       -6.62137        1.86739
C          6.59662       -4.54172        1.11436
C          5.46514       -3.81596        0.68185
C          5.23851       -2.38108        0.24565
C          6.19087       -1.51536       -0.17860
C          5.81962       -0.25486       -0.76670
N          5.46946        0.74503       -1.23143
C          7.58457       -1.89519       -0.19580
N          8.68794       -2.24691       -0.19115
C          3.73435       -2.19164        0.18903
C          2.91684       -1.03132        0.23263
F          5.09999       -7.88773        1.57268
C          0.21806       -0.15539       -0.16326
C          1.34897       -1.01557        0.20689
S          0.62408       -2.40134        0.73001
C          0.36472        1.23522       -0.67185
C         -0.67951        1.52889       -1.73906
H         -0.92515       -6.24284       -0.32489
H         -0.01342       -4.74119       -0.11107
H         -2.67056       -6.98192        0.19653
H         -4.01383       -7.96657        1.13646
H         -2.78737       -8.61117       -1.31272
H         -2.35991       -9.18553        0.49540
H         -4.01173       -9.34572       -0.18075
H         -0.94453       -6.61088        1.91730
H          0.55720       -6.23457        1.54670
H         -0.18799       -4.81859        2.24403
H         -9.03303      -15.11245       -1.57040
H        -11.10802      -17.54443       -6.14989
H         -8.50053      -13.48427       -7.40845
H         -3.86456      -11.88674       -1.99121
H         -3.21076      -10.86186       -0.97099
H         -4.46646      -13.38882       -0.02896
H         -2.86293      -12.87555        0.03681
H         -3.90059      -12.12064        1.02163
H         -5.95005      -13.42825       -1.71355
H          3.16578       -6.34822        0.66434
H          7.56007       -4.08063        1.23189
H          3.44612       -0.10259        0.31601
H          0.22216        1.91259        0.19516
H          1.38632        1.36295       -1.08832
H         -1.69660        1.38300       -1.32739
H         -0.59065        2.57319       -2.07002
H         -0.53336        0.86031       -2.61161
