120
BTIC-4F.sdf
C          4.86724       -1.54712       -8.88888
O          3.85946       -2.02533       -9.38328
C          6.19082       -2.23695       -8.83726
C          6.60244       -3.49816       -9.30099
C          7.88704       -3.96941       -8.93411
C          8.73363       -3.18409       -8.12913
C          8.33058       -1.91041       -7.73541
C          7.06159       -1.46148       -8.11094
C          6.41027       -0.20944       -7.76336
C          7.05630        0.98168       -7.57177
C          6.30544        2.18724       -7.30201
N          5.68611        3.14154       -7.08548
C          8.49157        1.13090       -7.82565
N          9.63215        1.24256       -8.02871
C          4.91366       -0.42808       -7.88846
C          4.15061       -0.66623       -6.74793
C        -19.57043      -14.36306       -4.93406
O        -19.26489      -13.23524       -4.58906
C        -20.39636      -15.27888       -4.15432
C        -20.90465      -15.08672       -2.86922
C        -21.53100      -16.16050       -2.22483
C        -21.64961      -17.40185       -2.87606
C        -21.21003      -17.55184       -4.20986
C        -20.58646      -16.45567       -4.85335
C        -20.04818      -16.26218       -6.24406
C        -20.42440      -16.99169       -7.33610
C        -20.01884      -16.65120       -8.67358
N        -19.71344      -16.40519       -9.76220
C        -21.38941      -18.07205       -7.27418
N        -22.15803      -18.93945       -7.26684
C        -19.16469      -15.01605       -6.18130
C        -18.20386      -14.57266       -7.06066
C        -17.15280      -13.44360       -6.93927
S        -16.29801      -12.76421       -5.58126
C        -15.12961      -11.83892       -6.46125
C        -15.46039      -12.00790       -7.77471
C        -16.53226      -12.88695       -8.06638
C        -13.83749      -11.02587       -6.42781
C        -13.49715      -10.68029       -7.71218
C        -14.53578      -11.24866       -8.69045
S        -12.52021      -10.49481       -5.45168
C        -11.48988       -9.79426       -6.69324
C        -12.23905       -9.97537       -7.88298
C        -10.04045       -9.17374       -6.50818
C         -3.20680       -4.01534       -6.11664
S         -1.83636       -3.90224       -5.02937
C         -0.99246       -2.62539       -5.80153
C         -1.77803       -2.22395       -6.84916
C         -3.00876       -2.94774       -7.02953
C          0.33122       -1.90588       -5.88109
C          0.31324       -1.09848       -6.98579
C         -1.06771       -1.14155       -7.67312
S          1.92823       -1.87779       -5.25322
C          2.64239       -0.92256       -6.51915
C          1.57561       -0.51585       -7.34233
C         -1.80716        0.24672       -7.57800
C         -3.20697        0.32619       -8.23343
C         -0.90827       -1.62809       -9.15612
C         -0.30012       -3.02996       -9.38829
C        -15.37564      -10.15087       -9.44356
C        -16.21766       -9.18587       -8.57417
C        -13.83514      -12.26223       -9.65841
C        -13.15634      -13.48386       -9.00564
F        -22.18584      -18.45653       -2.20845
F        -21.98276      -16.00886       -0.95378
F          8.29972       -5.20241       -9.31623
F          9.93441       -3.65885       -7.70916
S         -9.07003       -7.90952       -7.28878
C         -7.72019       -7.75281       -6.16051
C         -8.05853       -8.78058       -5.21057
C         -9.24056       -9.56085       -5.44923
C         -6.47579       -6.84531       -6.06579
C         -5.49652       -6.91562       -5.01394
C         -5.62896       -7.62120       -3.81436
N         -6.84353       -7.94681       -3.31158
C         -7.44571       -8.97857       -3.96887
S         -5.81503       -5.50770       -7.01340
C         -4.34606       -5.11162       -6.09355
C         -4.35644       -6.05160       -5.09228
C         -7.75067       -6.72563       -3.15888
C         -7.70517       -5.94310       -1.79598
O         -7.75209       -9.94264       -3.29082
O         -4.71192       -7.63099       -3.01728
H          5.94278       -4.12500       -9.88287
H          8.97163       -1.31791       -7.09722
H          4.77840       -1.11634       -5.98602
H        -20.78424      -14.13774       -2.36462
H        -21.32646      -18.51572       -4.68626
H        -18.09614      -15.15826       -7.97176
H        -16.82583      -13.14226       -9.07123
H        -11.83327       -9.68407       -8.83593
H         -3.69352       -2.74240       -7.83054
H          1.75234        0.07474       -8.22246
H         -1.94377        0.53957       -6.51579
H         -1.20478        1.03269       -8.08133
H         -3.95952       -0.38291       -7.82878
H         -3.60769        1.35005       -8.17049
H         -3.17071        0.20839       -9.32370
H         -1.90077       -1.62037       -9.65776
H         -0.23270       -0.94591       -9.69768
H         -0.87014       -3.86491       -8.95884
H         -0.34211       -3.30028      -10.45447
H          0.74822       -3.09547       -9.04099
H        -14.71458       -9.52454      -10.05318
H        -16.12624      -10.64117      -10.11098
H        -15.63088       -8.60361       -7.83428
H        -16.78171       -8.49096       -9.21548
H        -17.05131       -9.68970       -8.05873
H        -14.57765      -12.66333      -10.37898
H        -13.02540      -11.76060      -10.20674
H        -13.84597      -14.15066       -8.46716
H        -12.77175      -14.16610       -9.77173
H        -12.32136      -13.19882       -8.33981
H         -9.57116      -10.34154       -4.76746
H         -3.59233       -6.02507       -4.32496
H         -7.49765       -5.95056       -3.89763
H         -8.82126       -6.98344       -3.30654
H         -6.69958       -5.54622       -1.53647
H         -8.35044       -5.02639       -1.86924
H         -8.13985       -6.47680       -0.92373
