97
BTIC-4EO-4Br.sdf
C          0.97347       -1.08116        3.15113
O         -0.22867       -1.20499        3.11738
C          1.57489       -1.97493        4.07569
C          1.55968       -1.93542        5.48133
C          2.24179       -2.95130        6.15993
Br         2.39138       -2.86759        8.07499
C          2.84640       -3.99492        5.41785
Br         3.80706       -5.40232        6.28270
C          2.78224       -4.00839        4.00672
C          2.15039       -2.96746        3.33824
C          1.98007       -2.63956        1.87442
C          2.03362       -3.44841        0.80642
C          1.79163       -2.95971       -0.52956
N          1.60279       -2.59949       -1.61261
C          2.20755       -4.85355        1.00104
N          2.35402       -5.97700        1.22060
C          1.59148       -1.22394        1.86411
C          1.72923       -0.22796        0.93955
C          1.34460        1.20643        1.18676
S          0.12952        1.75897        2.32839
C          0.23583        3.40291        1.97616
C          1.24614        3.44452        1.01690
C          1.87843        2.34803        0.51621
C          2.97631        2.52565       -0.59724
C          2.73465        3.16252       -1.98664
S          1.58631        4.90305        0.52580
C          0.45638        5.51535        1.47811
C         -0.24132        4.75280        2.27161
N         -1.06400        5.62872        3.01229
C         -1.97717        5.22957        4.06539
C         -0.59676        6.94092        2.72976
C          0.27825        6.73935        1.69167
C          0.94310        7.66762        1.00289
N          1.43037        7.52893       -0.25515
S          2.11100        8.98532       -0.49876
N          1.87635        9.70942        0.96688
C          1.17998        8.80832        1.66449
C          0.49890        9.05482        2.83865
C         -0.70835        8.42602        3.05293
N         -1.51320        9.51353        3.48355
C         -2.96021        9.52963        3.71537
C         -3.67860        9.17507        2.44423
C         -0.65097       10.64404        3.43146
C          0.53958       10.18000        3.48472
S          1.66481       11.22552        4.04841
C          0.70863       12.60409        3.93039
C         -0.43792       12.10566        3.22274
S          0.19241       12.36424        1.58600
C          1.76496       13.12646        1.91313
C          1.59209       13.54193        3.28007
C          1.18097       15.01502        3.38382
C          0.97889       15.51724        4.81884
C          3.17224       12.41108        1.50574
C          4.47915       12.88672        1.70156
C          6.00121       12.52198        1.63760
C          6.88031       12.01095        0.67851
C          8.28973       12.37148        0.77901
N          9.41936       12.62843        0.80424
C          6.70251       11.37132       -0.61737
N          6.74572       10.87217       -1.66651
C          6.59113       13.35528        2.74783
C          7.80261       13.28291        3.49855
C          8.14095       14.35253        4.35735
Br         9.78506       14.29258        5.35824
C          7.29223       15.47903        4.43726
Br         7.73450       17.01024        5.50292
C          6.09646       15.51191        3.70705
C          5.76145       14.43242        2.89944
C          4.58116       14.25540        2.07250
O          4.17855       15.11099        1.30223
C         -1.25209        5.25169        5.39829
H          1.08645       -1.12997        6.04706
H          3.26886       -4.78332        3.45370
H          2.22021       -0.43295        0.00115
H          3.82181        3.14445       -0.17492
H          3.16861        1.52950       -1.01977
H          2.51603        4.22638       -2.11810
H          3.65225        3.00925       -2.60127
H          1.93299        2.63783       -2.49035
H         -2.84257        5.89768        4.08641
H         -2.43464        4.24668        3.83628
H         -3.20682        8.77123        4.48453
H         -3.30834       10.52445        4.07711
H         -3.26456        8.19667        2.19668
H         -4.77495        9.05792        2.58042
H         -3.45453        9.90511        1.63334
H          1.98682       15.63774        2.93789
H          0.24170       15.22106        2.82578
H          1.88485       15.35743        5.43027
H          0.76558       16.60626        4.83182
H          0.11085       15.02304        5.29270
H          3.16601       11.41417        1.18407
H          8.49686       12.44918        3.43014
H          5.44098       16.36560        3.77353
H         -0.47071        4.46430        5.38840
H         -0.77134        6.23232        5.56362
H         -1.98273        5.06351        6.20745
