103
BTIC-CF3-y.sdf
C         -6.13802       -1.12755        0.22678
O         -6.87144       -2.02113        0.61551
C         -6.69684        0.10362       -0.22510
C         -7.67068        0.24325       -1.19705
C         -8.12080        1.52566       -1.52054
C         -9.10601        1.71845       -2.64773
C         -7.61682        2.62850       -0.78655
C         -6.61739        2.45036        0.20353
C         -6.12855        1.15074        0.45200
C         -5.01678        0.59144        1.31025
C         -4.36876        1.22992        2.32337
C         -4.83836        2.51745        2.77186
N         -5.27810        3.54522        3.07219
C         -3.27419        0.61663        3.03263
N         -2.40470        0.06093        3.55649
C         -4.84340       -0.83943        0.81795
C         -3.74827       -1.68443        0.76310
C         -3.68834       -3.07606        0.04681
S         -4.99557       -4.20567       -0.23905
C         -4.19018       -5.40779       -1.16668
C         -2.88482       -4.90379       -1.27179
C         -2.53843       -3.68692       -0.57370
C         -1.10757       -3.11665       -0.60094
C         -0.34413       -2.96079        0.72687
S         -1.93405       -5.96246       -2.19741
C         -3.16930       -7.10637       -2.36895
C         -4.30517       -6.77045       -1.73736
N         -5.13883       -7.89291       -1.66928
C         -6.40048       -7.88198       -0.84326
C         -4.37813       -9.00487       -2.23419
C         -3.18941       -8.41086       -2.75892
C         -2.10379       -9.08974       -3.30872
N         -0.90504       -8.51350       -3.59348
S          0.01938       -9.80222       -4.05567
N         -1.02603      -11.06988       -3.93497
C         -2.16415      -10.47187       -3.48795
C         -3.23800      -11.16515       -2.97151
C         -4.30317      -10.57355       -2.20761
N         -4.82087      -11.69687       -1.45071
C         -5.77290      -11.91814       -0.29834
C         -6.92983      -12.80442       -0.59933
C         -4.03496      -12.79287       -1.83759
C         -3.21734      -12.51518       -2.83387
S         -2.14331      -13.76326       -3.25726
C         -2.60977      -14.77182       -1.98912
C         -3.55267      -14.02619       -1.26211
S         -3.07087      -14.18313        0.32660
C         -1.56385      -15.01748        0.05792
C         -1.63954      -15.53807       -1.26537
C         -1.93626      -17.08100       -1.22552
C         -3.22723      -17.54287       -1.92009
C         -0.24047      -14.25362        0.47257
C          0.93233      -14.87742        0.86668
C          2.31856      -14.55817        1.46625
C          3.09390      -13.48945        1.30024
C          4.41519      -13.43154        1.91387
N          5.47327      -13.32433        2.37790
C          2.73356      -12.43118        0.38691
N          2.56776      -11.52626       -0.31572
C          2.73971      -15.80564        2.20448
C          3.76385      -16.26102        3.10080
C          3.70749      -17.60699        3.58937
C          2.66250      -18.43501        3.14644
C          2.20096      -19.71356        3.72288
C          1.75729      -17.96011        2.23044
C          1.83324      -16.71310        1.80380
C          0.95676      -16.26289        0.83126
O          0.92874      -16.86192       -0.22424
C         -6.22552       -8.80371        0.26441
F          2.86157      -20.31821        4.75243
F          1.06664      -19.21344        4.28011
F          1.84855      -20.67728        2.79837
F         -9.44410        0.51466       -3.24950
F        -10.25674        2.31162       -2.17104
F         -8.53472        2.53021       -3.61142
H         -8.02324       -0.64080       -1.71319
H         -7.97897        3.62446       -1.00446
H         -6.22829        3.31818        0.70802
H         -2.82237       -1.24782        1.13005
H         -0.44408       -3.70852       -1.28461
H         -1.19669       -2.10185       -0.98858
H         -0.16076       -3.92865        1.22875
H          0.64050       -2.46228        0.53950
H         -0.87072       -2.29613        1.42511
H         -6.64869       -6.95560       -0.34078
H         -7.34426       -8.14120       -1.36663
H         -5.27957      -12.29342        0.59379
H         -6.35579      -11.17041        0.08256
H         -6.49808      -13.76276       -0.80989
H         -7.68703      -12.94245        0.20714
H         -7.48763      -12.33295       -1.40223
H         -1.11412      -17.66341       -1.69554
H         -2.03088      -17.45196       -0.17441
H         -3.18497      -17.26512       -2.99850
H         -3.39040      -18.63926       -1.87760
H         -4.08918      -17.13201       -1.35881
H         -0.28772      -13.17513        0.57586
H          4.55185      -15.62710        3.45954
H          4.39214      -17.97819        4.34187
H          0.88916      -18.51764        1.91212
H         -5.34664       -8.58958        0.88757
H         -7.14845       -9.03852        0.84909
H         -5.96007       -9.50801       -0.45505
