97
BTP-4Cl.sdf
C          0.16637       -0.29016       -0.62647
O         -0.49774       -0.37991       -1.64718
C         -0.27456       -0.79255        0.67032
C         -1.48953       -0.60385        1.30654
C         -1.64735       -1.09951        2.61041
Cl        -3.15878       -0.77270        3.44357
C         -0.59636       -1.81867        3.23474
Cl        -0.76962       -2.40977        4.88410
C          0.60740       -2.05715        2.53813
C          0.74647       -1.51241        1.25265
C          1.84896       -1.54078        0.27419
C          2.59062       -2.62142       -0.04577
C          3.42485       -2.62564       -1.21606
N          4.10426       -2.65621       -2.15733
C          2.33348       -3.90346        0.59249
N          2.09943       -4.90567        1.12685
C          1.61886       -0.34278       -0.58492
C          2.48608        0.63718       -1.00762
C          2.08279        1.95768       -1.68480
S          0.68838        2.24692       -2.69774
C          0.90380        3.92147       -2.94857
C          2.09516        4.21780       -2.30018
C          2.74554        3.22613       -1.56245
C          3.88483        3.68203       -0.63978
S          2.56320        5.81687       -2.48755
C          1.17647        6.12537       -3.33688
C          0.30718        5.12584       -3.49760
N         -0.77151        5.61386       -4.23465
C         -0.54589        7.01221       -4.38058
C          0.76986        7.16151       -4.06650
C          1.55287        8.13167       -4.62615
N          2.89737        8.08061       -4.59130
S          3.29847        9.27350       -5.65288
N          1.84586        9.90419       -6.13054
C          0.97816        9.10604       -5.48617
C         -0.38905        9.25688       -5.47530
C         -1.15198        8.33769       -4.77045
N         -2.36172        8.96132       -4.69073
C         -2.04035       10.38299       -4.88705
C         -1.27412       10.30040       -5.92640
S         -1.15937       11.89322       -6.53433
C         -1.38061       12.71543       -5.04199
C         -1.27736       11.58557       -4.18496
S          0.51916       11.63320       -3.98733
C          0.96998       13.10458       -4.93391
C         -0.31984       13.75255       -5.01912
C         -0.59402       15.24994       -5.40501
C          2.33131       13.45429       -5.86204
C          3.56216       14.07266       -5.42528
C          5.13160       14.54504       -5.62264
C          6.14396       15.25858       -6.31010
C          7.57104       14.97660       -6.04491
N          8.66752       14.68913       -5.77983
C          6.07322       16.39512       -7.19372
N          6.19150       17.30517       -7.90228
C          5.62300       14.49822       -4.17738
C          6.80964       14.91744       -3.45015
C          6.99202       14.48616       -2.14851
Cl         8.58706       14.56094       -1.40254
C          5.96134       13.82607       -1.52093
Cl         6.46076       12.12632       -1.46478
C          4.67925       13.98964       -2.03907
C          4.56195       14.23098       -3.38272
C          3.35767       14.36564       -4.10489
O          2.52123       15.20835       -3.83260
C         -1.23628        4.77637       -5.38568
C         -3.20368        8.43047       -5.86497
C         -4.10938        7.19697       -5.78797
C         -2.29689        3.74025       -5.11649
C          3.31037        4.01635        0.75190
C         -0.62948       16.33482       -4.23846
H         -2.27037       -0.04070        0.81782
H          1.41568       -2.60310        3.01194
H          3.52649        0.52375       -0.69954
H          4.76111        3.01112       -0.63542
H          4.30157        4.66488       -0.96730
H          0.13842       15.61383       -6.15156
H         -1.61034       15.32112       -5.84026
H          2.30354       13.01826       -6.88350
H          7.65978       15.47137       -3.80471
H          3.80217       13.83314       -1.44462
H         -1.44858        5.39521       -6.28953
H         -0.35745        4.16583       -5.74494
H         -3.77722        9.24948       -6.35350
H         -2.50089        8.12868       -6.68414
H         -5.08180        7.39536       -5.30037
H         -4.35741        6.91462       -6.84950
H         -3.59729        6.32701       -5.35953
H         -1.94769        3.06065       -4.31628
H         -3.24224        4.22894       -4.85282
H         -2.44448        3.13140       -6.04554
H          2.83923        3.12691        1.21083
H          4.09665        4.41137        1.43356
H          2.53317        4.81659        0.67417
H          0.34849       16.50246       -3.73699
H         -0.91499       17.34219       -4.63491
H         -1.40294       16.18923       -3.44468
