62
CBM.sdf
C         -3.01870        1.36155       -0.00311
C         -1.65836        1.66359       -0.03256
C         -0.77020        0.60543        0.00563
C         -1.16604       -0.69873        0.08774
C         -2.48843       -0.96962        0.14576
C         -3.46089        0.02185        0.08665
C          0.56974        0.58983       -0.03736
C          0.94454       -0.72468        0.01555
N         -0.12263       -1.56737        0.08831
C          1.47277        1.63008       -0.13248
C          2.82717        1.31003       -0.18423
C          3.25383       -0.03660       -0.12571
C          2.27218       -1.02604       -0.02283
C         -0.13644       -3.07058        0.11299
C         -0.77435       -3.71904        1.36203
C          4.69002       -0.43494       -0.17137
C          5.15439       -1.59787        0.47506
C          6.52309       -1.94619        0.43919
C          7.48402       -1.13675       -0.21193
C          6.99918       -0.00430       -0.89009
C          5.63864        0.33461       -0.87772
N          4.37417       -2.44949        1.19336
S          5.38863       -3.61898        1.69565
N          6.82701       -3.09276        1.09355
C          8.96131       -1.46291       -0.17362
C         10.00289       -0.77470       -0.75062
C         -4.89954       -0.37091        0.10995
C         -5.90988        0.38375       -0.52816
C         -7.26293       -0.03592       -0.50663
C         -7.64264       -1.20887        0.16911
C         -6.62817       -1.93419        0.81666
C         -5.30243       -1.54024        0.78356
N         -5.69000        1.53455       -1.20928
S         -7.17301        1.98858       -1.73012
N         -8.13260        0.78622       -1.15074
C         -9.06420       -1.67573        0.18417
C         11.35050       -1.22298       -0.61891
C          9.95576        0.42033       -1.56094
C         -9.67342       -2.38608        1.17373
C        -11.04657       -2.79031        1.06309
C         -9.08447       -2.77199        2.43308
N        -12.14642       -3.14640        1.04168
N         -8.66910       -3.10897        3.45997
N          9.90970        1.37918       -2.21010
N         12.46550       -1.51690       -0.56175
H         -3.68580        2.19097       -0.04158
H         -1.31431        2.68370       -0.09481
H         -2.74731       -1.91988        0.22305
H          1.14574        2.65469       -0.16875
H          3.50627        2.13012       -0.24881
H          2.52817       -2.00712       -0.00236
H         -0.70791       -3.47020       -0.75214
H          0.89608       -3.46759        0.04761
H         -1.84716       -3.50651        1.46296
H         -0.74223       -4.80999        1.36914
H         -0.20900       -3.55623        2.27005
H          7.65306        0.63973       -1.44732
H          5.33937        1.20541       -1.44192
H          9.23516       -2.35910        0.38842
H         -6.80757       -2.84200        1.34651
H         -4.62272       -2.18980        1.31410
H         -9.66880       -1.40128       -0.67789
