123
CPIC-3.sdf
C          2.65767        3.47335      -11.07972
O          2.23752        2.34176      -10.91294
C          3.98318        3.80527      -11.58979
C          5.08754        2.99920      -11.81508
C          6.31767        3.64248      -12.05487
C          6.40449        5.05532      -12.07443
C          5.25435        5.83650      -11.93570
C          4.06469        5.17783      -11.70949
C          2.75937        5.71865      -11.46828
C          2.08066        6.56984      -12.28651
C          0.66409        6.84009      -12.09763
N         -0.46600        7.07949      -11.98487
C          2.71731        7.03497      -13.52912
N          3.26465        7.37682      -14.49812
C          2.21507        4.77522      -10.51839
C          1.93321        5.09017       -9.23919
C        -12.66598        1.77026        6.26227
O        -11.60402        1.72288        5.67692
C        -12.79081        2.09137        7.65748
C        -11.77928        2.27276        8.57476
C        -12.13667        2.35664        9.92284
C        -13.49457        2.26095       10.31190
C        -14.51227        2.17481        9.34157
C        -14.12101        2.11285        8.00874
C        -14.87120        2.07039        6.75961
C        -15.87052        2.89864        6.37387
C        -16.26273        2.96435        4.98234
N        -16.53244        2.96576        3.85679
C        -16.40907        3.89792        7.25972
N        -16.83581        4.69721        7.97941
C        -14.01766        1.38296        5.81292
C        -14.46561        0.59825        4.82076
C        -13.61045       -0.09529        3.88643
S        -12.11129        0.51975        3.44798
C        -11.98083       -0.64378        2.30567
C        -12.98567       -1.53669        2.21980
C        -13.96603       -1.22084        3.12948
C        -11.23480       -0.69635        1.15366
C        -11.77012       -1.59104        0.28851
C        -12.84317       -2.44276        0.98387
S        -10.05854        0.27660        0.56452
C        -10.21257       -0.44319       -0.95090
C        -11.17986       -1.47467       -0.97109
C         -2.98329        1.90987       -5.22072
S         -2.06742        1.27137       -6.50328
C         -0.77170        2.22388       -6.06463
C         -0.98664        2.99660       -4.95895
C         -2.25035        2.81068       -4.44150
C          0.37066        2.69376       -6.73042
C          0.84228        3.73612       -6.02699
C          0.15613        3.97430       -4.69097
S          0.84234        2.66154       -8.33349
C          1.60667        4.15771       -8.14954
C          1.56740        4.56111       -6.82386
C          1.06773        3.51004       -3.50981
C          2.44328        4.19088       -3.37739
C         -0.36111        5.46341       -4.60043
C         -1.09942        5.93677       -3.32705
C        -14.19294       -2.60083        0.19044
C        -14.14387       -3.26374       -1.21480
C        -12.11566       -3.78320        1.33622
C        -12.89678       -4.88964        2.05678
F        -13.81644        2.25166       11.62609
F        -11.16089        2.48018       10.85121
F          7.43906        2.90284      -12.20787
F          7.60555        5.66709      -12.20250
C         -9.45098        0.08889       -2.06190
S         -8.42688        1.44499       -1.91894
C         -7.76401        1.07565       -3.40002
C         -8.31659        0.01032       -4.03287
C         -9.31551       -0.56515       -3.28573
C         -6.58301        1.41646       -4.07127
C         -6.42159        0.60905       -5.14613
C         -7.57485       -0.36232       -5.31228
S         -5.24820        2.31628       -3.69854
C         -4.39294        1.64017       -5.00292
C         -5.17802        0.74772       -5.74681
C         -8.40373       -0.06372       -6.59997
C         -9.06496        1.32733       -6.67816
C         -6.96381       -1.80590       -5.21265
C         -7.90126       -3.01450       -5.34630
H          5.01928        1.92230      -11.73558
H          5.29281        6.91933      -11.92357
H          2.07398        6.13954       -8.96014
H        -10.74856        2.29975        8.24788
H        -15.55811        2.10493        9.61748
H        -15.53194        0.41930        4.72508
H        -14.90095       -1.70184        3.16693
H        -11.46422       -2.03940       -1.84877
H         -2.65977        3.35214       -3.60919
H          1.86888        5.47345       -6.47663
H          0.53241        3.70368       -2.56295
H          1.25032        2.41259       -3.58055
H          2.36343        5.28560       -3.35817
H          2.93281        3.86825       -2.43782
H          3.15317        3.88295       -4.16036
H          0.49629        6.15648       -4.72428
H         -1.06623        5.63394       -5.44084
H         -0.46019        6.05020       -2.44754
H         -1.46216        6.96847       -3.47323
H         -1.97475        5.33589       -3.06562
H        -14.89417       -3.21074        0.80306
H        -14.64808       -1.59806        0.04871
H        -13.67886       -4.26006       -1.23019
H        -15.16699       -3.37882       -1.62249
H        -13.65119       -2.66198       -1.98933
H        -11.71087       -4.22450        0.40080
H        -11.25758       -3.54786        2.00092
H        -13.66445       -5.35399        1.42376
H        -12.21161       -5.73764        2.25377
H        -13.33038       -4.54083        3.01341
H         -9.81642       -1.47700       -3.55025
H         -4.82213        0.16281       -6.58489
H         -7.71980       -0.11427       -7.46850
H         -9.19012       -0.83898       -6.73909
H         -8.33006        2.13243       -6.54474
H         -9.52464        1.46200       -7.67659
H         -9.88473        1.46832       -5.95839
H         -6.18522       -1.93990       -5.99126
H         -6.47134       -1.89470       -4.22107
H         -8.24140       -3.14918       -6.38486
H         -7.33417       -3.93573       -5.10780
H         -8.75665       -2.98616       -4.66187
