154
CZTT-IC.sdf
C         -2.06324       -1.15785        1.82422
C         -1.36816       -1.31637        0.64527
S         -1.21914       -0.07357        2.85489
C          0.05950        0.13642        1.73304
C         -0.17241       -0.59890        0.62410
C          1.28401        0.82125        1.72947
C          2.06518        0.59535        0.56906
S          1.15185       -0.46170       -0.38770
C          3.44745        1.08116        0.18401
C          4.03199        2.24400        0.61110
C          5.40798        2.82764        0.29489
C          5.49532        4.11114        1.09059
C          4.32708        4.28900        1.78358
C          3.43151        3.23979        1.53207
C          6.48982        5.09801        1.23488
C          6.25154        6.20207        2.08401
C          5.03989        6.32805        2.78016
C          4.06253        5.36123        2.62650
O          2.35541        3.24727        2.07621
C          6.38277        2.34087       -0.53115
C          7.64732        3.01147       -0.71938
C          6.24809        1.14686       -1.32303
N          6.19131        0.19577       -1.98040
N          8.67457        3.51492       -0.90049
C         -9.63308       -7.04555        0.45178
C        -10.69648       -6.48895       -0.21932
S         -9.81042       -8.68487        0.79468
C        -11.36281       -8.66538        0.12315
C        -11.72660       -7.45727       -0.38842
C        -12.30991       -9.67250        0.11303
C        -13.56570       -9.29773       -0.44069
S        -13.31491       -7.63542       -0.86614
C        -14.83892      -10.18958       -0.55410
C        -16.06123       -9.81958       -1.10168
C        -17.40743      -10.56649       -1.26314
C        -18.32543       -9.60662       -2.00794
C        -17.65441       -8.43134       -2.19990
C        -16.35224       -8.49937       -1.68921
O        -15.65208       -7.53157       -1.78660
C        -17.79217      -11.79798       -0.80915
C        -19.14021      -12.29356       -0.98710
N        -20.20818      -12.72759       -1.10655
C        -16.94280      -12.70117       -0.07919
N        -16.31970      -13.47599        0.51304
C        -19.65107       -9.67303       -2.50204
C        -20.21128       -8.53995       -3.14429
C        -19.47273       -7.35772       -3.29497
C        -18.17965       -7.30584       -2.81934
C        -10.50114       -4.96405       -0.22036
C         -8.95047       -4.89938        0.08395
C         -8.62223       -6.06457        0.75428
C        -10.98762       -4.19663       -1.50127
C        -11.31807       -4.54679        1.11565
C        -11.98320       -3.18803       -1.45429
C        -12.39940       -2.46521       -2.54047
C        -11.86342       -2.70968       -3.78626
C        -10.89051       -3.71201       -3.90602
C        -10.45515       -4.43642       -2.78125
C        -11.93272       -5.51703        1.97445
C        -12.85344       -5.16570        2.94940
C        -13.22613       -3.83358        3.12924
C        -12.52734       -2.86047        2.45112
C        -11.55675       -3.20516        1.53210
C        -12.35002       -1.91362       -4.96174
C        -14.36823       -3.42942        4.00804
C         -7.89127       -3.94055       -0.10211
C         -6.75028       -4.05534        0.73875
C         -6.66056       -5.03253        1.70182
C         -7.51483       -6.16354        1.59933
C         -5.56578       -3.33178        0.87559
C         -5.09806       -3.55412        2.14245
N         -5.67968       -4.70952        2.61169
C         -5.26407       -5.49416        3.79121
C         -4.23678       -6.55522        3.44371
C         -4.75532       -2.67981       -0.06061
C         -3.44696       -2.30488        0.41793
C         -3.28503       -2.00342        1.75593
C         -4.10497       -2.66337        2.68880
C         -1.98415       -2.42807       -0.16523
C         -1.27188       -3.77915        0.48420
C         -1.75562       -5.11763        0.34634
C         -1.17511       -6.21861        1.01526
C         -0.05932       -6.09827        1.81463
C          0.50460       -4.84842        1.91882
C         -0.07253       -3.74084        1.29005
C         -1.83899       -2.33519       -1.70711
C         -2.22966       -1.21373       -2.45755
C         -2.04775       -1.12330       -3.83480
C         -1.42399       -2.16421       -4.51174
C         -1.04380       -3.29013       -3.81020
C         -1.26727       -3.37750       -2.45511
C        -12.10902       -0.41239       -4.77974
C        -14.16331       -3.85441        5.44795
C          0.53695       -7.28918        2.53943
C          0.98685       -8.38753        1.57576
C         -1.09200       -2.08509       -5.95447
C          0.30895       -1.49728       -6.10309
H          1.55584        1.38356        2.57837
H          4.00368        0.41521       -0.48039
H          7.43157        5.05442        0.72741
H          7.00318        6.96483        2.20847
H          4.84974        7.16704        3.43482
H          3.11358        5.43519        3.15055
H        -11.96790      -10.57953        0.55146
H        -14.75255      -11.20789       -0.16297
H        -20.26670      -10.54608       -2.41975
H        -21.21817       -8.56449       -3.52752
H        -19.88175       -6.47970       -3.77717
H        -17.58192       -6.40674       -2.92467
H        -12.50990       -2.86837       -0.61288
H        -13.15493       -1.71137       -2.36028
H        -10.46237       -3.93615       -4.86712
H         -9.69932       -5.17304       -2.94160
H        -11.78043       -6.57928        1.89872
H        -13.31343       -5.95883        3.50611
H        -12.74402       -1.80325        2.58131
H        -11.12790       -2.32739        1.14352
H        -11.82761       -2.25948       -5.87373
H        -13.44101       -2.08610       -5.08882
H        -14.51207       -2.32501        3.96074
H        -15.28961       -3.90047        3.60356
H         -7.95543       -3.04475       -0.69194
H         -7.44691       -7.07204        2.16064
H         -4.77957       -4.84008        4.52979
H         -6.13416       -6.02086        4.22615
H         -3.35993       -6.09305        2.99055
H         -3.87021       -7.15380        4.28920
H         -4.73001       -7.27198        2.81549
H         -5.07181       -2.83854       -1.07088
H         -3.80650       -2.59904        3.71403
H         -2.57968       -5.39996       -0.25848
H         -1.57390       -7.19781        0.92310
H          1.40696       -4.71428        2.50076
H          0.50129       -2.87918        1.48750
H         -2.66074       -0.37025       -2.02371
H         -2.37120       -0.22640       -4.34688
H         -0.54974       -4.11465       -4.30019
H         -0.94623       -4.29151       -2.05341
H        -11.02544       -0.20511       -4.65896
H        -12.48152        0.13574       -5.66782
H        -12.65748       -0.02139       -3.89643
H        -13.26013       -3.36083        5.86083
H        -15.04938       -3.55907        6.04077
H        -14.06156       -4.95622        5.51555
H          1.41667       -6.96270        3.13623
H         -0.21488       -7.70932        3.24376
H          1.76435       -8.00073        0.88524
H          1.42227       -9.23634        2.14010
H          0.12489       -8.76943        0.98888
H         -1.09982       -3.11102       -6.38251
H         -1.84672       -1.47330       -6.48516
H          1.06042       -2.11872       -5.56314
H          0.57727       -1.47105       -7.17583
H          0.34360       -0.46629       -5.68814
