89
DICTF.sdf
C         -5.67871       -3.49870       -1.06349
O         -6.81433       -3.15399       -0.81333
C         -5.37834       -4.85067       -1.44371
C         -6.27266       -5.91576       -1.58925
C         -5.76365       -7.16427       -1.96372
C         -4.38795       -7.32398       -2.18297
C         -3.51379       -6.24033       -2.02989
C         -4.02234       -4.98512       -1.65204
C         -3.33480       -3.67340       -1.40238
C         -1.99104       -3.42595       -1.48603
C         -1.34924       -2.14932       -1.23193
N         -0.82530       -1.13311       -1.03098
C         -1.04567       -4.44093       -1.83426
N         -0.24467       -5.22699       -2.11078
C         -4.41091       -2.70592       -1.02129
C         -4.20018       -1.40276       -0.71456
C         -5.16068       -0.40668       -0.33404
C         -6.35712       -0.53943        0.33294
C         -7.00942        0.65932        0.53486
C         -6.29313        1.71359       -0.00467
S         -4.88981        1.17976       -0.70253
C         -6.64609        3.09772       -0.01221
C         -5.61823        4.06236       -0.01283
C         -5.92663        5.40135       -0.00935
C         -7.26366        5.73839       -0.00292
C         -8.28456        4.81269        0.00374
C         -7.99536        3.46705       -0.00631
C         -9.63153        5.45359        0.03596
C        -10.43731        5.03420       -1.25224
C         -9.84837        5.40797       -2.63016
C        -10.36726        5.06943        1.37930
C         -9.69396        5.48190        2.70655
C         -9.19168        6.90636        0.01944
C         -7.81477        7.02226        0.00000
C         -7.13068        8.22753       -0.01595
C         -7.88285        9.38259       -0.01387
C         -9.28827        9.29849        0.00821
C         -9.94961        8.05352        0.02631
C        -10.06726       10.50537        0.01208
C        -11.43118       10.52854        0.03334
C        -11.93613       11.79710        0.02289
C        -10.96768       12.83426        0.00090
S         -9.47107       12.07436       -0.00457
C        -11.05171       14.34100       -0.02003
C        -12.03068       15.12540       -0.55389
C        -12.17047       16.64791       -0.61633
C        -11.33072       17.61140       -0.12741
C        -11.63674       19.01922       -0.26241
N        -11.89085       20.14403       -0.37601
C        -10.10234       17.31658        0.57409
N         -9.11147       17.11412        1.13913
C        -13.48087       16.89430       -1.33996
C        -14.20416       18.04597       -1.71744
C        -15.43633       17.89163       -2.40276
C        -15.94035       16.61672       -2.70708
C        -15.22807       15.49947       -2.33003
C        -14.03080       15.68081       -1.66243
C        -13.22894       14.62627       -1.22223
O        -13.57974       13.48435       -1.39186
H         -7.33369       -5.78325       -1.41423
H         -6.42787       -8.00867       -2.08353
H         -3.99079       -8.28857       -2.46994
H         -2.47450       -6.42286       -2.20824
H         -3.23422       -0.94353       -0.71787
H         -6.76699       -1.43993        0.67664
H         -7.95984        0.73619        1.05198
H         -4.57475        3.79317       -0.00826
H         -5.13769        6.14100       -0.01050
H         -8.79244        2.73170       -0.00436
H        -10.54826        3.93097       -1.25704
H        -11.44743        5.48370       -1.22924
H         -8.84826        5.01685       -2.80225
H        -10.45759        4.95540       -3.42931
H         -9.85759        6.49143       -2.82960
H        -11.37816        5.52208        1.41091
H        -10.48184        3.96767        1.42046
H         -9.72484        6.56889        2.88466
H        -10.22814        5.02849        3.55689
H         -8.67190        5.12787        2.81112
H         -6.04915        8.27705       -0.02896
H         -7.36570       10.33251       -0.02434
H        -11.02011        7.97780        0.04102
H        -12.08158        9.66262        0.05659
H        -12.99597       11.77178        0.03906
H        -10.20568       14.81551        0.45477
H        -13.86518       19.04160       -1.50807
H        -16.01198       18.75071       -2.70422
H        -16.87584       16.47451       -3.22905
H        -15.58989       14.49933       -2.54667
