104
EH-IDTBR.sdf
S         -5.33877        4.01072        2.04147
C         -4.71662        5.69192        1.92323
S         -5.32006        6.75259        2.68614
N         -3.70475        5.89813        0.93952
C         -3.08243        7.18268        0.61582
C         -2.21512        7.70076        1.76410
C         -3.39004        4.74459        0.30824
O         -2.53724        4.68637       -0.56713
C         -4.13762        3.56309        0.77488
C         -3.85267        2.31492        0.33999
C         -4.49031        1.02594        0.74966
C         -3.73220       -0.15066        0.64323
N         -2.45509       -0.17728        0.17624
S         -2.05620       -1.77306        0.29437
N         -3.41608       -2.46345        0.92239
C         -4.25908       -1.40604        1.06063
C         -5.57383       -1.51021        1.55383
C         -6.34881       -0.33755        1.60727
C         -5.81322        0.90883        1.23132
C         -6.12075       -2.80625        2.03498
C         -7.47435       -3.21045        2.05788
C         -7.61390       -4.49592        2.60522
C         -6.43663       -5.02297        3.01631
S         -5.14497       -4.02835        2.71164
C         -6.61689       -6.30204        3.61348
C         -7.96959       -6.62175        3.51357
C         -8.75300       -5.48031        2.85880
C         -9.78623       -4.94614        3.89098
C        -10.63824       -3.76201        3.43020
C         -9.43462       -5.94525        1.54208
C         -8.46896       -6.54502        0.51325
C         -8.44343       -7.85133        4.00841
C         -7.50075       -8.68297        4.63016
C         -6.15538       -8.32441        4.76406
C         -5.67817       -7.12444        4.23258
C         -5.37410       -9.36825        5.54500
C         -4.22549       -9.97755        4.69779
C         -4.67957      -10.59304        3.36893
C         -4.79842       -8.77811        6.86073
C         -5.85125       -8.16095        7.79031
C         -6.47672      -10.36349        5.81274
C         -7.65081       -9.96774        5.26172
S         -8.85347      -11.10027        5.51154
C         -7.83212      -12.13415        6.41723
C         -6.54262      -11.57495        6.49220
C         -8.26627      -13.42623        7.00929
C         -7.64982      -13.99189        8.13941
N         -6.62962      -13.40675        8.82048
S         -6.34276      -14.47840       10.04262
N         -7.44749      -15.67485        9.77733
C         -8.10564      -15.23415        8.67337
C         -9.15280      -15.95004        8.06103
C         -9.76602      -15.36198        6.93563
C         -9.34141      -14.12365        6.43299
C         -9.56859      -17.26384        8.64328
C        -10.19666      -18.29139        8.02150
S        -10.63490      -18.38594        6.27449
C        -11.10783      -20.09063        6.56136
S        -11.39221      -20.96782        5.45597
N        -11.01895      -20.52458        7.91593
C        -11.36803      -21.86107        8.39969
C        -12.86247      -22.14431        8.24252
C        -10.52176      -19.55187        8.71464
O        -10.33639      -19.71668        9.91278
H         -2.41501        7.08693       -0.26762
H         -3.86866        7.92261        0.35515
H         -1.41092        6.96896        1.99065
H         -1.74450        8.66092        1.46303
H         -2.80636        7.88233        2.68211
H         -3.02047        2.22783       -0.35267
H         -7.36531       -0.37282        1.97864
H         -6.46020        1.76602        1.30756
H         -8.29402       -2.61773        1.67728
H        -10.48499       -5.76890        4.15997
H         -9.24941       -4.64460        4.81811
H        -11.25990       -4.03228        2.55272
H        -11.32835       -3.47343        4.25116
H        -10.00968       -2.88424        3.19048
H        -10.20356       -6.71198        1.78266
H         -9.94080       -5.08623        1.05506
H         -7.95201       -7.43667        0.92526
H         -9.03841       -6.85879       -0.38696
H         -7.71230       -5.79479        0.20175
H         -9.48643       -8.13062        3.93938
H         -4.63958       -6.83407        4.32045
H         -3.48092       -9.18259        4.47117
H         -3.71225      -10.76785        5.28773
H         -5.16980       -9.83179        2.72645
H         -3.79600      -10.98901        2.82547
H         -5.38515      -11.43147        3.54550
H         -4.27133       -9.57939        7.42310
H         -4.05425       -7.98997        6.61086
H         -6.58631       -8.92703        8.11464
H         -5.35200       -7.75458        8.69475
H         -6.38847       -7.33052        7.28620
H         -5.68890      -12.01909        6.98303
H        -10.59760      -15.82352        6.43581
H         -9.85204      -13.72400        5.56606
H         -9.29138      -17.42796        9.68008
H        -10.77281      -22.62385        7.85367
H        -11.12988      -21.96627        9.48037
H        -13.17561      -22.12385        7.18048
H        -13.09088      -23.15365        8.64486
H        -13.45329      -21.39184        8.80592
