94
H-IDTzR.sdf
C          2.33818       -1.60433       -0.53075
C          2.62384       -1.00127        0.69959
C          1.80563       -0.02155        1.27763
C          0.65127        0.33652        0.56344
C          0.36257       -0.27740       -0.65520
C          1.17751       -1.25231       -1.23334
C          3.40902       -2.62971       -0.90859
C          4.28560       -2.53550        0.31749
C          3.83199       -1.59939        1.18639
C          5.43716       -3.19461        0.74263
C          5.85223       -2.70990        1.98905
S          4.80367       -1.47862        2.53746
C         -0.42651        1.35724        0.93650
C         -1.35217        1.19441       -0.25329
C         -0.87163        0.26951       -1.11950
C         -2.58007        1.73528       -0.64108
C         -3.01192        1.16663       -1.84721
S         -1.88012        0.02847       -2.42036
C          7.01426       -3.18144        2.74487
C         -4.27741        1.43758       -2.53024
C         -1.13338        0.97501        2.26699
S         -4.77422        0.61735       -3.89697
C         -6.25584        1.39029       -3.99438
C         -6.31016        2.30128       -2.93464
N         -5.21481        2.31911       -2.12149
S          7.57773       -2.45188        4.13897
C          8.85597       -3.52196        4.34067
C          8.77537       -4.45821        3.30820
N          7.76501       -4.25525        2.41636
C         -7.35661        1.18692       -4.97321
C          9.89125       -3.54835        5.40629
C         10.27709       -2.56330        6.25534
C          9.84127       -1.14745        6.33428
N         10.50344       -0.40752        7.25332
C         11.47393       -1.18140        7.95104
S         11.57400       -2.90346        7.45769
O          9.00557       -0.64674        5.60511
C         10.27671        1.02746        7.43100
C          9.70255        1.35025        8.80868
S         12.43802       -0.62464        8.86165
C         -7.46218        0.30994       -6.00506
C         -6.52124       -0.72941       -6.49806
N         -6.97309       -1.42958       -7.56615
C         -8.26246       -0.99323       -7.97925
S         -8.96761        0.32864       -6.99771
S         -9.04108       -1.64999       -8.99792
C         -6.19401       -2.49152       -8.20068
C         -6.14488       -3.73302       -7.31299
O         -5.42435       -0.95212       -6.02387
C         -1.76960       -0.42139        2.26135
C          0.22113        2.76822        0.99949
C         -0.74414        3.93171        1.24157
C          2.82925       -4.05985       -1.07972
C          4.24718       -2.19144       -2.14537
C          3.48510       -2.05988       -3.46693
C          2.10099       -4.59661        0.15779
H          2.04671        0.42784        2.23176
H          0.90970       -1.71534       -2.17253
H          5.93593       -3.97510        0.18336
H         -3.14014        2.46553       -0.07317
H         -0.39548        1.02026        3.09730
H         -1.94476        1.69985        2.48440
H         -7.16220        2.94174       -2.75001
H          9.47419       -5.27719        3.19705
H         -8.20968        1.84268       -4.82070
H         10.42520       -4.49064        5.49220
H         11.22564        1.58013        7.26618
H          9.54413        1.41139        6.68570
H         10.40000        1.06626        9.62021
H          9.51834        2.44366        8.88018
H          8.73916        0.81696        8.95252
H         -6.64052       -2.79890       -9.16840
H         -5.16847       -2.12188       -8.42165
H         -7.17666       -4.11603       -7.15983
H         -5.54437       -4.52424       -7.80932
H         -5.69268       -3.51088       -6.32486
H         -1.00722       -1.20657        2.07759
H         -2.24234       -0.61584        3.24685
H         -2.55852       -0.49077        1.48274
H          0.97927        2.78137        1.81311
H          0.75182        2.96617        0.04087
H         -1.26555        3.83014        2.21425
H         -0.16874        4.88103        1.26489
H         -1.48613        4.01172        0.42428
H          2.11450       -4.07480       -1.92889
H          3.66001       -4.76099       -1.31509
H          4.71668       -1.20317       -1.93852
H          5.06751       -2.92699       -2.29570
H          2.72907       -1.25354       -3.41375
H          4.19827       -1.77768       -4.26981
H          3.00356       -3.01526       -3.75591
H          1.23903       -3.94949        0.42094
H          1.72442       -5.61957       -0.05261
H          2.79097       -4.65764        1.02588
