148
i-cc34.sdf
C          0.62399       -1.43351       -0.86320
C          1.46785       -2.76509       -0.87755
S          1.80171       -3.86607       -2.18395
C          2.93856       -4.75083       -1.50876
C          3.04470       -4.37885       -0.20924
C          2.23237       -3.29577        0.18444
C          4.18210       -5.28055       -2.00544
C          4.99831       -5.20667       -0.89234
C          4.11476       -5.21298        0.39556
C          4.63883       -5.37805       -3.34117
C          6.04875       -5.28033       -3.56483
C          6.74131       -4.78140       -2.46928
C          6.31294       -4.79364       -1.16388
C          7.01318       -5.20626       -4.80843
C          7.63694       -3.88241       -4.36832
C          7.62190       -3.79120       -3.01812
C          8.05436       -2.68545       -4.97248
C          8.25993       -1.60200       -4.08289
S          7.98841       -2.21074       -2.51173
C          4.82390       -4.69580        1.67039
C          3.36098       -6.59344        0.60750
C          8.19997       -6.28672       -4.65687
C          6.25787       -5.24346       -6.20050
C          3.48638       -7.67005       -0.31540
C          2.77036       -8.84621       -0.17184
C          1.88378       -9.04036        0.89309
C          1.72290       -8.00169        1.81600
C          2.43343       -6.79749        1.67062
C          4.16079       -4.03567        2.73667
C          4.86824       -3.56667        3.84629
C          6.25045       -3.75712        3.94436
C          6.90956       -4.43613        2.92856
C          6.20751       -4.91164        1.83822
C          6.32196       -4.19650       -7.15534
C          5.66569       -4.20980       -8.35294
C          4.84420       -5.26493       -8.70419
C          4.73282       -6.33326       -7.81416
C          5.43566       -6.33282       -6.59552
C          8.34488       -7.12626       -3.50305
C          9.39939       -8.02658       -3.34225
C         10.39218       -8.15134       -4.30936
C         10.31576       -7.33529       -5.44385
C          9.25114       -6.42076       -5.61578
C          1.10803      -10.33153        1.05297
C          1.40326      -11.33958       -0.06226
C          7.02541       -3.25751        5.12758
C          6.52107       -3.88164        6.42571
C         11.52610       -9.13343       -4.10703
C         11.57915      -10.19352       -5.20816
C          4.08235       -5.25254       -9.99769
C          4.34346       -3.98301      -10.81533
S         -0.32919       -0.96102        0.43728
C         -0.96344        0.47661       -0.20694
C         -0.42309        0.73892       -1.48590
C          0.46857       -0.34674       -1.85216
C         -0.80516        2.06470       -2.24709
O          1.10014       -0.33595       -3.05973
C          1.60714       -1.51172       -3.50444
C         -0.42942        2.56538       -3.48722
C          0.37659        1.84774       -4.46559
C          1.08213        2.80978       -5.22522
C          0.41491        3.98977       -5.21058
C         -0.70376        3.89132       -4.20369
C          2.19124        2.67551       -6.02631
S          2.33543        4.15274       -6.81570
C          0.96567        4.89887       -6.11248
O         -0.17353        0.99832       -5.15155
C         -1.72397        4.77437       -4.04978
C         -1.88648        5.82205       -5.03082
C         -2.71197        4.67139       -2.99233
N         -3.52867        4.63655       -2.16967
N         -1.94698        6.63188       -5.85719
C          8.52384       -0.14711       -4.48747
S          7.93511        0.52085       -5.92824
C          8.50116        2.10323       -5.74978
C          9.19689        2.19171       -4.55835
C          9.19753        0.92709       -3.81894
C          9.77594        3.52729       -4.10021
O          9.81465        0.75836       -2.61019
C         10.52035        1.78159       -1.99646
C         11.01565        4.03187       -4.39158
C         11.99921        3.45195       -5.32727
C         13.31286        3.94415       -4.94214
C         13.18232        4.96887       -4.03801
C         11.74414        5.20328       -3.74053
C         14.61101        3.58771       -5.26843
S         15.61544        4.62142       -4.38338
C         14.39674        5.51300       -3.61528
O         11.75756        2.74288       -6.29058
C         11.24961        6.28399       -3.09540
C         12.09662        7.39594       -2.71146
C          9.82904        6.46360       -2.92950
N          8.68126        6.55543       -2.82103
N         12.75295        8.29540       -2.39693
H          2.30424       -2.89947        1.16035
H          3.89700       -5.36116       -4.12062
H          6.97557       -4.32801       -0.47136
H          8.17844       -2.58250       -6.00723
H          4.11312       -7.65237       -1.19274
H          2.93212       -9.60201       -0.92259
H          1.04194       -8.11667        2.65345
H          2.22902       -6.04730        2.41302
H          3.10386       -3.86129        2.77151
H          4.33096       -3.05426        4.63178
H          7.97661       -4.61312        2.96944
H          6.80196       -5.46740        1.15040
H          6.83531       -3.30394       -7.10791
H          5.82094       -3.34582       -8.98536
H          4.09703       -7.17199       -8.05331
H          5.28419       -7.19752       -5.98661
H          7.67894       -7.12270       -2.66201
H          9.42563       -8.62449       -2.43844
H         11.08829       -7.40643       -6.20063
H          9.28897       -5.83265       -6.51571
H          1.36780      -10.79185        2.03153
H          0.01844      -10.11023        1.04549
H          2.48800      -11.59599       -0.05994
H          0.82082      -12.26398        0.08004
H          1.13085      -10.89980       -1.05012
H          8.10407       -3.50571        5.01087
H          6.92914       -2.15430        5.17679
H          6.63082       -4.98700        6.39432
H          7.11071       -3.48520        7.27691
H          5.45325       -3.62759        6.59227
H         12.48911       -8.58036       -4.08373
H         11.40590       -9.65433       -3.13039
H         11.74140       -9.71707       -6.19754
H         12.41811      -10.89645       -5.01536
H         10.63750      -10.78109       -5.23262
H          4.37542       -6.14100      -10.59404
H          2.99993       -5.30993       -9.75662
H          5.42829       -3.91892      -11.07191
H          3.75506       -3.99100      -11.74212
H          4.05538       -3.08467      -10.21741
H         -1.67746        1.08217        0.34275
H         -1.41176        2.74883       -1.66584
H          2.54989       -1.60142       -2.91388
H          0.69141       -2.16655       -3.40664
H          2.03882       -1.97001       -4.41988
H          2.79881        1.77782       -6.11816
H          0.61572        5.88834       -6.32904
H          8.33491        2.93517       -6.42417
H          9.23701        4.01264       -3.30270
H         11.36684        2.09106       -2.65415
H          9.81384        2.59713       -1.79295
H         10.91506        1.57909       -0.98698
H         14.92254        2.78414       -5.92036
H         14.57078        6.31088       -2.90712
