80
SSTI.sdf
C         -2.23360        0.46403        2.33824
O         -2.57880        1.61261        2.19830
C         -1.05039        0.23849        3.05517
C         -0.24369        1.21129        3.67143
C          0.90680        0.77260        4.32339
C          1.21550       -0.59343        4.33275
C          0.37737       -1.52245        3.70368
C         -0.78418       -1.09624        3.06151
C         -1.85479       -1.85961        2.33661
C         -1.88822       -3.21837        2.16805
C         -2.87671       -3.96596        1.42513
N         -3.69707       -4.51533        0.81735
C         -0.89109       -4.08393        2.68636
N         -0.12689       -4.85843        3.06945
C         -2.82905       -0.84053        1.84619
C        -11.61560        9.91607       -2.05706
O        -11.36577        9.01405       -2.83885
C        -12.89746       10.53649       -2.08011
C        -14.10611        9.92593       -2.42656
C        -15.23119       10.72951       -2.56485
C        -15.10923       12.11429       -2.36804
C        -13.88984       12.68544       -1.95322
C        -12.76055       11.87042       -1.78514
C        -11.34393       12.14275       -1.32539
C        -10.82091       13.36458       -0.98283
C         -9.48374       13.62376       -0.47968
N         -8.42680       13.88061       -0.07787
C        -11.58728       14.55243       -1.18803
N        -12.23146       15.49482       -1.36581
C        -10.66302       10.79126       -1.32333
C         -9.48129       10.53388       -0.68688
C         -8.62798        9.35457       -0.36724
C         -7.37970        9.29620        0.33839
S         -9.05619        7.79528       -0.73764
C         -7.69247        7.07491       -0.06734
C         -6.91559        8.01132        0.49972
C         -7.31840        5.68331       -0.05327
C         -5.95298        5.28106       -0.03957
C         -5.62198        3.92292       -0.02845
C         -6.65074        2.95101       -0.05267
C         -7.99069        3.35674       -0.06445
C         -8.32089        4.72241       -0.05660
N         -9.04885        2.50647       -0.05363
S        -10.34781        3.52517       -0.03467
N         -9.64921        5.01326       -0.03142
C         -6.29786        1.56199       -0.01847
S         -4.93428        1.15354        0.75958
C         -5.01680       -0.40427        0.56345
C         -6.18113       -0.72416       -0.17920
C         -6.92511        0.42323       -0.49901
C         -6.51935       10.39550        0.89202
C         -5.54415       10.83267       -0.13908
C         -6.62168       -2.09301       -0.60709
C         -6.73554       -2.21968       -2.12424
C         -3.95402       -1.18451        1.13422
N         -4.88172        6.12623       -0.06803
S         -3.57714        5.12664       -0.02608
N         -4.28029        3.64927       -0.02396
H         -0.48924        2.27657        3.65712
H          1.56409        1.47386        4.81928
H          2.10456       -0.94747        4.83031
H          0.66605       -2.54365        3.74507
H        -14.16480        8.85420       -2.59785
H        -16.17431       10.28263       -2.86063
H        -15.95789       12.75262       -2.53725
H        -13.86382       13.73734       -1.79705
H         -9.13549       11.35149       -0.22046
H         -6.03218        7.73124        1.02917
H         -7.84787        0.41479       -1.06738
H         -7.15031       11.23253        1.19812
H         -5.83156       10.02633        1.68954
H         -6.09923       11.29961       -0.89016
H         -4.90829       11.67400        0.09974
H         -4.93962        9.96284       -0.42100
H         -5.94879       -2.87843       -0.25701
H         -7.54731       -2.30359       -0.07289
H         -5.79406       -1.98499       -2.63897
H         -7.15083       -3.19112       -2.44489
H         -7.40045       -1.48008       -2.51376
H         -4.14856       -2.16506        0.93953
