97
SY3.sdf
C         -5.08088       -2.29012        2.40421
O         -6.23829       -2.22471        2.03748
C         -4.66714       -2.90992        3.63165
C         -5.47119       -3.22591        4.72387
C         -4.86634       -3.75545        5.86467
C         -3.47962       -3.98288        5.88490
Cl        -2.74102       -4.61813        7.34448
C         -2.68669       -3.67843        4.75628
C         -3.30395       -3.12260        3.61310
C         -2.75489       -2.61243        2.30899
C         -1.49487       -2.81833        1.81716
C         -0.95114       -2.26177        0.61722
N         -0.59899       -1.77425       -0.37706
C         -0.52518       -3.64415        2.50405
N          0.27101       -4.29496        3.03723
C         -3.89096       -1.82623        1.68455
C         -3.85231       -0.85853        0.71854
C         -4.98840        0.03371        0.21209
S         -6.66180        0.14170        0.74657
C         -7.21617        1.33926       -0.31729
C         -6.06909        1.67972       -1.05059
C         -4.82193        1.04781       -0.76984
C         -3.48941        1.44977       -1.46803
C         -3.46586        1.33201       -3.00184
S         -6.43433        2.86738       -2.18804
C         -8.04979        2.96498       -1.73015
C         -8.39031        2.14122       -0.69699
N         -9.74129        2.35584       -0.38387
C        -10.52293        1.61302        0.64286
C        -10.12557        3.48559       -1.15456
C         -9.10518        3.76099       -2.08262
C         -9.18141        4.76459       -3.07775
N         -8.23531        5.01097       -4.02013
S         -8.83564        6.35155       -4.79359
N        -10.23308        6.67634       -3.98457
C        -10.27165        5.66841       -3.07986
C        -11.20125        5.57311       -2.07783
C        -11.19316        4.51998       -1.11881
N        -12.09345        4.89502       -0.15558
C        -12.55520        4.34216        1.09287
C        -13.73586        3.42427        0.88266
C        -12.28283        6.21305       -0.38142
C        -12.01812        6.59894       -1.62736
S        -11.81082        8.29243       -1.83350
C        -11.57783        8.47056       -0.14252
C        -11.77506        7.23555        0.43704
S        -10.53159        6.97538        1.54532
C         -9.60761        8.35046        1.15362
C        -10.52208        9.20736        0.41535
C        -10.47180       10.73790        0.43713
C        -11.60672       11.25537        1.44006
C         -8.05835        8.32667        1.39474
C         -7.10511        9.01477        0.66487
C         -5.56769        9.19163        0.63506
C         -4.47579        8.34202        0.70288
C         -3.18312        8.86757        0.28357
N         -2.17319        9.32335       -0.05601
C         -4.42597        6.91699        0.96599
N         -4.26931        5.78260        1.15519
C         -5.40428       10.61689        0.18501
C         -4.33896       11.55200        0.23896
C         -4.49965       12.79891       -0.39800
Cl        -3.14284       13.91385       -0.48693
C         -5.72100       13.12647       -1.02051
Cl        -5.94569       14.68164       -1.80322
C         -6.76185       12.19450       -1.03874
C         -6.56337       10.97211       -0.44704
C         -7.50607        9.90880       -0.39319
O         -8.41476        9.74435       -1.18657
C        -11.79363        0.84146        0.08257
H         -6.53496       -3.02664        4.70519
H         -5.47274       -3.97123        6.73604
H         -1.62413       -3.84274        4.82226
H         -2.88778       -0.64716        0.29869
H         -3.23468        2.50748       -1.21507
H         -2.62053        0.86751       -1.11374
H         -4.22201        1.97095       -3.49880
H         -2.47805        1.66617       -3.39893
H         -3.61156        0.27982       -3.30611
H         -9.89784        0.98622        1.29274
H        -10.89219        2.19426        1.32452
H        -11.78808        3.85211        1.59118
H        -12.78412        5.11498        1.85444
H        -13.61578        2.52819        0.32118
H        -14.04426        3.05601        1.88680
H        -14.43409        3.98337        0.23275
H         -9.57395       11.05521        0.89400
H        -10.65638       11.23672       -0.54043
H        -11.55090       10.74133        2.42916
H        -11.44108       12.34453        1.62707
H        -12.65234       11.17285        1.07630
H         -7.69598        7.64767        2.15648
H         -3.39529       11.35870        0.73155
H         -7.71992       12.37667       -1.49924
H        -12.27843        1.50232       -0.67667
H        -11.91322       -0.08599       -0.47321
H        -12.36115        0.47181        0.98376
