64
Th-PhCHO.sdf
C         -1.17520       -0.31567        1.15157
C         -1.37051       -1.68697        0.61235
C         -0.42321        0.72791        0.62228
C         -0.39801        1.86465        1.44291
C         -1.10877        1.72146        2.62646
S         -1.76911        0.17969        2.65592
C         -2.65098       -2.27926        0.49916
C         -2.83479       -3.64005        0.15006
C         -1.72156       -4.47492       -0.17662
C         -0.45020       -3.83304       -0.15635
C         -0.28719       -2.49599        0.21940
C          0.82217       -4.28138       -0.51907
N          1.74209       -3.29209       -0.37253
C          1.07020       -2.21295        0.10513
C          3.16165       -3.35372       -0.72921
C          3.39126       -2.59378       -2.03509
O          1.10117       -5.37770       -0.96481
O          1.60924       -1.15037        0.35530
C         -5.70982       -0.10055        0.76427
C         -6.69066       -1.11366        0.55248
C         -6.22713       -2.46877        0.42426
C         -4.84088       -2.67859        0.42634
C         -3.91678       -1.69719        0.61242
C         -4.34024       -0.38334        0.80108
C         -7.02280       -3.63125        0.28927
C         -6.41996       -4.89649        0.12923
C         -5.02087       -5.03265        0.06922
C         -4.22391       -3.88870        0.20578
C         -8.11324       -0.65081        0.35019
C         -1.85032       -5.88843       -0.63507
C         -2.75595       -6.36732       -1.57880
C         -2.62626       -7.73610       -1.84524
C         -1.61307       -8.34971       -1.12572
S         -0.88379       -7.18873       -0.15818
C         -8.97990       -1.31074       -0.54884
C        -10.25609       -0.81339       -0.82287
C        -10.70471        0.36520       -0.21850
C         -9.86255        1.03548        0.67612
C         -8.58658        0.53787        0.95524
C        -12.06185        0.91747       -0.55736
O        -13.06666        0.01819       -0.17167
H          0.08415        0.68199       -0.32958
H          0.13215        2.76998        1.18211
H         -1.21089        2.46905        3.40086
H          3.78035       -2.94038        0.09604
H          3.46949       -4.40592       -0.90412
H          3.08676       -1.53046       -1.94133
H          4.46041       -2.64348       -2.32472
H          2.78653       -3.06399       -2.84289
H         -5.97862        0.94251        0.83942
H         -3.66197        0.44260        0.89956
H         -8.09830       -3.60291        0.33477
H         -7.04421       -5.77695        0.04297
H         -4.61589       -6.01906       -0.04868
H         -3.48624       -5.74555       -2.07932
H         -3.25102       -8.26426       -2.55295
H         -1.33596       -9.39367       -1.18544
H         -8.67346       -2.18196       -1.10313
H        -10.88432       -1.33592       -1.53411
H        -10.18403        1.95600        1.14831
H         -7.97601        1.10349        1.64416
H        -12.24388        1.88423       -0.04040
H        -12.12039        1.13609       -1.64971
H        -13.21136       -0.59783       -0.93574
