95
TPBT-RCN.sdf
C         -5.00187        0.20277        0.52549
O         -5.87337       -0.44523        1.07515
N         -5.19682        1.53612        0.15680
C         -4.06551        2.08685       -0.40804
S         -2.83490        0.91822       -0.40830
C         -3.74033       -0.33428        0.27057
C         -3.24480       -1.58137        0.50613
C         -3.90935       -2.86325        0.99109
S         -5.55904       -3.41620        0.76886
C         -5.28657       -5.05432        1.18193
C         -3.94942       -5.10971        1.53283
C         -3.17550       -3.95990        1.50668
C         -1.71152       -4.05439        1.93325
C         -1.58545       -4.54640        3.40482
S         -3.37692       -6.65948        1.76751
C         -4.86106       -7.24707        1.36615
C         -5.85513       -6.38069        1.16063
N         -7.00894       -7.07184        0.81870
C         -8.17838       -6.37307        0.27936
C         -6.61105       -8.42283        0.69101
C         -5.23462       -8.43038        0.91563
C         -4.36357       -9.43778        0.55402
N         -3.02073       -9.40965        0.73664
S         -2.54113      -10.79937       -0.00895
N         -3.95562      -11.43889       -0.57603
C         -4.86484      -10.51748       -0.17597
C         -6.23372      -10.65511       -0.26853
C         -7.15134       -9.75400        0.31021
N         -8.31148      -10.51107        0.52809
C         -9.50128      -10.26319        1.37387
C        -10.62097       -9.53345        0.65446
C         -7.97790      -11.77783        0.05037
C         -6.86788      -11.77326       -0.65547
S         -6.44134      -13.24862       -1.31827
C         -7.59102      -14.11369       -0.41408
C         -8.16717      -13.15057        0.45237
S         -7.44786      -13.60703        1.92745
C         -6.47802      -14.94809        1.43386
C         -7.00449      -15.29809        0.12887
C         -6.67018      -16.47179       -0.80653
C         -7.56246      -17.68956       -0.58642
C         -5.24657      -15.52066        2.23166
C         -4.31214      -14.84466        3.06729
S         -2.93712      -15.45463        3.94023
C         -2.32081      -13.94502        4.54648
N         -3.18704      -12.97844        4.05818
C         -4.32063      -13.51096        3.44056
O         -5.32834      -12.84621        3.34490
C         -8.07057       -6.32551       -1.23685
C         -3.87913        3.34984       -0.90855
C         -2.57976        3.75618       -1.40348
N         -1.55470        4.11649       -1.80367
C         -4.87896        4.39492       -0.99676
N         -5.64201        5.26253       -1.09083
C         -1.27256      -13.67119        5.45590
C         -0.81453      -12.32293        5.71756
N         -0.41688      -11.26152        5.96253
C         -0.64495      -14.59779        6.44031
N         -0.09997      -15.24434        7.24881
C         -3.18110      -11.50527        4.23522
C         -3.78767      -11.06515        5.55999
C         -6.49597        2.19686        0.40582
C         -6.54823        2.87587        1.77801
H         -2.19004       -1.70035        0.24874
H         -1.20382       -4.79746        1.27947
H         -1.16927       -3.09320        1.84983
H         -2.17306       -5.45587        3.63625
H         -0.53599       -4.81898        3.64271
H         -1.93671       -3.77845        4.12039
H         -9.12203       -6.75774        0.58311
H         -8.24953       -5.35073        0.68055
H         -9.95359      -11.24677        1.64266
H         -9.24291       -9.73883        2.30140
H        -10.86446      -10.15890       -0.18268
H        -11.54967       -9.49966        1.25535
H        -10.35813       -8.50928        0.35437
H         -6.74040      -16.16529       -1.87726
H         -5.75437      -17.00217       -0.59578
H         -8.62837      -17.48631       -0.78564
H         -7.21764      -18.49510       -1.28215
H         -7.42184      -18.07178        0.45081
H         -5.08646      -16.57249        2.11801
H         -7.13720       -5.78603       -1.49060
H         -8.02008       -7.34815       -1.66760
H         -8.93115       -5.78525       -1.68083
H         -2.20596      -11.04568        3.97566
H         -3.83845      -11.05470        3.45322
H         -3.09598      -11.23201        6.40246
H         -4.02737       -9.98119        5.50112
H         -4.73146      -11.61938        5.74534
H         -6.76813        2.89060       -0.40657
H         -7.30227        1.43348        0.39665
H         -5.80635        3.69651        1.85280
H         -7.56343        3.30267        1.93841
H         -6.36255        2.13597        2.58720
