113
TPDCIC.sdf
C         -2.15010        2.05623        0.03267
O         -2.95568        2.91134        0.32441
C         -0.76291        2.33568        0.11126
C         -0.18959        3.53189        0.54294
C          1.19939        3.63409        0.52898
C          1.97521        2.54910        0.09384
C          1.36595        1.35773       -0.33581
C         -0.03433        1.25812       -0.33160
C         -0.96422        0.15128       -0.74260
C         -0.59318       -1.10776       -1.15249
C         -1.51763       -2.15056       -1.49474
N         -2.23449       -3.01339       -1.77837
C          0.78009       -1.51364       -1.29178
N          1.86861       -1.88598       -1.41854
C         -2.36254        0.71221       -0.57409
C         -3.53681        0.10943       -0.93045
C         -9.94070        6.22865       15.92718
O         -9.46287        6.54914       14.85894
C         -9.31035        6.66682       17.09722
C         -8.18721        7.49026       17.14050
C         -7.63094        7.76148       18.38107
C         -8.21284        7.21870       19.53278
C         -9.34627        6.39648       19.44873
C         -9.89999        6.10540       18.19747
C        -11.02436        5.20495       17.77785
C        -11.88458        4.54285       18.61330
C        -12.92894        3.64103       18.16142
N        -13.77050        2.91574       17.82748
C        -11.77788        4.67498       20.05145
N        -11.68425        4.78748       21.20103
C        -10.98031        5.20227       16.27641
C        -11.68671        4.38005       15.45634
C        -11.69823        4.44741       14.00400
S        -11.93229        3.08439       13.04658
C        -11.55983        3.96154       11.70027
C        -11.31230        5.26105       11.90095
C        -11.42378        5.56982       13.21643
C        -11.28161        3.64873       10.38640
C        -10.82676        4.74400        9.73761
C        -10.88943        5.98381       10.62795
S        -11.27831        2.25039        9.52082
C        -10.63083        3.06043        8.18553
C        -10.42745        4.42922        8.44638
C        -10.32257        2.36899        6.94538
C         -9.20236        1.62313        3.24036
S         -8.04850        2.67228        2.57169
C         -7.98444        1.73720        1.20271
C         -8.84721        0.68493        1.18789
C         -9.54935        0.59214        2.37086
C         -6.96707        1.48356        0.27458
C         -7.20958        0.29806       -0.30991
C         -8.60379       -0.23275        0.00552
S         -5.40148        1.96844        0.15104
C         -4.92424        0.57063       -0.66626
C         -6.05974       -0.23934       -0.85415
C         -9.55725        0.16721       -1.18589
C         -9.72924        1.67108       -1.48273
C         -8.61046       -1.75883        0.38028
C         -7.78360       -2.20569        1.61394
C         -9.48655        6.67446       10.80031
C         -8.35755        5.83165       11.43604
C        -12.01383        6.94152       10.11722
C        -13.45585        6.39881       10.08971
S         -9.67364        3.09164        5.56061
C         -9.63371        1.68676        4.61999
C        -10.12730        0.65847        5.39695
C        -10.49032        1.02394        6.65815
C        -10.37968       -0.77446        5.28085
N        -10.88399       -1.23211        6.45178
C        -10.97299       -0.18764        7.31296
C        -11.26180       -2.60448        6.73493
C        -12.35396       -3.06858        5.77493
O        -11.39710       -0.27627        8.45078
O        -10.17076       -1.47677        4.30773
H         -0.80344        4.36596        0.87343
H          1.67567        4.54933        0.85115
H          3.05236        2.63217        0.08434
H          2.00458        0.56420       -0.66491
H         -3.51195       -0.83729       -1.43212
H         -7.73662        7.88313       16.23127
H         -6.74579        8.37484       18.45090
H         -7.77347        7.41692       20.49538
H         -9.71557        5.99355       20.36035
H        -12.28306        3.57215       15.84285
H        -11.23314        6.53719       13.52733
H        -10.01364        5.13371        7.74853
H        -10.20384       -0.20735        2.63908
H         -6.05658       -1.21538       -1.24359
H         -9.15805       -0.27940       -2.12277
H        -10.57248       -0.25129       -1.02375
H         -8.75420        2.18818       -1.59413
H        -10.31727        1.81068       -2.41165
H        -10.35238        2.17122       -0.72747
H         -9.65613       -2.08164        0.57178
H         -8.22378       -2.33354       -0.48569
H         -8.18636       -1.87429        2.57835
H         -7.82814       -3.30516        1.71371
H         -6.72016       -1.91346        1.56638
H         -9.11270        7.00293        9.80666
H         -9.60234        7.57618       11.44052
H         -8.14476        4.89699       10.90470
H         -7.41689        6.39782       11.47678
H         -8.50221        5.61687       12.49641
H        -12.02137        7.84707       10.75410
H        -11.78264        7.24925        9.07491
H        -13.86390        6.17274       11.07386
H        -14.14825        7.19059        9.76673
H        -13.58190        5.52424        9.43477
H        -10.37700       -3.26819        6.63341
H        -11.63032       -2.68710        7.77962
H        -11.99462       -3.01807        4.72599
H        -12.63462       -4.11181        6.00059
H        -13.25660       -2.43179        5.87976
