145
TPIC.sdf
C          0.92031       -1.18755       -0.15455
C          0.47682       -0.89694        1.11718
C          0.73745       -1.59564        2.45754
C         -0.09981       -0.84306        3.47812
C         -0.71945        0.19008        2.85270
C         -0.40142        0.21456        1.52339
C         -0.33789       -0.98356        4.86301
C         -1.18112       -0.05454        5.51977
C         -1.78088        0.99930        4.81516
C         -1.55004        1.12260        3.46612
O         -0.80520        1.17646        0.99889
C          1.55883       -2.64927        2.75550
C          1.69240       -3.13550        4.10195
C          2.35618       -3.35074        1.77294
N          1.83668       -3.56561        5.16584
N          2.98155       -3.89182        0.96123
C          0.55250       -0.40981       -1.41152
S          1.06318       -0.69990       -3.03023
C          0.30747        0.67493       -3.66202
C         -0.31596        1.35412       -2.67798
C         -0.24776        0.73071       -1.49224
C          3.50105       10.40033      -11.43490
C          4.10396       10.26736      -12.67232
C          4.76225       11.31773      -13.56674
C          5.18666       10.56304      -14.81381
C          4.83268        9.25549      -14.68488
C          4.31596        9.00623      -13.43788
C          5.85679       10.91167      -16.00018
C          6.11951        9.91409      -16.97177
C          5.70091        8.58860      -16.78050
C          5.04815        8.25349      -15.61972
O          4.40060        7.85964      -13.05592
C          4.95410       12.65681      -13.35388
C          5.62573       13.49184      -14.32482
C          4.47801       13.37676      -12.20029
N          6.16916       14.13203      -15.12337
N          4.11403       13.99703      -11.29251
C          0.22966        1.45019       -4.86688
C         -0.33046        2.67504       -4.46394
C         -0.92238        2.69644       -3.05680
C          0.61759        1.20873       -6.21440
C          0.60027        2.32828       -7.10738
C          0.29845        3.53978       -6.54349
C         -0.26484        3.73312       -5.31684
C          0.88302        2.53241       -8.64981
C          0.94629        4.15154       -8.64533
C          0.68332        4.56671       -7.36946
C          1.22516        5.38071       -9.34511
C          1.45186        6.43477       -8.46600
S          1.07646        6.15206       -6.89126
N          1.41371        5.84995      -10.61764
C          1.89477        7.12793      -10.41096
C          1.98251        7.48114       -9.14142
C          2.30385        8.15399      -11.21933
C          2.87667        9.26047      -10.64430
S          2.67154        9.03448       -8.96740
C         -2.49689        2.61772       -3.14766
C          1.15604        5.17550      -11.91171
C          2.35253        4.43761      -12.36404
C         -0.35761        3.90991       -2.18500
C          2.31228        1.94834       -8.99298
C         -0.28813        1.84138       -9.48893
C         -1.15814        4.95333       -1.62922
C         -0.69659        5.99804       -0.90430
C          0.64388        6.14280       -0.66832
C          1.51630        5.17058       -1.17410
C          1.02530        4.07343       -1.91117
C         -3.15742        1.93510       -4.20722
C         -4.56468        1.92265       -4.30562
C         -5.35704        2.59207       -3.35944
C         -4.73149        3.24362       -2.31496
C         -3.36289        3.22664       -2.20725
C         -1.36546        1.17112       -8.87586
C         -2.42998        0.59783       -9.54688
C         -2.49060        0.64034      -10.92581
C         -1.42866        1.22394      -11.60019
C         -0.37159        1.79526      -10.89896
C          3.17753        1.34334       -8.04562
C          4.44602        0.87974       -8.34468
C          4.93225        0.95591       -9.64080
C          4.10509        1.50539      -10.61422
C          2.84068        1.96387      -10.29009
C          1.11364        7.34901        0.09184
C          0.50390        7.41917        1.49491
C         -6.85894        2.63072       -3.43303
C         -7.46097        1.23130       -3.37579
C          6.29433        0.42320       -9.97967
C          6.37425       -0.08352      -11.42285
C         -3.63862        0.01913      -11.66204
C         -4.98489        0.63131      -11.26779
H          1.57974       -2.03857       -0.29209
H          0.09162       -1.76404        5.45685
H         -1.37349       -0.13919        6.57565
H         -2.42246        1.72567        5.29310
H         -1.99975        1.92662        2.89053
H         -0.77737        1.24757       -0.89035
H          3.45011       11.38282      -10.98130
H          6.20117       11.90184      -16.19912
H          6.65386       10.15798      -17.87318
H          5.89026        7.81147      -17.50534
H          4.72689        7.22958      -15.42553
H          0.94270        0.22449       -6.51399
H         -0.62016        4.70348       -5.08210
H          2.19156        8.14367      -12.18102
H          0.40322        4.38302      -11.79595
H          0.92562        5.90038      -12.71029
H          2.60342        3.96486      -11.50915
H          2.34483        3.75678      -13.24045
H          3.19456        5.04949      -12.37749
H         -2.15359        5.15209       -1.69161
H         -1.43538        6.70938       -0.54931
H          2.57775        5.26720       -1.00759
H          1.76293        3.38693       -2.25411
H         -2.60193        1.41587       -4.97459
H         -5.03855        1.39992       -5.12291
H         -5.29862        3.77715       -1.55828
H         -3.08797        3.69962       -1.32524
H         -1.46159        1.05077       -7.86287
H         -3.19719        0.12238       -8.95240
H         -1.38717        1.24511      -12.67930
H          0.33073        2.16766      -11.56311
H          2.95978        1.16103       -7.04315
H          5.02219        0.45267       -7.53559
H          4.40719        1.58582      -11.64315
H          2.29853        2.27002      -11.10811
H          2.21665        7.31824        0.16433
H          0.82151        8.26717       -0.46610
H          0.77334        6.51065        2.07261
H          0.88112        8.31506        2.02151
H         -0.60226        7.51467        1.45345
H         -7.26349        3.22280       -2.57825
H         -7.16684        3.13187       -4.37327
H         -7.19732        0.72049       -2.42502
H         -8.56574        1.30712       -3.43592
H         -7.09619        0.62093       -4.22781
H          7.04126        1.22850       -9.82603
H          6.53534       -0.41904       -9.29460
H          6.19674        0.73995      -12.14521
H          7.38052       -0.48012      -11.63336
H          5.62640       -0.88845      -11.59057
H         -3.47890        0.15153      -12.75146
H         -3.65538       -1.06818      -11.43785
H         -5.00375        1.71605      -11.49729
H         -5.80384        0.14403      -11.83394
H         -5.18638        0.47897      -10.18721
