126
TPQ-F.sdf
C          1.60525        2.80444        2.27630
O          1.11351        3.85193        1.92991
C          2.51272        2.71516        3.39150
C          3.33202        3.70502        3.95231
C          4.22792        3.33271        4.96794
F          5.08184        4.24466        5.49317
C          4.27517        2.00379        5.41209
F          5.17246        1.62781        6.35813
C          3.41662        1.05021        4.85996
C          2.51506        1.42610        3.84244
C          1.56929        0.58799        3.04372
C          1.15983       -0.63815        3.50418
C          0.41050       -1.53116        2.64017
N         -0.17733       -2.17967        1.88028
C          1.36555       -1.01273        4.94274
N          1.47338       -1.39634        6.04126
C          1.23633        1.45467        1.79457
C          0.74235        1.19516        0.50841
C          0.62056        2.24213       -0.66070
S          0.38444        3.97417       -0.57003
C          0.75851        4.39874       -2.14198
C          1.00533        3.19461       -2.76954
C          0.81057        1.98282       -2.06405
C          0.90492        0.61354       -2.74304
C         -0.11946        0.36990       -3.89374
S          1.68986        3.44728       -4.27136
C          1.73642        5.11058       -4.01967
C          1.08652        5.54413       -2.94445
N          1.14452        6.91318       -2.86696
C          0.54126        7.67124       -1.80924
C          1.52944        7.90353       -0.64288
C          2.10548        7.29726       -3.80625
C          2.54472        6.13302       -4.39172
C          3.78307        5.97598       -4.96307
N          4.16996        4.74660       -5.33676
C          5.43372        4.40462       -5.64251
C          5.58923        2.95601       -6.04870
C          6.42326        5.43502       -5.53406
C          7.88434        5.15222       -5.63111
N          6.01999        6.71755       -5.17809
C          4.71469        7.01675       -4.86597
C          4.22554        8.29284       -4.40302
C          2.87308        8.51505       -4.03372
N          2.65082        9.88047       -3.85119
C          1.37536       10.60955       -3.82092
C          0.76384       10.83338       -2.47046
C          3.89323       10.45388       -3.85704
C          4.83702        9.49065       -4.09194
S          6.39285       10.04916       -3.83218
C          5.81477       11.61483       -3.44242
C          4.46258       11.75882       -3.61868
S          4.13655       13.43279       -3.30728
C          5.74086       13.93704       -2.85223
C          6.49360       12.72163       -2.91222
C          7.83412       12.51604       -2.29833
C          7.71667       12.05656       -0.81564
C          6.33108       15.34636       -2.46938
C          5.71109       16.58966       -2.38276
C          6.33535       17.99631       -2.30249
C          7.59878       18.36764       -1.95267
C          8.05788       19.72881       -2.14641
N          8.39908       20.82403       -2.31223
C          8.52843       17.47005       -1.30886
N          9.31752       16.80065       -0.78945
C          5.22901       18.96313       -2.67367
C          5.14221       20.37595       -2.76465
C          3.90907       20.97423       -3.10815
F          3.80037       22.32352       -3.17059
C          2.78045       20.18074       -3.36894
F          1.59212       20.73947       -3.70665
C          2.86333       18.80250       -3.22500
C          4.07295       18.24034       -2.84790
C          4.28027       16.86203       -2.51208
O          3.37303       16.14648       -2.12715
C          6.55555        2.46403       -6.95034
C          6.58380        1.09840       -7.29636
C          5.65108        0.19327       -6.75564
C          4.69701        0.67585       -5.85948
C          4.66892        2.02670       -5.52062
C          8.76267        6.11906       -6.13677
C         10.13552        5.86508       -6.20607
C         10.66922        4.64696       -5.75176
C          9.80049        3.68643       -5.21531
C          8.42958        3.93909       -5.15006
C         12.15279        4.37962       -5.81547
F         12.83014        5.45883       -6.35578
F         12.63720        4.15204       -4.54063
F         12.40527        3.26861       -6.59997
F          6.67332       -1.56660       -8.00780
F          5.84504       -2.03624       -5.97317
C          5.65825       -1.27723       -7.11482
F          4.45308       -1.63875       -7.69369
H          3.32603        4.72282        3.58492
H          3.52395        0.03610        5.20334
H          0.55866        0.15157        0.25805
H          1.91776        0.38997       -3.13543
H          0.64140       -0.13259       -1.98487
H          0.04471        0.95767       -4.82608
H         -0.06167       -0.69847       -4.20392
H         -1.16382        0.54888       -3.56345
H          0.00979        8.39663       -2.38168
H         -0.36895        7.21963       -1.40303
H          2.48397        8.37428       -0.95735
H          1.07469        8.53983        0.14888
H          1.77406        6.90928       -0.20097
H          1.55580       11.64787       -4.15427
H          0.67476       10.16279       -4.56540
H          1.43162       11.22832       -1.72375
H         -0.23168       11.28851       -2.53729
H          0.57368       10.04477       -1.91815
H          8.47711       11.83683       -2.89673
H          8.28545       13.48615       -2.25779
H          7.23107       11.06302       -0.67799
H          8.73393       11.98822       -0.37627
H          7.15419       12.79819       -0.19710
H          7.41698       15.38322       -2.38087
H          5.96119       21.03602       -2.55419
H          2.00238       18.17037       -3.38920
H          7.27534        3.12582       -7.40859
H          7.33156        0.74605       -7.99324
H          3.97132        0.00384       -5.41839
H          3.92777        2.34261       -4.81659
H          8.38793        7.06841       -6.49454
H         10.78125        6.62911       -6.61317
H         10.17657        2.74310       -4.83370
H          7.80888        3.18201       -4.69178
