126
TPQx-4F.sdf
C          1.31808       -0.55316        2.82687
O          2.27909       -0.88026        3.50458
C          0.59840        0.74011        2.95009
C          0.83797        1.83430        3.79690
C          0.03733        2.98778        3.66721
F          0.26247        4.06590        4.46123
C         -0.99013        3.03516        2.70812
F         -1.74767        4.15643        2.57841
C         -1.24981        1.91601        1.90067
C         -0.44034        0.76739        2.04287
C         -0.54935       -0.60597        1.48014
C         -1.75482       -1.22453        1.49925
C         -1.83887       -2.66291        1.51620
N         -1.85717       -3.81967        1.52351
C         -2.96992       -0.47587        1.75994
N         -3.90458        0.17558        1.96984
C          0.76088       -1.30803        1.66037
C          1.45588       -2.32940        0.99601
C          1.21263       -3.09450       -0.35311
S         -0.24421       -3.47500       -1.20361
C          0.43552       -4.15106       -2.64798
C          1.78588       -4.05646       -2.44380
C          2.23958       -3.59743       -1.22502
C          3.68606       -3.64777       -0.96353
C          4.08621       -4.95665       -0.35096
S          2.70881       -4.35724       -3.80315
C          1.32063       -4.57512       -4.71197
C          0.16335       -4.58320       -4.01100
N         -0.90508       -4.72522       -4.87721
C         -2.33680       -4.77306       -4.54030
C         -2.69183       -4.64030       -3.08361
C         -0.37913       -4.45874       -6.15142
C          0.91165       -4.03591       -5.87874
C          1.22411       -2.65985       -6.05661
N          2.33441       -2.10199       -5.52379
C          2.50992       -0.76253       -5.38837
C          3.72723       -0.38042       -4.62359
C          1.44524        0.10219       -5.80738
C          1.41391        1.58071       -5.66568
N          0.33416       -0.46227       -6.35465
C          0.19016       -1.80196       -6.47802
C         -0.93083       -2.38180       -7.05677
C         -1.13315       -3.73323       -7.10792
N         -2.13722       -4.04545       -7.99886
C         -2.57916       -5.36530       -8.47069
C         -2.33383       -6.46295       -7.46183
C         -2.62626       -2.82367       -8.36272
C         -1.99711       -1.84883       -7.65711
S         -2.64788       -0.32894       -7.73213
C         -3.74570       -0.95373       -8.85500
C         -3.57121       -2.25596       -9.23321
S         -4.63241       -2.55458      -10.54453
C         -5.31303       -0.96627      -10.53294
C         -4.83198       -0.33899       -9.39624
C         -5.78016        0.33964       -8.41094
C         -6.15017        1.76493       -8.66846
C         -6.13531       -0.17638      -11.51855
C         -7.02585       -0.55382      -12.47148
C         -7.81936        0.36879      -13.38937
C         -7.58996        1.69029      -13.70916
C         -8.46672        2.42987      -14.58502
N         -9.19956        2.98216      -15.29146
C         -6.43554        2.42083      -13.24981
N         -5.49474        2.96994      -12.85825
C         -8.92145       -0.49122      -13.93635
C        -10.05525       -0.19187      -14.71237
C        -10.93670       -1.22741      -15.07443
F        -12.04547       -0.94496      -15.79725
C        -10.68336       -2.55174      -14.68332
F        -11.53666       -3.54982      -15.02070
C         -9.55407       -2.84472      -13.92518
C         -8.70580       -1.80405      -13.56321
C         -7.54069       -1.91330      -12.73018
O         -7.17725       -2.96388      -12.23187
C          3.94925        0.74530       -3.85266
C          5.08690        0.76971       -3.10173
C          5.87306       -0.33978       -3.30609
S          5.08296       -1.34879       -4.40664
S          0.02955        2.50617       -5.45321
C          0.82881        3.99608       -5.39954
C          2.16870        3.80355       -5.57192
C          2.45800        2.48348       -5.77932
C          0.20097        5.32947       -5.29873
C          0.04204        5.69450       -3.83723
C          7.13805       -0.65909       -2.56985
C          7.85431        0.58779       -2.12103
H          1.62611        1.80577        4.53565
H         -2.06604        1.96049        1.19077
H          2.40293       -2.56083        1.49447
H          4.39753       -3.33444       -1.77474
H          3.76070       -3.03020       -0.12669
H          4.00170       -5.77444       -1.09448
H          5.10543       -4.73791        0.01775
H          3.48481       -5.20175        0.55303
H         -2.85519       -4.00002       -5.00784
H         -2.81904       -5.63545       -4.95004
H         -2.38044       -3.66965       -2.65704
H         -3.79749       -4.68456       -2.97969
H         -2.23015       -5.47902       -2.55087
H         -3.65973       -5.33443       -8.71489
H         -2.01124       -5.65193       -9.37960
H         -2.99142       -6.32707       -6.66838
H         -2.70929       -7.42732       -7.78847
H         -1.27845       -6.53981       -7.14368
H         -6.71168       -0.29791       -8.31751
H         -5.28928        0.39699       -7.41704
H         -6.68410        1.87372       -9.62266
H         -6.82510        2.11218       -7.85356
H         -5.22695        2.38088       -8.65227
H         -5.95696        0.89145      -11.41122
H        -10.29804        0.80139      -15.02625
H         -9.35160       -3.85821      -13.60613
H          3.34716        1.56937       -3.72310
H          5.26311        1.59882       -2.42469
H          2.93598        4.57066       -5.60268
H          3.43619        2.27033       -6.04792
H          0.84878        6.08576       -5.80013
H         -0.77173        5.30650       -5.82986
H          1.04291        5.73292       -3.35407
H         -0.43743        6.68901       -3.75320
H         -0.58324        4.93781       -3.31892
H          6.87692       -1.22074       -1.65460
H          7.83073       -1.21117       -3.22612
H          7.15971        1.10864       -1.44467
H          8.76605        0.41876       -1.51743
H          8.13930        1.13264       -3.04305
