132
TSeTIC.sdf
C          0.70965        1.01785        0.66545
O          0.59037        2.22129        0.61388
C         -0.43402        0.22013        0.56868
C         -0.13547       -1.08895        0.70674
C          1.33296       -1.26095        0.94358
C          1.91499       -2.46444        1.19978
C          1.12028       -3.66225        1.32603
N          0.51521       -4.64347        1.43185
C          3.32711       -2.69203        1.37010
N          4.44145       -2.94788        1.51675
C          1.92296        0.14956        0.84755
C          3.23847        0.54673        0.93855
C          3.74016        1.97863        0.84920
C          4.88874        2.46778        1.48694
C          5.25991        3.70171        1.05601
C          4.47360        4.25769        0.10899
Se         2.99910        3.28396       -0.21324
C          5.05686        5.39250       -0.45838
C          4.80164        6.31296       -1.66970
C          3.40719        7.14118       -1.64581
C          2.45281        7.06502       -0.59687
C          1.20753        7.74715       -0.67139
C          0.84684        8.45493       -1.81468
C         -0.47105        9.10202       -2.06408
C         -0.50006       10.54341       -1.57445
C          1.78369        8.63054       -2.75600
C          3.00612        8.08376       -2.63036
C          4.92927        5.37418       -2.93293
C          4.10302        4.26328       -3.11292
C          3.89291        3.59127       -4.23136
C          4.72210        3.78081       -5.28198
C          4.46559        2.95164       -6.49636
C          3.05664        3.19506       -7.07286
C          5.81308        4.66258       -5.10206
C          5.88217        5.49520       -3.94792
C          6.04568        7.25693       -1.44926
C          6.85881        6.83265       -0.38734
C          6.24675        5.66892        0.16677
S          6.66646        4.57996        1.38854
C          8.03006        7.50921        0.04220
C          8.34162        8.75425       -0.56537
C          9.44868        9.82643       -0.29739
C         10.02010        9.93928        1.19013
C         11.34748       10.34994        1.46125
C         11.88317       10.52565        2.71123
C         11.14623       10.26675        3.84143
C         11.79468       10.47413        5.19123
C         11.59049       11.90020        5.72363
C          9.83182        9.80230        3.66415
C          9.28670        9.65117        2.36122
C         10.61951        9.49762       -1.36044
C         11.05406       10.43197       -2.35544
C         11.99868       10.09854       -3.33667
C         12.57021        8.82555       -3.37782
C         13.51684        8.39121       -4.45295
C         14.32347        9.55536       -5.00456
C         12.22155        7.91776       -2.40942
C         11.29579        8.24358       -1.44110
C          8.66199       11.05885       -0.91067
C          7.84480       10.56604       -1.91042
C          7.52702        9.18571       -1.61295
C          6.42257        8.45595       -2.09690
S          6.94514       11.70149       -2.77155
C          7.45982       12.92473       -1.76121
C          8.25014       12.42168       -0.74207
Se         8.20884       13.59995        0.62982
C          6.62745       14.16030       -0.17517
C          6.80149       14.11923       -1.54384
C          5.30296       13.61126        0.32561
C          4.13959       14.33354        0.25937
C          2.82360       14.10419        0.98975
C          2.24699       12.97148        1.44622
C          1.07198       13.00929        2.29169
N          0.13474       13.09756        2.96780
C          2.74380       11.70372        1.02608
N          3.19775       10.71352        0.64719
C          2.17829       15.43614        1.05204
C          2.86845       16.31405        0.25993
C          4.00380       15.66196       -0.35241
O          4.65941       16.10925       -1.27736
C         -1.74019        0.58578        0.36239
S         -2.59205       -0.85731        0.32218
C         -1.26537       -1.89064        0.57797
C          2.34858       17.58612        0.16665
S          0.94401       17.58529        1.10125
C          1.01438       15.97313        1.60328
H          4.00494       -0.22213        1.07487
H          5.54753        1.97995        2.16036
H          2.63164        6.52142        0.29350
H          0.49936        7.73750        0.11899
H         -0.67430        9.12282       -3.16088
H         -1.24957        8.49708       -1.57916
H          0.23027       11.17181       -2.12944
H         -1.49514       10.95465       -1.77932
H         -0.27710       10.57321       -0.48758
H          1.62485        9.20935       -3.64761
H          3.53452        8.49264       -3.38386
H          3.58561        3.77975       -2.42607
H          3.04820        2.90394       -4.17728
H          5.22652        3.19979       -7.25723
H          4.54556        1.88368       -6.21644
H          2.93321        4.27256       -7.33579
H          2.88956        2.58265       -7.96280
H          2.26670        2.90851       -6.33880
H          6.57564        4.71963       -5.85067
H          6.68031        6.20255       -3.84877
H          8.60996        7.08659        0.84733
H         12.08595       10.55818        0.76490
H         12.90595       10.86982        2.74481
H         11.37036        9.74829        5.91253
H         12.89104       10.29211        5.11177
H         10.50739       12.11962        5.83275
H         12.07898       12.01441        6.70797
H         12.04918       12.65780        5.05253
H          9.23000        9.57193        4.52982
H          8.30257        9.31610        2.29283
H         10.67801       11.43347       -2.43554
H         12.26054       10.83171       -4.08165
H         14.21759        7.62541       -4.04589
H         12.93200        7.91323       -5.26440
H         14.95609       10.00889       -4.21131
H         14.98370        9.18559       -5.81225
H         13.63993       10.32424       -5.41772
H         12.64523        6.91803       -2.39424
H         11.18605        7.41464       -0.81987
H          5.86267        8.89750       -2.88670
H          7.59548       14.85951       -1.69422
H          5.31950       12.69874        0.91246
H         -2.10073        1.60373        0.24566
H         -1.32793       -2.95971        0.61640
H          2.75213       18.40471       -0.40635
H          0.25456       15.49480        2.19894
