132
TTIC-F.sdf
C         -0.61853       -0.48679        0.53081
C         -0.00574        0.34838       -0.39115
S         -0.73103        0.36202       -1.89875
C         -1.71093       -0.89059       -1.36149
C         -1.67720       -1.22818       -0.02074
C         -2.02987       -2.06590       -2.05449
C         -2.34160       -3.02195       -1.18149
C         -2.48294       -2.54432        0.25316
C         -1.87818       -3.55097        1.33472
C         -4.01843       -2.23597        0.42385
C         -1.40653       -3.06159        2.54914
C         -0.93186       -3.84432        3.59624
C         -0.92813       -5.22573        3.47043
C         -1.34728       -5.77350        2.27602
C         -1.80781       -4.96840        1.25155
C         -4.81710       -2.89872        1.38319
C         -6.18032       -2.71998        1.49216
C         -6.84389       -1.84330        0.65671
C         -6.10471       -1.13029       -0.30060
C         -4.71522       -1.32190       -0.42240
C         -0.49243       -6.12756        4.57387
C         -1.35186       -5.94333        5.82294
C         -8.33056       -1.71116        0.80547
C         -8.69573       -0.62252        1.80931
S         -1.75384       -2.66847       -3.58234
C         -2.10141       -4.25863       -3.13551
C         -2.45019       -4.21585       -1.79465
C         -2.01739       -5.47865       -3.98440
C         -1.14357       -5.64061       -5.02998
C         -0.09942       -4.69565       -5.54182
C          0.52423       -5.18870       -6.64965
C          0.06019       -6.42447       -6.95808
C         -0.99189       -6.83214       -5.95462
O          0.31377       -3.62841       -5.16232
C         -1.63866       -8.03290       -5.92718
C         -2.62691       -8.40484       -4.94665
C         -1.40976       -9.06397       -6.90935
N         -3.42689       -8.75966       -4.18845
N         -1.26645       -9.92551       -7.66957
C          1.51007       -4.48769       -7.33610
C          2.07198       -5.09236       -8.43149
C          1.63585       -6.37250       -8.80723
C          0.62854       -7.04574       -8.07561
S          0.32506       -0.58990        1.93627
C          1.54799        0.25220        1.23164
C          1.24167        0.79461        0.01143
C          2.93967        0.25724        1.42204
C          3.44651        0.97834        0.41665
C          2.41444        1.55763       -0.58428
C          2.78633        1.15240       -2.07650
C          2.13019        3.08756       -0.34679
C          2.89469       -0.16572       -2.57456
C          3.27140       -0.43829       -3.90655
C          3.56185        0.58920       -4.79603
C          3.46348        1.85207       -4.32583
C          3.05988        2.11226       -3.05478
C          3.12299        4.09561       -0.39854
C          2.86073        5.43619       -0.20815
C          1.58114        5.86274        0.09762
C          0.56202        4.90888        0.19532
C          0.82508        3.55182       -0.02474
C          3.95469        0.39537       -6.22936
C          2.95492        1.07957       -7.16322
C          1.32623        7.32520        0.34546
C          0.30956        7.89235       -0.63874
S          4.12300       -0.58670        2.29549
C          5.39575        0.01313        1.31415
C          4.81261        0.91536        0.40524
C          6.87585       -0.35028        1.28169
C          7.48261       -1.29643        2.07173
C          6.78894       -2.21235        2.99450
C          7.71011       -2.81825        3.85510
C          8.97376       -2.63194        3.40825
C          8.92555       -1.75814        2.18343
O          5.77340       -2.83249        2.74754
C          9.97415       -1.54235        1.35337
C          9.98530       -0.58169        0.28958
C         11.15695       -2.36453        1.46350
N         10.05502        0.17057       -0.58499
N         12.08238       -3.04933        1.58952
C          7.38565       -3.60704        4.93886
C          8.36807       -4.20980        5.66557
C          9.68920       -4.04734        5.26394
C         10.00725       -3.26093        4.12976
F         10.64840       -4.67854        5.96529
F          2.19672       -6.96290       -9.88212
H         -1.41468       -2.05200        2.71834
H         -0.59608       -3.34935        4.49740
H         -1.34026       -6.84203        2.11782
H         -2.09716       -5.58493        0.47433
H         -4.46261       -3.60154        2.08690
H         -6.70637       -3.29665        2.24475
H         -6.60330       -0.43900       -0.96394
H         -4.21452       -0.75916       -1.19450
H         -0.58444       -7.18214        4.23231
H          0.56700       -5.91310        4.80357
H         -2.41656       -6.18726        5.61366
H         -0.98267       -6.62317        6.61662
H         -1.28422       -4.89827        6.19312
H         -8.78127       -1.48882       -0.18104
H         -8.74784       -2.68068        1.16743
H         -8.31253        0.35999        1.46557
H         -9.79957       -0.56510        1.90294
H         -8.27397       -0.84752        2.81317
H         -2.71874       -4.93829       -1.19766
H         -2.71942       -6.26381       -3.72467
H          1.82754       -3.49219       -7.01427
H          2.83876       -4.56257       -8.97423
H          0.32927       -8.01876       -8.39811
H          2.68680       -1.01214       -1.98583
H          3.34426       -1.44862       -4.22645
H          3.68810        2.68355       -4.94058
H          2.98025        3.12406       -2.95732
H          4.14940        3.95308       -0.54664
H          3.69216        6.12936       -0.28401
H         -0.44200        5.21667        0.44123
H         -0.01544        2.88370        0.07241
H          4.96895        0.82199       -6.41412
H          3.98387       -0.68515       -6.44160
H          2.94431        2.17718       -6.99432
H          3.23638        0.89554       -8.21368
H          1.93835        0.67351       -6.99752
H          0.95520        7.46509        1.38317
H          2.27167        7.90443        0.24286
H         -0.66797        7.37743       -0.53297
H          0.15861        8.97215       -0.43255
H          0.67300        7.77654       -1.68156
H          5.30300        1.45551       -0.32685
H          7.48107        0.22209        0.57054
H          6.38498       -3.78691        5.22497
H          8.06077       -4.80935        6.51270
H         11.03084       -3.16862        3.85742
