138
TTIC-M.sdf
C         -0.56836       -0.53095        0.49514
C          0.01214        0.30937       -0.41664
S         -0.78827        0.38411       -1.88803
C         -1.72552       -0.89846       -1.38756
C         -1.64935       -1.26043       -0.05847
C         -2.02612       -2.07187       -2.11203
C         -2.30286       -3.03763       -1.23200
C         -2.46934       -2.56020        0.19385
C         -1.92442       -3.56362        1.29886
C         -4.00062       -2.20943        0.30253
C         -0.94097       -3.20221        2.17083
C         -0.40206       -3.91231        3.21263
C         -0.90270       -5.17173        3.44030
C         -1.86308       -5.65582        2.57678
C         -2.33756       -4.87972        1.54499
C         -4.73262       -2.30323        1.49828
C         -6.08232       -2.10625        1.60032
C         -6.81518       -1.76863        0.48415
C         -6.15014       -1.61956       -0.73753
C         -4.77497       -1.82812       -0.82974
C         -0.41692       -6.00974        4.56141
C         -1.23884       -5.76782        5.82411
C         -8.29555       -1.59022        0.60942
C         -8.64430       -0.48409        1.60249
S         -1.80119       -2.67035       -3.66739
C         -2.09805       -4.26901       -3.17247
C         -2.37641       -4.22871       -1.82932
C         -2.00744       -5.49494       -3.99913
C         -1.68283       -6.74463       -3.52805
C         -1.38124       -7.18611       -2.12314
C         -0.96831       -8.48461       -2.08833
C         -1.01834       -9.04243       -3.32656
C         -1.50014       -8.02147       -4.33064
O         -1.53748       -6.68816       -1.03798
C         -1.74299       -8.23818       -5.67480
C         -2.18253       -7.20477       -6.56775
C         -1.42048       -9.46995       -6.37724
N         -2.53565       -6.37792       -7.29082
N         -1.09949      -10.52279       -6.74866
C         -0.59667       -9.12399       -0.90995
C         -0.25519      -10.44638       -0.98832
C         -0.29137      -11.09226       -2.23722
C         -0.66877      -10.38993       -3.41208
S          0.44079       -0.54193        1.88668
C          1.61195        0.17233        1.17007
C          1.27430        0.73666       -0.01987
C          2.97537        0.14880        1.36282
C          3.44384        0.94498        0.42187
C          2.42134        1.55327       -0.57917
C          2.81669        1.19005       -2.07804
C          2.05269        3.05789       -0.31634
C          3.49618        0.02433       -2.49361
C          3.84032       -0.23838       -3.82973
C          3.49955        0.66252       -4.82814
C          2.83161        1.78235       -4.46289
C          2.53668        2.00892       -3.16328
C          2.98377        4.11676       -0.32361
C          2.67293        5.42944       -0.07663
C          1.37139        5.79599        0.19446
C          0.38656        4.79969        0.21721
C          0.71741        3.45781       -0.03115
C          3.81815        0.45639       -6.27422
C          2.54156        0.42912       -7.11683
C          1.05334        7.24549        0.45835
C          1.41680        8.12727       -0.73665
S          4.17853       -0.75811        2.16328
C          5.41453       -0.02028        1.24220
C          4.78304        0.92401        0.43421
C          6.89711       -0.34480        1.15627
C          7.41885       -1.60985        1.31681
C          6.63225       -2.85606        1.42029
C          7.42697       -3.93294        1.72480
C          8.73254       -3.61264        1.63606
C          8.84569       -2.13857        1.29503
O          5.63539       -3.14028        0.79699
C         10.01372       -1.51528        0.99100
C         10.16758       -0.09780        0.77594
C         11.19283       -2.30425        0.72493
N         10.39278        1.02161        0.57871
N         12.09922       -2.99490        0.51772
C          6.92282       -5.19402        1.95484
C          7.77874       -6.22956        2.15208
C          9.15127       -5.97758        2.10362
C          9.64232       -4.66488        1.85628
C         10.07567       -7.11362        2.27955
C          0.05698      -12.53087       -2.31913
H         -0.61031       -2.39564        2.05874
H          0.37706       -3.46535        3.82380
H         -2.27973       -6.63988        2.67058
H         -3.01531       -5.44107        1.02966
H         -4.36789       -2.54189        2.42709
H         -6.53250       -2.24154        2.58017
H         -6.69135       -1.36174       -1.63182
H         -4.35959       -1.70947       -1.81242
H         -0.49838       -7.07463        4.26281
H          0.64667       -5.76962        4.75647
H         -2.30244       -6.04908        5.67004
H         -0.83603       -6.39826        6.63981
H         -1.18534       -4.69996        6.12962
H         -8.72094       -1.35111       -0.38469
H         -8.74858       -2.54233        0.96140
H         -8.24220        0.48906        1.25434
H         -9.74462       -0.39743        1.68936
H         -8.22622       -0.71820        2.60625
H         -2.60129       -4.96573       -1.23194
H         -2.17379       -5.32035       -5.04956
H         -0.58671       -8.59669        0.04807
H          0.02437      -10.95414       -0.07719
H         -0.68961      -10.91121       -4.34060
H          3.79630       -0.72355       -1.84412
H          4.35499       -1.15008       -4.07485
H          2.52580        2.50038       -5.19530
H          2.10873        2.85063       -3.15248
H          3.97183        4.08629       -0.49956
H          3.47208        6.16799       -0.10524
H         -0.63893        5.06427        0.42693
H         -0.09335        2.74772        0.00222
H          4.47802        1.28100       -6.63026
H          4.35606       -0.50169       -6.39291
H          1.99193        1.39484       -7.06763
H          2.80181        0.25116       -8.17516
H          1.87767       -0.38578       -6.76183
H         -0.02703        7.35691        0.68040
H          1.62452        7.60545        1.34323
H          0.84015        7.82230       -1.63368
H          1.17738        9.18510       -0.50300
H          2.50301        8.05623       -0.96157
H          5.16609        1.53710       -0.23980
H          7.56721        0.49371        0.95120
H          5.87013       -5.36612        1.94891
H          7.34751       -7.20874        2.31837
H         10.69646       -4.52130        1.83348
H         10.67185       -7.20761        1.35165
H         10.71628       -6.90747        3.15427
H          9.51363       -8.06030        2.44188
H         -0.81689      -13.08037       -2.72128
H          0.93037      -12.65304       -2.98845
H          0.30572      -12.93853       -1.31658
