117
TTPTTT-2F.sdf
C          3.43066        0.82748       -0.59974
C          2.71429        1.49531        0.27947
C          3.83733        2.30282       -1.67020
C          3.05339        2.69489       -1.46695
C          3.38950        2.70426        0.19229
C          3.12951        3.52231        1.47550
C          5.26087        2.21166        0.31940
C          4.38262        3.66326       -2.46598
C          3.44309        4.00934       -3.76190
C          2.87884        2.88948       -3.88021
C          2.37492        2.17822       -2.70058
C          2.66028        4.78456       -5.14134
C          2.27747        3.29171       -5.95823
C          3.07182        2.52900       -5.23292
C          1.46457        5.85994       -4.85783
C          3.90181        5.53681       -5.73524
C          1.58604        2.12874       -6.69646
C          2.51882        1.13123       -7.01215
S          3.53396        1.04163       -5.75398
C         -4.66231       -0.90516        0.20746
C         -5.42936       -1.90350        0.75062
C         -6.94393       -2.09649        0.67895
C         -7.24146       -3.27530        1.54238
C         -6.08838       -3.78231        2.10907
C         -4.94774       -2.98322        1.64815
C         -8.47457       -3.87375        1.84042
C         -8.55297       -4.95708        2.68364
C         -7.39814       -5.47612        3.26116
C         -6.14212       -4.89223        2.98317
O         -3.79817       -3.15153        2.01423
C         -7.90376       -1.36487        0.02533
C         -7.60913       -0.25030       -0.82914
C         -9.31485       -1.69547        0.04463
N        -10.44836       -1.93656        0.03850
N         -7.44117        0.65303       -1.53168
F         -9.77560       -5.49042        2.92741
C          4.72854        4.91999       -6.69490
C          6.09670        5.23516       -6.70831
C          6.61300        6.26593       -5.91881
C          5.75492        7.05693       -5.17859
C          4.43594        6.67129       -5.05745
C          1.55078        7.31507       -4.66085
C          0.57969        8.00206       -3.90943
C         -0.56729        7.34631       -3.50370
C         -0.80314        6.05729       -3.96967
C          0.19213        5.33462       -4.63442
C          2.01594        3.24654        2.24590
C          1.69863        3.76282        3.43115
C          2.54044        4.68758        3.96764
C          3.75232        4.97218        3.33210
C          4.06260        4.36466        2.12184
C          6.38130        3.10557        0.30952
C          7.73834        2.70221        0.10202
C          8.11236        1.39219       -0.19406
C          7.14698        0.46380       -0.29578
C          5.84321        0.82213       -0.05376
C          1.30432        1.04161        0.41944
C          1.04134       -0.26983        0.29486
S          2.62124       -0.80228       -0.31042
S         -0.18709        1.90014        0.40002
C         -1.19197        0.60511        0.44198
C         -0.45013       -0.57798        0.49434
C         -2.60425        0.59737        0.29450
C         -3.14197       -0.68773        0.34002
S         -1.73804       -1.75781        0.49242
C          1.21292       -1.17906       -5.83521
C          2.21183       -2.09270       -5.41674
C          2.34662       -2.72955       -4.01966
C          3.53990       -3.63166       -4.07534
C          4.12213       -3.60779       -5.31953
C          3.36946       -2.70042       -6.17889
O          3.62056       -2.58051       -7.36395
C          1.56444       -2.57042       -2.90220
C          0.46072       -1.66202       -2.81013
N         -0.44231       -0.95831       -2.64782
C          1.73921       -3.29049       -1.64763
N          1.81768       -3.82516       -0.61902
C          4.06538       -4.48859       -3.10514
C          5.15569       -5.30191       -3.38997
C          5.73387       -5.28970       -4.65337
C          5.21709       -4.43994       -5.64110
F          5.60197       -6.16278       -2.45046
S          0.10442        1.24376       -7.00950
C          0.95985       -0.35902       -7.14382
C          2.15502       -0.02816       -7.68978
H          4.70004        4.66067       -1.99738
H          2.59860        1.08110       -3.02364
H         -5.19994       -0.12341       -0.33729
H         -9.41433       -3.57181        1.46936
H         -7.50950       -6.32699        3.91682
H         -5.25652       -5.30863        3.44384
H          4.39682        4.09485       -7.30593
H          6.77381        4.62129       -7.27918
H          7.67820        6.44343       -5.85921
H          6.11849        7.89234       -4.58682
H          3.94827        7.22673       -4.29835
H          2.33833        8.00215       -4.93252
H          0.73588        9.03798       -3.59445
H         -1.28777        7.84183       -2.86096
H         -1.73457        5.56916       -3.74862
H         -0.01949        4.32495       -4.91928
H          1.33709        2.59008        2.01864
H          0.77640        3.39501        3.87245
H          2.23633        5.13090        4.87935
H          4.47084        5.64609        3.75756
H          5.03282        4.60017        1.79511
H          6.28522        4.15802        0.35666
H          8.51744        3.43798        0.10106
H          9.12585        1.07816       -0.41326
H          7.37056       -0.56700       -0.62614
H          5.33168       -0.09250       -0.32775
H         -3.20531        1.50562        0.13984
H          0.50274       -0.91106       -5.09627
H          3.64027       -4.60192       -2.14859
H          6.54156       -5.98228       -4.85505
H          5.63533       -4.48426       -6.63523
H          1.87071        0.32736       -8.68932
