117
TTPTTT-4F.sdf
C          3.32375        1.13901       -1.26736
C          2.83092        1.44786       -0.00690
C          3.69361        2.51102       -1.83513
C          3.16023        3.38899       -0.88194
C          3.43666        2.75583        0.45859
C          2.93935        3.56705        1.74053
C          5.05243        2.43547        0.55606
C          3.86532        2.97106       -3.15129
C          3.16110        4.19834       -3.49407
C          1.95700        4.14107       -2.81230
C          1.94288        3.92891       -1.41835
C          2.81963        4.64247       -4.91719
C          1.85440        3.48273       -5.03156
C          1.11949        3.43334       -3.83489
C          1.82232        5.96495       -4.91502
C          4.13321        4.84312       -5.78960
C          1.60428        2.35565       -5.76718
C          0.57612        1.62278       -5.25667
S         -0.07539        2.22896       -3.80866
C         -3.90689       -1.20882       -1.04304
C         -4.69714       -2.02754       -1.80449
C         -6.19887       -2.09086       -1.65714
C         -6.72469       -2.74970       -2.88006
C         -5.67449       -3.29254       -3.60670
C         -4.38962       -2.92680       -2.95596
C         -8.05469       -2.92266       -3.30824
C         -8.32070       -3.65521       -4.46183
C         -7.26878       -4.22507       -5.19015
C         -5.93190       -4.04738       -4.77029
O         -3.28237       -3.23532       -3.36943
C         -6.95459       -1.70391       -0.57854
C         -8.39348       -1.69454       -0.56688
C         -6.39128       -1.24637        0.66577
N         -5.92575       -0.88065        1.66026
N         -9.54937       -1.66998       -0.50894
F         -7.55432       -4.94439       -6.30432
F         -9.60841       -3.81870       -4.86224
C          5.07187        3.83736       -6.05998
C          6.23075        4.09390       -6.81547
C          6.49544        5.35979       -7.32531
C          5.64061        6.36471       -7.06091
C          4.54787        6.09046       -6.31754
C          2.09808        7.24366       -4.34744
C          1.23176        8.28104       -4.23818
C         -0.05079        8.12999       -4.63276
C         -0.44088        6.95482       -5.21192
C          0.46711        5.92937       -5.39944
C          2.01791        3.07893        2.68849
C          1.63396        3.81714        3.81889
C          2.17963        5.06610        4.07591
C          3.06457        5.59420        3.18391
C          3.38688        4.88463        2.04720
C          6.07615        3.42096        0.46601
C          7.42923        3.16014        0.44179
C          7.87725        1.87058        0.42255
C          6.96694        0.84355        0.48880
C          5.60739        1.10689        0.59754
C          1.64564        0.77547        0.11805
C          1.42791       -0.35183       -0.63599
S          2.59542       -0.32848       -1.88288
S          0.19370        1.53039        0.37404
C         -0.66987        0.30120       -0.29491
C          0.07755       -0.77926       -0.65931
C         -2.00229        0.29799       -0.56676
C         -2.44041       -0.94365       -0.96661
S         -1.04625       -1.93489       -1.23005
C          1.88552       -1.20515       -6.98005
C          2.87264       -1.47343       -7.84687
C          3.93338       -2.49526       -7.67218
C          4.87562       -2.28732       -8.81433
C          4.33799       -1.40775       -9.73010
C          3.12172       -0.83588       -9.16514
O          2.38623       -0.04874       -9.74240
C          4.04633       -3.45723       -6.71310
C          4.97722       -4.52133       -6.96080
N          5.74972       -5.32660       -7.24442
C          3.17765       -3.59107       -5.56311
N          2.46381       -3.66301       -4.65199
C          6.17041       -2.79389       -9.02429
C          6.84351       -2.50962      -10.20889
C          6.23401       -1.72148      -11.19245
C          4.97291       -1.14621      -10.95311
F          8.09270       -3.00364      -10.39511
F          6.89515       -1.47550      -12.34926
S          2.40200        1.52546       -6.98267
C          1.38689        0.15509       -6.78125
C          0.38563        0.40261       -5.84635
H          4.23029        2.30164       -3.90392
H          1.02034        3.91097       -0.84931
H         -4.44171       -0.54216       -0.39271
H         -8.90299       -2.51750       -2.79386
H         -5.13291       -4.49203       -5.34642
H          4.97849        2.85200       -5.70350
H          6.93234        3.31104       -7.00100
H          7.36368        5.58860       -7.90047
H          5.79181        7.39699       -7.39812
H          4.13612        6.95089       -6.20331
H          2.91305        7.59278       -3.91627
H          1.59925        9.19640       -3.78230
H         -0.73456        8.92622       -4.47872
H         -1.46383        6.80412       -5.50823
H         -0.04499        5.14870       -5.89010
H          1.55128        2.15111        2.60523
H          0.90924        3.41750        4.50084
H          1.91150        5.65184        4.93420
H          3.51342        6.57456        3.32925
H          3.98676        5.49095        1.47240
H          5.96600        4.43829        0.37389
H          8.11213        3.99893        0.39789
H          8.92377        1.67885        0.34332
H          7.29414       -0.18046        0.44300
H          5.08150        0.18786        0.66130
H         -2.61204        1.17567       -0.45427
H          1.66554       -1.82684       -6.12602
H          6.70205       -3.37566       -8.29794
H          4.52596       -0.49980      -11.69466
H         -0.31293       -0.31755       -5.46851
