70
TTz1.sdf
C          2.27972       -4.27209       -0.49623
C          2.70495       -2.96565       -0.74428
C          4.05626       -2.67936       -0.93572
C          5.04531       -3.69066       -0.89777
C          4.60005       -5.01072       -0.63484
C          3.23369       -5.29505       -0.44121
N          5.39117       -6.09587       -0.54150
S          4.38505       -7.34667       -0.23012
N          2.93504       -6.60175       -0.20075
C          6.46738       -3.25632       -1.14214
C          7.62610       -3.98243       -1.14158
C          8.87221       -3.31579       -1.39661
C          7.78613       -5.37901       -0.90801
N          9.80637       -2.67098       -1.61321
N          7.97864       -6.50542       -0.72671
C         -8.40202      -13.17740        1.96283
C         -9.06345      -13.74244        3.05613
C         -9.61314      -15.02829        2.97243
C         -9.51774      -15.80093        1.78884
C         -8.76365      -15.25029        0.72487
C         -8.24373      -13.94053        0.80252
N         -8.44177      -15.90473       -0.41597
S         -7.62932      -14.78919       -1.30793
N         -7.60096      -13.49370       -0.31066
C        -10.22595      -17.13165        1.72916
C        -10.74124      -17.72798        0.61062
C        -11.41292      -18.99435        0.71347
C        -10.66379      -17.17962       -0.71923
N        -11.94339      -20.01140        0.85932
N        -10.56717      -16.68297       -1.76190
C          0.86241       -4.55506       -0.29852
C         -0.19450       -3.64374       -0.33114
C         -1.43647       -4.23688       -0.15125
C         -1.27876       -5.61657        0.01496
S          0.27604       -6.08485       -0.03090
C         -2.76379       -3.45820       -0.15144
C         -3.15083       -2.74357       -1.43333
C         -2.27902       -6.57895        0.18216
S         -2.07910       -8.26632        0.30101
C         -3.64053       -8.42815        0.53011
C         -4.21391       -7.24289        0.59144
N         -3.51024       -6.18112        0.37549
N         -4.33835       -9.49168        0.84061
C         -5.52074       -8.99455        1.21672
S         -5.66232       -7.31424        1.18838
C         -6.51146       -9.84783        1.67509
S         -6.50486      -11.40601        1.14739
C         -7.84032      -11.83211        2.02781
C         -8.27965      -10.73581        2.77466
C         -7.54964       -9.57932        2.55169
C         -7.87889       -8.25997        3.25279
C         -8.80772       -7.34450        2.46295
H          1.99308       -2.15350       -0.79236
H          4.31812       -1.64470       -1.11509
H          6.57564       -2.18801       -1.35551
H         -9.15028      -13.20097        3.98948
H        -10.13315      -15.39329        3.84614
H        -10.37760      -17.64668        2.68456
H         -0.09090       -2.59157       -0.49992
H         -3.62158       -4.08605        0.01767
H         -2.75580       -2.69570        0.64159
H         -3.39526       -3.38923       -2.27186
H         -4.03749       -2.12078       -1.36830
H         -2.44532       -1.99076       -1.67602
H         -9.12183      -10.71583        3.43337
H         -8.44447       -8.46379        4.17974
H         -6.96206       -7.69834        3.49844
H         -9.76077       -7.87982        2.24425
H         -9.05918       -6.39463        2.95242
H         -8.27834       -6.88502        1.63099
