142
UF-Qx-2Cl.sdf
C         11.53622       -4.94632        2.99525
C         12.46199       -5.44905        2.07144
C         13.10865       -4.58075        1.15946
C         12.86457       -3.19357        1.20419
C         11.91986       -2.74363        2.10425
C         11.25618       -3.58266        2.96811
C         11.39570       -1.41319        2.24730
C         10.08345       -1.58777        2.85725
C         10.30255       -2.76716        3.72903
C          8.92367       -0.98174        2.48236
C          8.85085        0.00376        1.35338
C          7.74458        0.25808        0.49316
C          7.94646        1.38594       -0.31492
C          9.17253        1.89838       -0.10559
S         10.09130        1.10250        1.02223
C          7.12436        2.26093       -1.28779
C          8.15641        3.40363       -1.42551
C          9.30285        3.10216       -0.77979
C          8.22184        4.67170       -1.97800
C          9.45846        5.30017       -1.71198
S         10.46402        4.27177       -0.80923
C          9.86277        6.67184       -2.08762
C          5.80676        2.75849       -0.60774
C          6.83507        1.58970       -2.67605
C          8.05705        1.20171       -3.51228
C          4.89326        3.64067       -1.46581
O         11.94620       -0.38564        1.89627
Cl        12.76300       -7.17855        2.04639
Cl        14.15210       -5.25510       -0.07813
C          9.95088       -2.96260        5.01474
C         10.50025       -4.06136        5.77675
C          9.21408       -1.97128        5.75571
N          8.63524       -1.20795        6.40595
N         10.96021       -4.96507        6.33395
C         10.79222       10.75237       -3.18873
S         12.23739       11.63595       -2.90806
C         11.59498       13.09204       -3.44810
C         10.30337       12.92849       -3.83844
C          9.82844       11.62432       -3.72661
C         11.85783       14.51001       -3.30149
C         10.67921       15.15757       -3.46521
C          9.63904       14.26106       -4.12944
S         12.97559       15.46030       -2.51261
C         11.82352       16.64150       -2.08221
C         10.61411       16.35155       -2.71087
C         12.05019       17.72627       -1.08750
C         12.55956       18.94048       -1.48997
C         11.59804       20.09159       -1.70053
C         12.00168       21.22378       -0.82695
C         13.20549       20.92551       -0.23278
C         13.57085       19.54426       -0.57010
C         11.41922       22.48898       -0.64083
C         12.06569       23.44777        0.13629
C         13.30710       23.15054        0.72772
C         13.88215       21.87423        0.55310
Cl        14.14733       24.37225        1.67171
Cl        11.29587       25.02190        0.31696
O         14.50826       18.94357       -0.06492
C         10.59503       20.15164       -2.62514
C          9.57516       21.16362       -2.61850
C         10.48085       19.25791       -3.74118
C          9.54851       14.52391       -5.67383
C          8.28562       14.40102       -3.43297
C          8.31976       14.02077       -1.96492
C          8.52492       13.67037       -6.45252
N          8.76280       21.98833       -2.59064
N         10.31538       18.58592       -4.66932
C          8.86294        7.66067       -2.18058
C          9.18583        8.96215       -2.52452
C         10.51972        9.32752       -2.82060
C         11.54031        8.32210       -2.74550
C         11.21377        7.01182       -2.37094
N         12.84908        8.57928       -3.04317
C         13.87945        7.65395       -3.02205
C         13.54550        6.30050       -2.58471
N         12.21697        6.07780       -2.31228
C         14.51658        5.08923       -2.38716
C         15.27542        8.18871       -3.42586
C         15.60677        9.48803       -3.19091
C         16.86015       10.07783       -3.37368
C         17.85520        9.33639       -3.98662
C         17.52702        8.07759       -4.41059
C         16.29137        7.56192       -4.11336
C         15.85797        5.16312       -2.02226
C         16.72734        4.13516       -1.99009
C         16.32891        2.85151       -2.23431
C         14.96908        2.63715       -2.40771
C         14.10133        3.74483       -2.42152
C         17.34687        1.77686       -2.13633
C         17.94049        1.73227       -0.72927
C         19.17749        9.91539       -4.33674
C         19.25001       11.37906       -3.93085
H         11.01493       -5.62147        3.65698
H         13.31895       -2.47872        0.52558
H          7.97435       -1.36053        2.87322
H          6.82629       -0.28334        0.51053
H          7.40630        5.09853       -2.50810
H          5.16858        1.89672       -0.32022
H          6.06495        3.31567        0.31695
H          6.22228        0.67172       -2.52000
H          6.25492        2.27649       -3.32970
H          8.66589        0.55605       -3.08345
H          7.79325        0.59562       -4.38546
H          8.64495        2.05681       -3.86818
H          4.45446        3.09944       -2.30692
H          4.07238        4.06495       -0.88231
H          5.26610        4.49198       -1.82386
H          8.81022       11.34771       -3.93549
H          9.73482       16.94886       -2.53525
H         11.04335       17.91069       -0.73248
H         10.49542       22.78662       -1.08278
H         14.83703       21.64544        1.00563
H          9.24791       15.57978       -5.84772
H         10.54687       14.37124       -6.14005
H          7.98226       15.47230       -3.51765
H          7.49605       13.76808       -3.87848
H          9.31361       14.13987       -1.51528
H          7.53819       14.64576       -1.51748
H          8.13585       12.95888       -1.74111
H          7.49732       13.82606       -6.05182
H          8.52364       13.95685       -7.52227
H          8.77865       12.59557       -6.49093
H          7.81655        7.44758       -1.96953
H          8.36087        9.66640       -2.55908
H         14.81616       10.02210       -2.93012
H         17.01885       11.10454       -3.11012
H         18.19569        7.45802       -4.98852
H         16.22439        6.68539       -4.53014
H         16.34984        5.96762       -1.65352
H         17.71660        4.43056       -1.74010
H         14.55784        1.64241       -2.50708
H         13.09621        3.51652       -2.40234
H         16.89684        0.79884       -2.39227
H         18.17139        1.99967       -2.83863
H         17.14869        1.42336       -0.01538
H         18.81243        1.08209       -0.74361
H         18.38551        2.68174       -0.39477
H         19.99015        9.34176       -3.83197
H         19.31077        9.81244       -5.43210
H         19.17698       11.49907       -2.82969
H         20.21355       11.80314       -4.26775
H         18.42420       11.94260       -4.40482
