122
X-PCIC.sdf
C          3.05255       -2.52769       -8.00756
O          2.38995       -2.71846       -7.00704
C          4.18610       -3.31724       -8.30661
C          4.85382       -4.18154       -7.45109
C          6.07172       -4.70233       -7.88816
C          6.56990       -4.35739       -9.15966
C          5.83457       -3.52443      -10.01428
C          4.62300       -3.01171       -9.56568
C          3.71501       -2.03210      -10.19282
C          3.55697       -1.82638      -11.52676
C          2.67106       -0.80852      -12.07212
N          1.96623        0.00093      -12.51265
C          4.21336       -2.75876      -12.43600
N          4.76509       -3.53534      -13.09937
C          3.02765       -1.43117       -9.02984
F          7.78729       -4.79459       -9.55021
C          2.68356       -0.13167       -8.90285
F          6.79736       -5.48995       -7.06127
C        -15.60464       -0.63488       -8.18273
O        -15.20028       -1.12030       -7.14557
C        -15.96897       -1.44291       -9.28258
C        -15.63796       -2.77539       -9.48033
C        -15.97726       -3.34635      -10.70436
C        -16.64480       -2.57567      -11.68033
C        -17.02951       -1.24448      -11.40899
C        -16.68180       -0.69014      -10.17861
C        -16.91542        0.65716       -9.59283
C        -17.93892        1.51305       -9.85372
C        -18.11431        2.74482       -9.11761
N        -18.19878        3.71879       -8.49676
C        -19.01278        1.15426      -10.73736
N        -19.89424        0.90733      -11.44265
C        -15.90037        0.78298       -8.52612
F        -16.90475       -3.11651      -12.89277
C        -15.38395        1.93396       -8.03201
F        -15.62435       -4.62942      -10.95871
C        -14.27657        1.98499       -7.06874
S        -13.03429        0.82971       -6.95685
C        -12.19100        1.79587       -5.89574
C        -12.81577        2.94512       -5.58601
C        -14.01648        3.05152       -6.20570
C        -10.89069        1.85962       -5.37681
C        -10.70802        3.04856       -4.75358
C        -11.98314        3.88910       -4.73701
S         -9.49458        0.99482       -5.55562
C         -8.53826        2.20837       -4.82906
C         -9.37761        3.27211       -4.40555
C         -7.04015        2.16571       -4.78479
C         -6.25419        3.34907       -4.77626
C         -4.85697        3.28747       -4.76232
C         -4.13865        2.07888       -4.75072
C         -4.90886        0.90229       -4.78589
C         -6.30850        0.94704       -4.81027
N         -4.37247       -0.34652       -4.84685
C         -5.30341       -1.31120       -4.92242
S         -6.85223       -0.65116       -4.90460
C         -2.65681        2.02956       -4.79629
S         -1.74490        0.58747       -4.79479
C         -0.36147        1.40356       -5.15097
C         -0.52579        2.74066       -5.27577
C         -1.81243        3.13210       -5.02125
C          0.84044        1.03457       -5.73970
C          1.39208        2.13695       -6.25872
C          0.70555        3.42275       -5.84427
S          1.30242       -0.35812       -6.47101
C          2.18273        0.46150       -7.64303
C          2.17157        1.82002       -7.34331
C          1.48569        4.17019       -4.71149
C          2.92318        4.58428       -5.06072
C          0.38821        4.31292       -7.10909
C         -0.52955        3.73617       -8.20934
C        -12.58268        4.06188       -3.29610
C        -13.87682        4.88987       -3.17154
C        -11.73036        5.25561       -5.47819
C        -11.31182        5.21401       -6.96537
C         -4.96561       -2.76488       -5.03391
C         -5.53760       -3.34759       -6.32100
N         -6.75381        4.61895       -4.83437
C         -5.77663        5.55659       -4.86178
S         -4.28424        4.86562       -4.80013
C         -5.99845        7.02963       -4.96243
C         -6.81861        7.52677       -3.78120
H          4.47862       -4.38569       -6.45292
H          6.25045       -3.23203      -10.96165
H          2.87803        0.54340       -9.74200
H        -15.09256       -3.33590       -8.72576
H        -17.53349       -0.65401      -12.15689
H        -15.71297        2.89901       -8.41976
H        -14.57748        3.90731       -6.04372
H         -9.05465        4.19263       -3.95127
H         -2.09353        4.14191       -5.13162
H          2.59070        2.54811       -7.94221
H          0.93823        5.09430       -4.44049
H          1.54441        3.53158       -3.79826
H          2.97391        5.18728       -5.96541
H          3.34215        5.22622       -4.26913
H          3.60815        3.72679       -5.17872
H         -0.10025        5.25810       -6.79999
H          1.34207        4.56334       -7.61764
H         -1.58435        3.69402       -7.95071
H         -0.56231        4.40851       -9.07027
H         -0.22867        2.77247       -8.61415
H        -12.82319        3.05512       -2.89154
H        -11.83569        4.53271       -2.62370
H        -14.68715        4.53122       -3.79514
H        -14.27589        4.84138       -2.15112
H        -13.75471        5.95448       -3.34978
H        -12.65398        5.86755       -5.46742
H        -10.93531        5.81704       -4.94451
H        -12.10743        4.90809       -7.63885
H        -11.04045        6.21444       -7.32610
H        -10.43984        4.61212       -7.18589
H         -3.86096       -2.89305       -5.04389
H         -5.37152       -3.30599       -4.15343
H         -5.09607       -2.82653       -7.19714
H         -5.29056       -4.42670       -6.38577
H         -6.64301       -3.22899       -6.34563
H         -5.01415        7.54964       -4.98675
H         -6.53609        7.26042       -5.90624
H         -6.29790        7.30598       -2.82508
H         -6.96810        8.62269       -3.86263
H         -7.81183        7.02873       -3.77862
