86
Y25.sdf
C          3.14339       -2.87372        1.58975
O          3.31762       -3.77593        0.78969
C          3.33473       -3.02262        2.99194
C          3.69720       -4.19046        3.63598
C          3.70746       -4.19595        5.02481
C          3.35701       -3.03186        5.73583
C          3.03950       -1.83894        5.05412
C          3.04262       -1.84572        3.65415
C          2.78411       -0.78040        2.64446
C          2.80667        0.57084        2.85206
C          2.68444        1.53956        1.79379
N          2.59081        2.35774        0.98104
C          2.99594        1.14311        4.16192
N          3.14899        1.57492        5.22497
C          2.59784       -1.52899        1.35430
C          2.02009       -1.08355        0.22629
C          1.76701       -1.24780       -2.22063
C          1.77041       -1.87564       -0.99553
S          1.35979       -3.54444       -1.19658
C          1.15886       -3.38504       -2.85477
C          1.43688       -2.12174       -3.22600
N          1.32838       -1.90489       -4.54295
C          1.84190       -0.64538       -5.14050
C          0.80457       -3.08785       -5.01789
C          0.76380       -4.05632       -3.98331
C          0.32355       -5.36934       -4.23513
N          0.24382       -6.45144       -3.44050
N         -0.29370       -7.40381       -4.20817
N         -0.57412       -6.98195       -5.43929
C         -0.17160       -5.70624       -5.46522
C         -0.25195       -4.75577       -6.47579
C          0.26263       -3.44740       -6.27892
N         -0.06241       -2.66820       -7.34468
C         -0.17854       -1.21523       -7.48729
C          0.91139       -0.61955       -8.37321
C         -0.75319       -3.47523       -8.14469
C         -0.92254       -4.71444       -7.67613
S         -2.08461       -5.53767       -8.60159
C         -2.33741       -4.12653       -9.56600
C         -1.45766       -3.12968       -9.23661
C         -3.52834       -3.67250      -10.28173
C         -4.63966       -4.18788      -10.81794
C         -5.66522       -3.28842      -11.43833
C         -5.81238       -1.91347      -11.24543
C         -6.68135       -1.15266      -12.19543
N         -7.37820       -0.62147      -12.97595
C         -5.08606       -1.12563      -10.21181
N         -4.53328       -0.48169       -9.41568
C         -6.46224       -4.19297      -12.33715
C         -7.48139       -3.91323      -13.27254
C         -8.07134       -4.95921      -13.99439
C         -7.66321       -6.28413      -13.78590
C         -6.66479       -6.57529      -12.84277
C         -6.08074       -5.52046      -12.12519
C         -5.01304       -5.58434      -11.11879
O         -4.42401       -6.60062      -10.78363
C          3.29660       -0.82813       -5.55336
C         -0.44986       -8.79524       -3.80039
C         -1.83310       -9.03002       -3.21764
F          3.31779       -3.06666        7.08710
F          4.02336       -5.34090        5.67524
F         -8.23842       -7.28395      -14.50040
F         -9.04324       -4.68273      -14.90151
H          3.93406       -5.08017        3.06641
H          2.76844       -0.96416        5.61884
H          1.64335       -0.06576        0.17938
H          1.96945       -0.20251       -2.35885
H          1.27038       -0.16159       -5.90078
H          1.85364        0.17733       -4.41225
H         -1.13928       -0.94206       -7.96075
H         -0.44789       -0.78405       -6.51248
H          0.86253       -1.07700       -9.38189
H          0.74881        0.47492       -8.46654
H          1.91980       -0.79899       -7.97167
H         -1.45757       -2.14417       -9.64693
H         -3.43221       -2.64539      -10.51114
H         -7.84288       -2.92879      -13.48101
H         -6.35178       -7.59916      -12.68695
H          3.90234       -1.08734       -4.65874
H          3.40987       -1.64068       -6.29807
H          3.68053        0.12598       -5.97361
H         -0.31025       -9.45357       -4.68708
H          0.33221       -9.06212       -3.05762
H         -2.61041       -8.77932       -3.97024
H         -1.93768      -10.09898       -2.93471
H         -1.97456       -8.39965       -2.31529
