98
Y26.sdf
C          4.05652        0.96511       -0.34940
O          4.28855        1.70576       -1.28912
C          4.90515        0.87192        0.79810
C          5.94269        1.73859        1.12364
C          6.69863        1.47115        2.26260
C          6.42211        0.33018        3.03533
C          5.35379       -0.52627        2.69466
C          4.56313       -0.22880        1.56406
C          3.35037       -0.90116        0.95838
C          2.71582       -2.01189        1.44041
C          1.58336       -2.64349        0.81227
N          0.67295       -3.19562        0.35371
C          3.11191       -2.65482        2.67169
N          3.35469       -3.23790        3.64256
C          2.98524       -0.04038       -0.24483
C          1.89596       -0.12369       -1.06076
C          0.80564        0.64899       -3.40273
C          1.51614        0.84669       -2.15354
S          1.78914        2.50503       -1.93603
C          1.10915        2.93727       -3.36298
C          0.61945        1.92648       -4.07611
N          0.04589        2.42812       -5.24162
C         -0.62346        1.60070       -6.23499
C          0.14012        3.82952       -5.16562
C          0.85673        4.09721       -3.97444
C          1.18348        5.35947       -3.53493
N          1.91638        5.75645       -2.48271
N          1.91801        7.08479       -2.55676
N          1.19331        7.53779       -3.57837
C          0.74543        6.43272       -4.19654
C         -0.02353        6.28297       -5.33635
C         -0.33579        5.03281       -5.93447
N         -1.06072        5.33489       -7.11428
C         -1.54269        4.48306       -8.21552
C         -3.00389        4.02170       -8.09919
C         -1.23362        6.70963       -7.10505
C         -0.61700        7.24251       -6.05085
S         -0.80966        8.86918       -5.90248
C         -1.85591        8.98314       -7.24927
C         -1.90370        7.71376       -7.89441
C         -2.52764       10.28012       -7.66441
C         -2.82334       11.24592       -6.75514
C         -3.08001       12.69615       -6.98328
C         -3.77555       13.35427       -7.96543
C         -3.64167       14.79353       -7.98830
N         -3.66127       15.94406       -8.16150
C         -4.68788       12.85701       -9.07483
N         -5.44472       12.44448       -9.99518
C         -2.50556       13.35290       -5.72640
C         -2.22223       14.68780       -5.34697
C         -1.72864       14.95178       -4.04739
C         -1.53497       13.90748       -3.12672
C         -1.85218       12.60101       -3.48484
C         -2.32841       12.36510       -4.76838
C         -2.70410       11.10201       -5.30927
O         -2.94328       10.09923       -4.65334
C         -2.07657        1.45766       -5.84018
C          2.69885        7.94209       -1.67085
C          1.79836        8.89754       -0.90435
F          7.18747        0.05974        4.12092
F          7.70457        2.31161        2.60869
F         -1.04872       14.15960       -1.88548
F         -1.44302       16.22345       -3.67274
C          0.36035       -0.71172       -3.94308
C          0.00768       -1.78051       -2.90459
C         -2.71150        7.55044       -9.14701
C         -1.88012        7.73824      -10.41025
H          6.14751        2.60702        0.50893
H          5.17906       -1.38456        3.31764
H          1.20205       -0.89451       -0.84741
H         -0.47406        2.00351       -7.24362
H         -0.15389        0.59920       -6.28908
H         -1.45945        5.04032       -9.17244
H         -0.82876        3.66853       -8.38569
H         -3.74810        4.81886       -8.23973
H         -3.19916        3.23981       -8.86558
H         -3.25075        3.63200       -7.11974
H         -2.62432       10.49689       -8.72265
H         -2.35708       15.52795       -6.00283
H         -1.71676       11.78186       -2.78829
H         -2.16540        0.99630       -4.83976
H         -2.49410        2.45763       -5.71173
H         -2.63514        0.86010       -6.59115
H          3.27318        7.32013       -0.94971
H          3.42491        8.52433       -2.28023
H          1.08522        8.32227       -0.27820
H          2.41940        9.54205       -0.24665
H          1.23520        9.54379       -1.60995
H         -0.55434       -0.59429       -4.54425
H          1.16283       -1.12182       -4.59148
H         -0.75939       -1.40258       -2.18887
H         -0.38525       -2.69275       -3.39278
H          0.91801       -2.14383       -2.39997
H         -3.26330        6.61033       -9.15997
H         -3.48114        8.34676       -9.16304
H         -1.13627        6.92636      -10.53928
H         -2.56999        7.73497      -11.28068
H         -1.35542        8.71836      -10.38754
