98
Y6-1O.sdf
C          0.49126       -1.48791       -1.52586
O          0.26283       -2.21816       -2.48521
C         -0.03250       -2.17586       -0.42727
C         -1.38131       -2.26076       -0.16891
C         -1.78856       -3.19045        0.76165
F         -3.10846       -3.29112        1.03943
C         -0.83766       -4.03746        1.37151
F         -1.27226       -4.95820        2.25721
C          0.54514       -3.94829        1.04819
C          0.94429       -2.97351        0.12940
C          2.21437       -2.60271       -0.57810
C          2.98279       -3.49238       -1.25731
C          3.90056       -3.08442       -2.29754
N          4.64863       -2.81695       -3.14922
C          2.61243       -4.89210       -1.28062
N          2.30252       -6.01216       -1.28932
C          1.88763       -1.27689       -1.19136
C          2.54892       -0.08419       -1.39921
C          1.91916        1.18426       -2.05341
S          0.62404        1.28105       -3.28464
C          0.51145        2.99579       -3.48030
C          1.49600        3.40165       -2.57963
C          2.27875        2.54686       -1.78112
O          3.23310        3.05871       -0.87267
C          4.04330        2.24175       -0.03688
S          1.61817        4.96832       -2.58019
C          0.51245        5.24737       -3.60508
C         -0.11859        4.22463       -4.13248
N         -1.02986        4.84533       -5.04061
C         -1.88763        4.11518       -5.99421
C         -0.81043        6.27450       -4.97123
C          0.20703        6.40099       -4.03164
C          0.76424        7.56904       -3.54575
N          1.55088        7.71084       -2.44294
S          1.67795        9.34299       -2.30478
N          0.89740        9.86101       -3.66715
C          0.48684        8.68899       -4.23069
C         -0.22266        8.56710       -5.40177
C         -1.25473        7.68056       -5.43306
N         -2.28961        8.54552       -5.88446
C         -3.70752        8.23963       -6.09623
C         -4.08457        8.46726       -7.54442
C         -1.68558        9.86762       -5.92391
C         -0.46750        9.63348       -6.05662
S         -0.34552        9.94275       -7.75322
C         -1.35682       11.35141       -7.65702
C         -1.69543       11.29100       -6.30731
S         -0.28725       12.26726       -5.66144
C          0.45985       12.65813       -7.21759
C         -0.67120       12.58132       -8.05826
C         -1.52292       13.89939       -7.79880
C         -2.95508       13.66526       -7.28466
C          1.99806       12.60912       -7.74932
C          2.55220       13.44509       -8.75511
C          3.80746       13.85244       -9.64615
C          4.98964       13.32603      -10.08489
C          5.99792       14.22617      -10.66440
N          6.73162       15.01311      -11.10429
C          5.34881       11.94530      -10.06337
N          5.72542       10.85363      -10.08854
C          3.42701       15.17643      -10.25420
C          3.79294       15.95042      -11.40156
C          3.11737       17.16765      -11.66211
F          3.31096       17.86563      -12.80244
C          2.24108       17.66547      -10.71274
F          1.63693       18.87076      -10.86075
C          1.91844       16.85187       -9.65322
C          2.39090       15.59551       -9.56802
C          1.66175       14.46227       -9.07920
O          0.73242       14.08770       -9.78185
C         -2.74981        5.04956       -6.83405
C          5.12359        2.70178        0.99449
H         -2.09202       -1.64760       -0.72250
H          1.25679       -4.62094        1.49403
H          3.56973       -0.02460       -1.02755
H          3.40646        1.60813        0.57861
H          4.56039        1.54693       -0.67333
H         -1.27458        3.47943       -6.68370
H         -2.56690        3.44574       -5.44468
H         -3.94133        7.24199       -5.85317
H         -4.34411        8.88564       -5.45805
H         -3.49478        7.80411       -8.21356
H         -5.16685        8.27786       -7.71444
H         -3.87079        9.52763       -7.77901
H         -1.02799       14.59082       -7.06580
H         -1.65849       14.52129       -8.71072
H         -2.95564       13.15439       -6.30524
H         -3.48561       14.62467       -7.13365
H         -3.54248       13.07498       -8.02105
H          2.66561       11.91018       -7.25350
H          4.49395       15.61136      -12.13662
H          1.30541       17.12612       -8.88833
H         -3.37740        5.57543       -6.15107
H         -2.12810        5.73218       -7.45173
H         -3.41721        4.46703       -7.49870
H          4.72369        3.32444        1.81316
H          5.48450        1.75706        1.47980
H          6.09391        3.12368        0.66077
