91
Y6-T.sdf
C          0.98637        1.73197       -0.52557
O          1.28695        2.74164       -1.13357
C         -0.38878        1.29458       -0.35684
C         -0.42890       -0.06813       -0.28727
C          0.96522       -0.61719       -0.31123
C          1.25423       -1.94112       -0.39220
C          0.20628       -2.92803       -0.55719
N         -0.64144       -3.70641       -0.68658
C          2.59334       -2.45468       -0.38843
N          3.65925       -2.90249       -0.40359
C          1.90102        0.60243       -0.27450
C          3.27234        0.69148       -0.08975
C          4.16337        1.94619        0.02276
S          3.71243        3.64627       -0.01087
C          5.21634        4.35274        0.30824
C          6.04249        3.22889        0.42086
C          5.57272        1.92892        0.22451
C          6.53991        0.72440        0.22973
C          7.63515        0.82256       -0.87260
S          7.54019        3.62541        0.83419
C          7.12412        5.25949        0.89665
C          5.93029        5.62626        0.52775
N          5.91475        7.05280        0.53370
C          4.81938        7.82783        0.04326
C          7.18527        7.52715        0.93429
C          7.84010        6.31646        1.18674
C          9.11062        6.14627        1.46999
N          9.69293        4.94681        1.60193
S         11.21421        5.27704        1.17238
N         11.19923        6.91457        1.06819
C          9.89811        7.19608        1.24189
C          9.36373        8.41692        1.11377
C          8.06606        8.81485        1.13143
N          8.25267       10.24292        1.19363
C          7.26869       11.29794        1.00775
C          7.22862       11.69259       -0.46376
C          9.66395       10.48418        1.31022
C         10.14673        9.39714        0.93216
S         10.78480        9.85232       -0.57506
C         11.43377       11.32858       -0.03547
C         10.88544       11.35037        1.28012
S         12.26458       10.56538        2.15308
C         13.33036       10.17106        0.83749
C         12.85757       11.10733       -0.13831
C         13.83713       12.20018       -0.61060
C         13.79209       13.52661        0.17668
C         14.31095        8.84879        0.60686
C         15.12864        8.59839       -0.54673
C         16.02117        7.59533       -1.34768
C         16.27988        6.28755       -1.22085
C         16.53148        5.55395       -2.45573
N         16.71788        5.05476       -3.48583
C         16.30725        5.60714        0.02746
N         16.33768        5.02379        1.02250
C         16.52960        8.36228       -2.55903
C         15.90210        9.54131       -2.61206
C         14.90246        9.55226       -1.56246
O         13.74305        9.55054       -1.91259
C          3.89961        8.05412        1.20327
C         16.32226       10.42639       -3.61598
S         17.52229        9.63869       -4.50195
C         17.52244        8.22848       -3.55550
C         -1.72967       -0.58608       -0.21981
S         -2.78533        0.73818       -0.19124
C         -1.61315        1.94859       -0.30171
H          3.80647       -0.23771        0.06072
H          7.05962        0.60330        1.21157
H          5.98749       -0.20258        0.03457
H          8.31910        1.68313       -0.75337
H          8.28478       -0.07860       -0.85414
H          7.19674        0.91740       -1.88667
H          5.18802        8.75587       -0.43348
H          4.31585        7.25189       -0.76014
H          6.27142       10.93440        1.29062
H          7.54668       12.18159        1.62207
H          6.94169       10.81109       -1.08164
H          6.48481       12.49886       -0.62327
H          8.22653       12.06418       -0.77071
H         14.86729       11.83506       -0.45608
H         13.68515       12.46150       -1.67377
H         13.73373       13.34986        1.28119
H         14.58749       14.25610       -0.07444
H         13.03363       14.18600       -0.24064
H         14.22006        8.02118        1.33212
H          3.63370        7.06132        1.62556
H          4.41711        8.65008        1.98670
H          3.00328        8.57456        0.83628
H         16.02984       11.45470       -3.79484
H         18.23622        7.43339       -3.68778
H         -2.05310       -1.61507       -0.17996
H         -1.79449        3.01535       -0.31376
