106
YITI-4F.sdf
C         -2.25893       -0.02032       -0.17498
C         -2.71934       -1.39862       -0.02887
C         -2.78947       -1.93857        1.23372
C         -3.09734       -3.26590        1.41527
C         -3.45112       -4.07888        0.35279
C         -3.47077       -3.53496       -0.94517
C         -3.08401       -2.19196       -1.13076
C         -3.12919       -3.98327        2.71231
C         -3.10470       -5.39283        2.13783
C         -3.57877       -5.45929        0.88638
C         -4.55821       -3.66263        3.30036
C         -1.94488       -3.65670        3.67648
C         -4.93881       -4.25676        4.65616
C         -1.80288       -2.18281        4.11999
C         -2.22769       -6.57632        2.27729
C         -2.46210       -7.40045        1.19512
C         -3.60399       -6.90267        0.37501
C         -4.90048       -7.60243        0.95350
C         -3.43506       -7.12965       -1.16737
C         -6.24532       -7.27163        0.29354
C         -2.22486       -6.47233       -1.85593
C         -1.14935       -6.86078        3.13721
C         -0.31765       -7.93882        2.86451
C         -0.56655       -8.75879        1.77079
C         -1.65813       -8.50371        0.96863
C         -1.58359        0.50288       -1.26448
C         -1.06792        1.75117       -0.99361
C         -1.32433        2.19537        0.29400
S         -2.31401        1.10048        1.04000
C         -0.64752        3.30813        0.95334
C         -0.85999        3.77217        2.21081
C         -0.07473        4.86225        2.88213
C         -0.54376        4.87149        4.30159
C         -1.60759        4.00984        4.45984
C         -1.87291        3.34979        3.22544
C         -0.09469        5.60278        5.40573
C         -0.73346        5.44751        6.64359
C         -1.82822        4.57778        6.77905
C         -2.28247        3.84813        5.67531
O         -2.83200        2.61619        3.10749
C          0.82156        5.73240        2.31411
C          1.48015        6.79128        3.03373
C          1.14473        5.76815        0.91111
N          1.42881        5.82923       -0.20991
N          2.02601        7.65547        3.57786
C          0.32698       -9.86017        1.44016
C          0.19473      -10.73959        0.38346
C          1.29443      -11.58491        0.25696
C          2.28457      -11.39980        1.21587
S          1.71967      -10.23689        2.27039
C          3.49767      -12.24989        1.26048
C          4.59265      -12.28704        2.06818
C          5.11495      -11.44446        3.21020
C          5.97663      -12.41237        4.01379
C          6.12892      -13.59927        3.30536
C          5.40319      -13.52319        2.06122
C          6.61171      -12.30901        5.27397
C          7.32834      -13.41023        5.79194
C          7.43707      -14.60224        5.05984
C          6.84255      -14.69949        3.79988
O          5.30444      -14.44869        1.26710
C          4.92428      -10.11296        3.48853
C          5.38188       -9.54435        4.72538
C          4.30105       -9.12261        2.62068
N          3.81674       -8.28470        1.97755
N          5.71277       -8.99438        5.68750
F         -0.28302        6.14413        7.71437
F          7.90648      -13.32926        7.01725
F         -2.43361        4.43673        7.98375
F          8.10877      -15.66459        5.57656
H         -2.58255       -1.32281        2.03491
H         -3.70265       -4.11108       -1.81616
H         -3.04769       -1.78144       -2.13305
H         -4.72047       -2.56329        3.36067
H         -5.32571       -4.06769        2.60610
H         -2.07207       -4.25812        4.60277
H         -0.97784       -3.94447        3.21692
H         -4.46555       -3.74441        5.49666
H         -6.01147       -4.06599        4.84829
H         -4.72042       -5.33963        4.71820
H         -2.75825       -1.67048        4.33083
H         -1.05904       -2.07790        4.91255
H         -1.33423       -1.52433        3.40824
H         -4.82558       -8.70743        0.90823
H         -5.02674       -7.32161        2.01635
H         -3.33829       -8.21671       -1.36209
H         -4.32505       -6.75788       -1.71022
H         -6.34953       -7.68801       -0.69616
H         -7.08699       -7.64068        0.88112
H         -6.47655       -6.24313        0.16865
H         -1.27237       -6.67681       -1.43656
H         -2.11031       -6.79286       -2.88026
H         -2.24451       -5.42560       -2.00939
H         -0.83314       -6.28008        3.96641
H          0.54250       -8.09949        3.49448
H         -1.80910       -9.16069        0.19499
H         -1.36394       -0.01832       -2.18948
H         -0.45908        2.22982       -1.70593
H          0.14046        3.70548        0.35528
H          0.73669        6.27486        5.34777
H         -3.12565        3.16994        5.77606
H         -0.64538      -10.75786       -0.29745
H          1.37630      -12.31028       -0.53208
H          3.40063      -13.07756        0.56637
H          6.55735      -11.42968        5.88636
H          6.91716      -15.62345        3.23690
