98
PYTT-3.sdf
C          2.29428       -1.45145        1.09076
O          1.30005       -0.77547        0.90613
C          2.35686       -2.90351        1.40621
C          3.68380       -3.34018        1.49276
C          4.59421       -2.28269        1.29434
C          5.89597       -2.52099        1.43581
C          6.74686       -3.75461        1.68995
N          7.45274       -4.77799        1.90078
C          6.56128       -1.18037        1.17027
N          7.11320       -0.06821        0.94999
C          3.83639       -0.91095        1.01000
C          4.03475        0.47625        0.72519
C          5.13764        1.58294        0.36512
S          5.65318        3.15066        1.53551
C          6.35125        4.08544        0.23816
C          6.22838        3.31197       -0.90717
C          5.78919        1.93127       -0.84991
C          5.93341        1.29872       -2.21254
C          5.62384       -0.15021       -2.42307
S          6.50234        4.35460       -2.24670
C          6.56604        5.77687       -1.35400
C          6.87891        5.49826       -0.05361
N          7.41521        6.79385        0.42547
C          7.86076        7.18842        1.75850
C          7.50734        7.70263       -0.76777
C          6.46309        7.16170       -1.47337
C          5.95936        7.60034       -2.70238
N          4.75326        7.27257       -3.14099
S          4.60950        8.22836       -4.52636
N          6.12029        8.98655       -4.54657
C          6.67495        8.53774       -3.42657
C          7.86398        9.03949       -2.83991
C          8.07829        8.89213       -1.43768
N          8.90851       10.05744       -1.24027
C         10.40679        9.87216       -1.47204
C         11.40129        9.48552       -0.39465
C          8.41968       11.00407       -2.25025
C          8.40372       10.22479       -3.38572
S          8.49987       11.38580       -4.65375
C          7.41635       12.46386       -3.81370
C          7.32433       11.92899       -2.52607
S          5.69333       11.97949       -2.01076
C          5.20418       13.03775       -3.41497
C          6.35867       13.36440       -4.17438
C          6.42798       14.14364       -5.47781
C          6.43829       15.66219       -5.31833
C          3.84128       13.37183       -3.86028
C          2.63381       13.49191       -3.29181
C          2.11128       13.28779       -1.90681
C          2.76757       13.49252       -0.76317
C          2.21903       13.10198        0.45240
N          1.77115       12.75329        1.49102
C          3.93760       14.26082       -0.69492
N          4.84068       14.95943       -0.60202
C          0.67116       13.25741       -2.02437
C          0.27020       13.60023       -3.35556
C          1.41901       13.77369       -4.21813
O          1.41473       14.07347       -5.38957
C          6.75522        7.88132        2.54927
C         -1.08379       13.78967       -3.47463
S         -1.89238       13.49071       -1.98475
C         -0.40398       13.14606       -1.17014
C          3.89436       -4.66193        1.77671
S          2.42806       -5.42785        2.05023
C          1.51267       -4.00046        1.61323
C          0.09287       -4.22898        1.59803
S         -1.04718       -3.11747        2.19571
C         -2.33703       -4.22369        1.97326
C         -1.91946       -5.42633        1.45495
C         -0.51809       -5.42793        1.23523
H          3.08088        1.00234        0.60952
H          6.98032        1.44475       -2.53567
H          5.32222        1.87144       -2.92436
H          6.22972       -0.79154       -1.78337
H          5.85986       -0.40093       -3.46600
H          4.56346       -0.34405       -2.26301
H          8.69696        7.89514        1.64359
H          8.24390        6.31451        2.29096
H         10.77249       10.81256       -1.91867
H         10.50296        9.11200       -2.26482
H         11.46333       10.22321        0.40562
H         12.40364        9.43979       -0.85865
H         11.20585        8.49158        0.00972
H          5.58679       13.87185       -6.12668
H          7.32612       13.86699       -6.04296
H          5.54051       16.03008       -4.81132
H          6.47648       16.14252       -6.30518
H          7.31399       16.00156       -4.75598
H          3.81481       13.58168       -4.92681
H          6.44477        8.81235        2.06058
H          7.08758        8.14132        3.56208
H          5.87486        7.23814        2.63432
H         -1.65253       14.10344       -4.34442
H         -0.43476       12.94633       -0.09971
H          4.79668       -5.24964        1.88807
H         -3.34337       -3.94020        2.24038
H         -2.57190       -6.26540        1.24896
H          0.01569       -6.29814        0.86379
