98
PYTT-2.sdf
C          2.34468        1.46906       -1.16565
O          1.36253        0.74770       -1.11017
C          2.34497        2.94594       -1.39039
C          3.61932        3.40556       -1.35262
C          4.58105        2.39680       -1.18228
C          5.86483        2.72335       -1.33554
C          6.59766        3.87297       -1.61947
N          7.24950        4.82792       -1.88021
C          6.58616        1.40973       -1.08161
N          7.18457        0.31997       -0.87095
C          3.89491        0.98312       -0.99969
C          4.14665       -0.39788       -0.78931
C          5.29229       -1.43941       -0.42491
S          5.89727       -2.98180       -1.54943
C          6.70881       -3.80477       -0.23817
C          6.54879       -3.01029        0.89107
C          5.97472       -1.69303        0.78967
C          6.03348       -0.90235        2.06788
C          4.88209       -1.23306        3.00376
S          6.96227       -3.97634        2.24158
C          7.06379       -5.41558        1.38407
C          7.34782       -5.14989        0.07492
N          7.98015       -6.41386       -0.36136
C          8.48923       -6.75224       -1.68866
C          8.14548       -7.27199        0.87653
C          7.01806       -6.79473        1.50137
C          6.56945       -7.17517        2.79135
N          5.34415       -6.94066        3.19894
S          5.36926       -7.57752        4.76110
N          6.99087       -8.08069        4.85888
C          7.44363       -7.81901        3.64853
C          8.66747       -8.31307        3.09108
C          8.78561       -8.34489        1.66995
N          9.67446       -9.49293        1.60505
C         11.15055       -9.12574        1.51814
C         12.28578      -10.14555        1.74732
C          9.31493      -10.30810        2.77308
C          9.28689       -9.37619        3.77730
S          9.43082      -10.38213        5.19750
C          8.39283      -11.64566        4.53364
C          8.17994      -11.19267        3.21804
S          6.44573      -11.03240        3.02831
C          6.10437      -12.24502        4.46622
C          7.38987      -12.57465        5.03822
C          7.81469      -13.71107        5.98396
C          7.71992      -15.16166        5.45657
C          4.72634      -12.81723        4.74219
C          3.76250      -13.48578        4.01191
C          3.55054      -14.03728        2.59229
C          4.48266      -14.52617        1.76039
C          4.39394      -14.85689        0.27946
N          4.32035      -15.13125       -0.94909
C          5.82130      -14.15495        2.37735
N          6.93181      -13.84698        2.88916
C          2.18721      -14.35376        2.42898
C          1.50938      -14.30592        3.62039
C          2.39495      -13.83627        4.70257
O          2.12499      -13.76578        5.88696
C          7.46402       -7.50525       -2.52440
C          0.17408      -14.77166        3.46579
C         -0.08578      -15.11476        2.14550
S          1.26703      -14.87280        1.12418
S          3.79409        5.05859       -1.52810
C          2.12884        5.29132       -1.85368
C          1.45586        4.06212       -1.67113
C          1.71423        6.64300       -2.22781
S          0.07392        7.10434       -2.43762
C          0.47819        8.72899       -2.82803
C          1.83283        8.94360       -2.81397
C          2.53987        7.74527       -2.47386
H          3.21596       -0.98307       -0.75457
H          6.08538        0.16751        1.86554
H          6.97430       -1.13302        2.59534
H          3.92460       -1.03538        2.51826
H          4.95513       -0.63769        3.91769
H          4.88367       -2.28673        3.30658
H          9.39142       -7.37336       -1.57485
H          8.79876       -5.82662       -2.20315
H         11.30350       -8.36267        2.30104
H         11.29786       -8.61885        0.55791
H         12.12136      -10.82252        2.59052
H         13.22086       -9.60230        1.97544
H         12.50108      -10.73529        0.85172
H          7.24263      -13.65687        6.91431
H          8.87183      -13.57846        6.25909
H          6.68763      -15.46299        5.24991
H          8.10886      -15.87206        6.20193
H          8.31579      -15.32813        4.55063
H          4.49584      -12.71536        5.80795
H          7.23892       -8.47972       -2.07592
H          7.82313       -7.68816       -3.54381
H          6.52725       -6.94358       -2.59208
H         -0.55873      -14.86845        4.24911
H         -1.00598      -15.50641        1.71349
H          0.37607        3.96886       -1.77679
H         -0.29125        9.45071       -3.05127
H          2.30196        9.89600       -3.03320
H          3.62243        7.72734       -2.41826
