98
PYTT-1.sdf
C          4.22180        0.15137       -2.74932
O          5.18507       -0.54052       -3.01893
C          3.62160        1.14548       -3.58329
C          2.59714        1.87245       -3.04314
C          2.28954        1.44978       -1.68444
C          1.26906        2.07842       -0.94269
C          0.41115        3.14755       -1.33709
N         -0.28695        4.01497       -1.66338
C          1.12656        1.47874        0.44673
N          1.00834        0.98126        1.59937
C          3.42518        0.18657       -1.43899
C          3.81753       -0.69750       -0.44950
C          4.95802       -1.77545       -0.31482
S          5.31436       -3.30799       -1.41425
C          6.51587       -4.02478       -0.30685
C          6.33302       -3.30518        0.87437
C          5.79103       -1.97560        0.81322
C          5.99240       -1.13596        2.05218
C          5.07929       -1.45265        3.23393
S          6.62774       -4.37661        2.17954
C          6.61418       -5.79015        1.25304
C          6.83270       -5.48583       -0.05751
N          7.79254       -6.54131       -0.47145
C          8.40817       -6.75082       -1.77794
C          7.96556       -7.44777        0.70301
C          6.79792       -7.14882        1.37757
C          6.45437       -7.64391        2.64715
N          5.21836       -7.55574        3.12048
S          5.31639       -8.46131        4.54045
N          6.96137       -8.84655        4.55495
C          7.39159       -8.34896        3.40252
C          8.63680       -8.64149        2.78891
C          8.76312       -8.47348        1.37791
N          9.69470       -9.53436        1.13778
C         11.18330       -9.17999        1.38202
C         12.15202       -8.58879        0.35739
C          9.24508      -10.56100        2.13203
C          9.30511       -9.79696        3.28232
S          9.50029      -10.98921        4.50875
C          8.27297      -12.00447        3.79336
C          8.10293      -11.49358        2.50624
S          6.47837      -11.81045        1.99873
C          6.02358      -12.78328        3.57604
C          7.26556      -12.92566        4.26353
C          7.54554      -13.71551        5.51416
C          7.39256      -12.94361        6.81613
C          4.62074      -13.22080        4.16305
C          3.41540      -13.67610        3.67051
C          1.87813      -14.14346        4.27445
C          1.26921      -14.39852        5.52013
C         -0.17865      -14.77592        5.78786
N         -1.37977      -15.08900        6.00996
C          2.10297      -14.23281        6.68069
N          2.79349      -14.08985        7.58701
C          1.12389      -14.34177        3.04042
C          1.91290      -14.17692        1.93240
C          3.28563      -13.84161        2.15795
O          4.17632      -13.77695        1.33164
C          7.55964       -7.61881       -2.71134
S          1.12406      -14.40697        0.46890
C         -0.34188      -14.75336        1.29999
C         -0.20037      -14.68459        2.67686
C          2.13731        2.85036       -3.95310
C          2.81735        2.80518       -5.16933
S          4.04918        1.58917       -5.14175
C          2.59008        3.62521       -6.34167
S          1.37508        4.84584       -6.36214
C          1.71058        5.26944       -7.97883
C          2.73285        4.51739       -8.50578
C          3.24300        3.57652       -7.56261
H          3.30451       -0.58661        0.50704
H          5.92001       -0.07465        1.80237
H          7.02946       -1.28549        2.39478
H          4.03564       -1.22752        3.00541
H          5.38116       -0.85684        4.10310
H          5.12637       -2.49876        3.55089
H          9.37212       -7.25576       -1.62515
H          8.61468       -5.78068       -2.24200
H         11.65397      -10.08769        1.79037
H         11.18605       -8.44449        2.20574
H         12.32821       -9.24092       -0.49779
H         13.13621       -8.45806        0.85033
H         11.86242       -7.58868        0.02614
H          8.56749      -14.11884        5.46511
H          6.88713      -14.59120        5.53916
H          8.09864      -12.11125        6.88793
H          7.58826      -13.60614        7.66666
H          6.38320      -12.53830        6.92502
H          4.66547      -13.17364        5.25025
H          7.36032       -8.60324       -2.27154
H          8.06897       -7.78953       -3.67044
H          6.59546       -7.14735       -2.92702
H         -1.23558      -14.99883        0.74225
H         -1.03709      -14.88643        3.33237
H          1.34469        3.56392       -3.77250
H          1.14115        6.04984       -8.46431
H          3.09731        4.63167       -9.51915
H          4.05043        2.88998       -7.78962
