194
PYTT-1_dimer.sdf
C         12.03255       -4.01544       13.63952
O         12.36270       -3.95254       12.46927
C         12.12585       -2.98142       14.62368
C         11.72068       -3.28439       15.89444
C         11.26933       -4.67144       15.99514
C         10.86144       -5.23122       17.22124
C         10.78099       -4.52314       18.56384
N         10.71425       -3.93573       19.67763
C         10.52348       -6.70974       17.12034
N         10.24312       -7.93629       17.03662
C         11.45845       -5.22406       14.38238
C         11.27861       -6.37949       13.64415
C         11.58201       -6.81373       12.16235
S         10.92848       -6.08215       10.51150
C         11.50993       -7.43117        9.49982
C         11.84335       -8.41497       10.42808
C         12.19035       -8.02834       11.76671
C         12.89347       -9.08193       12.58401
C         12.00860      -10.20588       13.11612
S         11.51013       -9.93664        9.70930
C         10.62869       -9.32981        8.40411
C         10.92441       -8.00982        8.22825
N         11.03531       -7.89878        6.75566
C         11.39982       -6.73517        5.95606
C         10.67668       -9.23645        6.19576
C          9.96642       -9.74004        7.26825
C          9.44707      -11.04369        7.35362
N          8.52945      -11.37521        8.25289
S          8.11866      -12.94351        7.78185
N          9.18430      -13.17329        6.49057
C          9.78575      -11.99488        6.39025
C         10.57130      -11.56100        5.29253
C         10.72434      -10.16223        5.06022
N         10.84037      -10.21188        3.63087
C         12.25542      -10.51897        3.08558
C         13.34692       -9.49544        2.77388
C          9.91596      -11.33592        3.28830
C         10.44105      -12.32296        4.09970
S          9.93951      -13.76465        3.30403
C          8.33113      -13.13115        3.03916
C          8.46238      -11.75917        3.26797
S          6.95114      -11.13632        3.82193
C          6.04669      -12.82012        3.64010
C          6.98317      -13.66263        2.98207
C          6.79647      -15.07441        2.50028
C          7.19522      -16.15746        3.49254
C          4.69183      -13.19509        4.34242
C          3.40316      -13.35714        3.85805
C          1.85441      -13.81614        4.43057
C          1.29944      -14.44179        5.56013
C         -0.15664      -14.71562        5.89962
N         -1.36458      -14.94278        6.18126
C          2.23325      -14.80732        6.57410
N          3.02234      -15.08639        7.37690
C          1.00013      -13.45288        3.31379
C          1.71403      -12.98233        2.24658
C          3.13954      -12.91326        2.40513
O          3.96674      -12.57055        1.57858
C         10.19451       -5.88701        5.54709
S          0.76324      -12.53566        0.93565
C         -0.68068      -12.96351        1.78551
C         -0.38504      -13.46720        3.04776
C         11.87999       -2.16491       16.75434
C         12.42689       -1.05952       16.09590
S         12.70113       -1.42428       14.42417
C         12.77722        0.24030       16.64446
S         12.62945        0.58525       18.32568
C         13.27686        2.15531       18.14851
C         13.57050        2.44439       16.83746
C         13.27282        1.34865       15.97325
C         -9.70835      -13.07517        1.05026
O        -10.34580      -12.04006        1.01824
C         -8.28607      -13.22172        1.00346
C         -7.79414      -14.50528        1.12208
C         -8.84869      -15.46866        1.30125
C         -8.55334      -16.82938        1.56652
C         -7.31314      -17.46418        1.63153
N         -6.26221      -17.96365        1.73477
C         -9.81289      -17.66823        1.70890
N        -10.85778      -18.36413        1.82702
C        -10.25513      -14.49195        1.17757
C        -11.61264      -14.67143        1.10449
C        -12.96284      -13.82165        1.07859
S        -13.41160      -12.01469        0.56315
C        -15.05267      -12.10303        1.15389
C        -15.24899      -13.39887        1.60911
C        -14.22435      -14.36807        1.41317
C        -14.60196      -15.77765        1.77780
C        -14.55654      -16.05392        3.27587
S        -16.72680      -13.42979        2.47245
C        -16.86119      -11.76082        2.53155
C        -16.23374      -11.21169        1.45254
N        -16.94197       -9.92833        1.27213
C        -16.99383       -9.13010        0.04658
C        -17.98725       -9.87505        2.35600
C        -17.35741      -10.70313        3.25077
C        -17.78138      -11.03224        4.54145
N        -16.94064      -11.49035        5.45956
S        -17.87979      -11.42616        6.85930
N        -19.36426      -10.93636        6.21542
C        -19.07206      -10.70214        4.94211
C        -19.87085       -9.97327        4.01781
C        -19.23249       -9.33071        2.90537
N        -20.15200       -8.23541        2.77794
C        -21.40477       -8.55232        1.91990
C        -22.84745       -8.11140        2.32929
C        -20.43283       -7.93232        4.16840
C        -20.88222       -9.16128        4.60984
S        -21.75344       -8.73244        6.03625
C        -20.44835       -7.68313        6.53372
C        -19.71106       -7.45094        5.38440
S        -18.10810       -7.00370        5.80020
C        -18.41108       -7.12787        7.64952
C        -19.82460       -7.29050        7.76625
C        -20.67754       -7.32865        9.00146
C        -20.90881       -8.72528        9.55995
C        -17.43906       -7.06057        8.86908
C        -16.08269       -7.00078        9.08875
C        -15.07780       -6.95631       10.45846
C        -15.20301       -7.14407       11.84108
C        -14.07223       -7.07024       12.85414
N        -13.13415       -7.00899       13.69455
C        -16.50500       -7.41250       12.35156
N        -17.57835       -7.62213       12.72936
C        -13.76319       -6.73038        9.87339
C        -13.81367       -6.74394        8.50757
C        -15.10455       -6.89560        7.91098
O        -15.35084       -6.91312        6.72210
C        -16.70176       -7.64008        0.22735
S        -12.32410       -6.58119        7.75434
C        -11.54872       -6.43229        9.28324
C        -12.44630       -6.49534       10.33583
C         -6.39116      -14.52491        1.04536
C         -5.85941      -13.24574        0.87853
S         -7.10147      -12.05197        0.77410
C         -4.46016      -12.89715        0.82562
S         -3.29974      -13.80060        1.70316
C         -2.00426      -12.77814        1.23540
C         -2.44388      -11.81091        0.35348
C         -3.85599      -11.86804        0.13248
H         10.94491       -7.24678       14.21476
H         13.43827       -8.61602       13.40871
H         13.66427       -9.54348       11.94589
H         11.28894       -9.83427       13.84830
H         12.63049      -10.97113       13.59332
H         11.43985      -10.71862       12.33508
H         11.89822       -7.09048        5.04366
H         12.12284       -6.12881        6.51060
H         12.10952      -11.12318        2.17680
H         12.72310      -11.19466        3.82297
H         13.07411       -8.80187        1.97849
H         14.23695      -10.04486        2.40725
H         13.68753       -8.95276        3.65864
H          7.38015      -15.21890        1.57865
H          5.75022      -15.22088        2.21215
H          8.26317      -16.13159        3.72917
H          6.98939      -17.14656        3.06811
H          6.64057      -16.06233        4.42957
H          4.87220      -13.46399        5.38132
H          9.47125       -6.47184        4.96728
H         10.49978       -5.03714        4.92250
H          9.67600       -5.48563        6.42323
H         -1.16838      -13.78512        3.72299
H         11.63700       -2.13046       17.80860
H         13.40944        2.79248       19.01249
H         13.98598        3.39061       16.51153
H         13.44138        1.38225       14.90333
H        -11.90155      -15.74485        1.17706
H        -13.98569      -16.49931        1.23716
H        -15.62792      -15.96484        1.42445
H        -13.53385      -15.99158        3.65496
H        -14.95168      -17.05293        3.48237
H        -15.15924      -15.34699        3.85604
H        -18.00005       -9.23847       -0.38292
H        -16.28734       -9.55424       -0.67516
H        -21.46140       -9.65438        1.88276
H        -21.18769       -8.21524        0.90361
H        -23.08663       -8.21287        3.39113
H        -23.59465       -8.74378        1.81603
H        -23.07068       -7.08356        2.03008
H        -21.65408       -6.87723        8.77307
H        -20.23850       -6.69168        9.77489
H        -21.44653       -9.36868        8.85678
H        -21.51762       -8.66689       10.46771
H        -19.96396       -9.21814        9.80414
H        -18.01804       -7.11028        9.79010
H        -17.45577       -7.15236        0.85467
H        -16.70738       -7.11950       -0.74102
H        -15.72111       -7.47867        0.68327
H        -10.47683       -6.29804        9.34166
H        -12.10727       -6.38728       11.35734
H         -5.75289      -15.39141        1.11753
H         -1.79916      -11.05751       -0.08240
H         -4.39506      -11.17358       -0.50171
