132
IC-C6IDT-IC.sdf
C          0.82046        0.08784       -0.15264
C          1.21930        0.08875       -1.48207
C          2.23564        0.92327       -2.28449
C          2.27999        0.27886       -3.66650
C          1.40150       -0.75457       -3.68717
C          0.71298       -0.83138       -2.50640
C          2.99726        0.50536       -4.86036
C          2.78102       -0.34293       -5.97653
C          1.86790       -1.40545       -5.91253
C          1.16178       -1.60939       -4.75351
O         -0.29429       -1.46008       -2.54932
C          2.98198        2.00763       -1.92016
C          3.82710        2.69475       -2.87364
C          2.98923        2.60267       -0.61295
N          4.49624        3.22639       -3.65615
N          3.05066        3.13977        0.41108
C         -0.16463       -0.92444        0.47454
S         -1.46057       -1.73242       -0.32591
C         -2.09016       -2.49358        1.05641
C         -1.30630       -2.18547        2.12137
C         -0.26666       -1.35991        1.82139
C         -2.17357      -10.87049        2.83004
C         -2.50365      -11.98424        3.61971
C         -1.81667      -13.35975        3.90879
C         -2.67729      -14.04901        4.95002
C         -3.75372      -13.25941        5.19842
C         -3.73207      -12.09017        4.42352
C         -2.61995      -15.28925        5.63928
C         -3.64603      -15.64284        6.53799
C         -4.71888      -14.77984        6.76390
C         -4.77255      -13.58110        6.07905
O         -4.70099      -11.35937        4.42654
C         -0.73922      -13.97478        3.32919
C         -0.34571      -15.33270        3.67375
C          0.00823      -13.35972        2.26990
N         -0.03400      -16.41885        3.95208
N          0.59926      -12.84825        1.41761
C         -3.07690       -3.48187        1.49080
C         -2.80746       -3.72256        2.82998
C         -1.85358       -2.67274        3.45911
C         -4.01227       -4.26299        0.76809
C         -4.50834       -5.49233        1.35515
C         -3.94477       -5.80325        2.55233
C         -3.23418       -4.96303        3.30478
C         -5.36857       -6.75877        0.95624
C         -4.49667       -7.83081        1.72287
C         -3.89897       -7.20520        2.72544
C         -0.85495       -3.32683        4.51659
C         -2.69218       -1.39798        4.00899
C         -6.78052       -6.67504        1.70967
C         -5.46507       -6.90172       -0.60438
C         -2.74751       -0.90659        5.35164
C         -3.53144        0.12174        5.78645
C         -4.32419        0.80778        4.91315
C         -4.28557        0.45359        3.57021
C         -3.50077       -0.61569        3.12496
C          0.44050       -2.89374        4.83200
C          1.28656       -3.55756        5.72005
C          0.85164       -4.70564        6.37867
C         -0.41357       -5.12605        6.14410
C         -1.17999       -4.42348        5.29641
C         -4.99062       -8.03575       -1.28026
C         -4.96580       -8.15081       -2.66771
C         -5.47247       -7.12322       -3.45260
C         -6.01693       -6.02210       -2.83042
C         -6.00652       -5.91367       -1.45961
C         -7.92689       -6.03232        1.15038
C         -9.16649       -6.01073        1.76176
C         -9.35539       -6.55988        3.02002
C         -8.24813       -7.13009        3.65805
C         -6.99643       -7.20471        3.01323
C         -5.21206        1.90457        5.42090
C         -4.40482        3.01410        6.08844
C          1.67368       -5.43354        7.38207
C          1.42163       -4.89670        8.78658
C        -10.71938       -6.49161        3.66977
C        -11.28199       -7.88234        3.96916
C         -5.44606       -7.16312       -4.94364
C         -6.86263       -7.08820       -5.50048
C         -4.05090       -9.19670        1.67174
C         -3.02641       -9.56541        2.63595
S         -2.79824       -8.16440        3.54904
H          1.27356        0.81085        0.52713
H          3.70923        1.29228       -4.97431
H          3.31783       -0.18730       -6.89560
H          1.69064       -2.06902       -6.74560
H          0.43470       -2.41665       -4.66576
H          0.28046       -1.19345        2.67711
H         -1.22369      -10.90292        2.29848
H         -1.84657      -16.01305        5.52945
H         -3.61893      -16.58948        7.05533
H         -5.51297      -15.03443        7.45164
H         -5.59548      -12.90067        6.21090
H         -4.19462       -3.89051       -0.19965
H         -3.06948       -5.45611        4.18626
H         -2.27736       -1.21553        6.19990
H         -3.49808        0.35071        6.85119
H         -4.88227        0.99135        2.85658
H         -3.58169       -0.78728        2.07337
H          0.87207       -2.04366        4.52204
H          2.26501       -3.15136        5.88344
H         -0.86501       -5.99093        6.62360
H         -2.03746       -4.80849        5.37188
H         -4.61941       -8.86215       -0.78111
H         -4.54424       -9.04107       -3.11490
H         -6.44359       -5.20798       -3.40122
H         -6.44308       -5.00539       -1.19296
H         -7.97178       -5.50928        0.23381
H         -9.97199       -5.54156        1.21518
H         -8.34793       -7.52654        4.65811
H         -6.21759       -7.68104        3.57753
H         -5.79525        2.31775        4.57352
H         -5.93315        1.49643        6.16519
H         -3.70104        3.47529        5.36697
H         -5.08643        3.80125        6.46352
H         -3.83317        2.60647        6.94833
H          1.43715       -6.51189        7.34327
H          2.74173       -5.27090        7.15250
H          0.37562       -5.08727        9.12103
H          2.10396       -5.36819        9.50601
H          1.60654       -3.80460        8.74474
H        -10.65146       -5.91098        4.61510
H        -11.42894       -5.96005        2.99354
H        -10.63318       -8.41660        4.69396
H        -12.29290       -7.80873        4.41110
H        -11.35510       -8.47909        3.03681
H         -4.84360       -6.30177       -5.31435
H         -4.96505       -8.09483       -5.29411
H         -7.35622       -6.13773       -5.20497
H         -6.82952       -7.13906       -6.60524
H         -7.45742       -7.93844       -5.10891
H         -4.43922       -9.81216        0.90874
