172
ICPDT-4F.sdf
C         -0.09953       -0.97086       -3.38723
C          0.96801       -0.18918       -3.84648
C          1.88023       -0.27466       -5.04690
C          3.14835        0.41093       -4.63134
C          2.83025        1.24856       -3.60540
C          1.47746        1.03159       -3.23268
O          0.82116        1.89669       -2.72895
C          1.59439       -0.61137       -6.32428
C          2.56956       -0.36498       -7.36771
N          3.37550       -0.15057       -8.17059
C          0.33228       -1.14465       -6.75009
N         -0.64793       -1.57158       -7.18873
C          4.47032        0.38759       -5.10752
C          5.42703        1.22141       -4.48446
C          5.04098        2.11065       -3.46317
C          3.71802        2.15016       -3.04246
C        -11.50631       -1.01577       -6.47854
C        -11.05091       -1.97432       -7.36433
C        -11.37260       -2.32789       -8.80439
C        -10.01654       -2.36627       -9.41105
C         -9.13004       -2.66403       -8.39850
C         -9.81839       -2.69718       -7.14508
C         -9.54241       -2.14845      -10.71524
C         -8.15270       -2.21931      -10.93474
C         -7.27672       -2.55177       -9.88003
C         -7.77391       -2.79119       -8.59805
O         -9.36331       -3.05781       -6.07130
C        -12.48209       -2.75998       -9.46830
C        -12.36116       -3.22840      -10.85192
C        -13.77006       -2.98650       -8.86682
N        -14.85358       -3.22959       -8.53952
N        -12.19565       -3.58116      -11.94637
C         -0.86613       -0.77272       -2.04033
S         -2.50824       -1.10495       -1.59110
C         -2.46941       -0.33900       -0.03967
C         -1.21442        0.10288        0.15176
C         -0.31702       -0.19563       -0.89322
C         -3.31842        0.19927        1.06161
C         -2.59135        1.09693        1.86907
C         -1.06105        0.98231        1.39014
S         -5.00522        0.33278        1.27432
C         -4.95611        1.66688        2.34965
C         -3.55366        1.97637        2.60955
C         -5.65574        3.06476        2.20144
C         -4.53346        3.75757        1.86663
C         -3.55648        3.48623        3.07898
C         -6.67812        3.66474        1.30860
C         -6.43706        3.78841       -0.11505
C         -5.47521        2.98382       -0.36424
C         -4.28128        3.26892        0.43633
C         -6.82564        4.27289       -1.61525
C         -6.57587        2.88618       -2.41766
C         -6.11025        2.13323       -1.41060
C         -7.48821        1.99453       -3.17793
C         -8.52693        1.56510       -2.39841
S         -7.66153        1.31428       -0.93520
C         -7.11999        0.60988       -3.92548
C         -8.52608        0.18493       -4.27703
C         -9.33625        0.62697       -3.28622
C         -9.16414       -0.42593       -5.38505
C        -10.58731       -0.48954       -5.31483
S        -10.95559        0.37937       -3.85704
C         -4.31900        3.61431        4.57630
C         -2.26857        4.46683        3.04567
C         -8.25711        4.89594       -1.62274
C         -5.68756        5.31469       -2.16544
C         -2.16559        5.80911        2.56482
C         -1.00650        6.58104        2.63382
C          0.15217        6.10681        3.21888
C          0.11367        4.79404        3.69971
C         -1.08740        4.02568        3.59637
C         -5.71713        3.94024        4.82259
C         -6.29097        4.00543        6.10763
C         -5.51987        3.78861        7.24408
C         -4.19442        3.49062        7.07529
C         -3.64004        3.37231        5.80940
C         -8.53912        6.02007       -0.82489
C         -9.79103        6.58385       -0.72200
C        -10.85501        6.07572       -1.44631
C        -10.62544        4.97944       -2.28881
C         -9.34987        4.40608       -2.37354
C         -4.54466        5.68067       -1.38572
C         -3.51749        6.52424       -1.80560
C         -3.54451        7.07295       -3.07668
C         -4.63567        6.77509       -3.89237
C         -5.68386        5.93213       -3.45700
F          6.72315        1.18088       -4.87207
F          5.94472        2.91836       -2.85921
F         -5.94119       -2.60360      -10.08929
F         -7.64703       -1.94339      -12.16090
C         -6.57562       -0.58021       -2.93832
C         -6.16065        0.80175       -5.10772
C         -6.73875        1.68965       -6.20631
C         -6.16362       -1.98424       -3.46092
C         -0.18796        0.27839        2.50367
C         -0.28888        2.28049        0.86868
C         -0.67238        3.13289       -0.34559
C         -0.61093       -1.15538        2.87615
C          1.37926        7.00063        3.31846
C          1.01451        8.49129        3.44516
C         -6.05840        3.82713        8.63957
C         -5.83321        2.47779        9.32902
C        -12.20239        6.72552       -1.30988
C        -12.38595        7.84769       -2.33156
C         -2.44633        7.98416       -3.57214
C         -1.07689        7.30088       -3.58225
H         -0.37515       -1.82453       -3.99755
H          4.77490       -0.27153       -5.90354
H          3.39998        2.83543       -2.26842
H        -12.41074       -0.45648       -6.72282
H        -10.19802       -1.87266      -11.53114
H         -7.12706       -3.00956       -7.75986
H          0.69384        0.06744       -0.84626
H         -7.45825        4.21053        1.80359
H         -3.38760        2.78529        0.19327
H         -8.59671       -0.74891       -6.24080
H         -2.91613        6.38275        2.11548
H         -1.06344        7.57292        2.22112
H          1.00813        4.38659        4.14816
H         -1.18568        3.04057        3.90140
H         -6.46295        4.13880        4.08364
H         -7.34382        4.22587        6.20173
H         -3.55762        3.31760        7.93663
H         -2.64975        3.07245        5.91295
H         -7.82937        6.52020       -0.23227
H         -9.89124        7.42624       -0.05281
H        -11.42716        4.56213       -2.88127
H         -9.27563        3.60024       -3.04673
H         -4.37476        5.35230       -0.41638
H         -2.70462        6.73788       -1.11647
H         -4.67682        7.20838       -4.88179
H         -6.46157        5.81368       -4.18221
H         -5.70816       -0.26485       -2.33424
H         -7.38308       -0.85821       -2.22081
H         -5.23466        1.26148       -4.73179
H         -5.93136       -0.18814       -5.56172
H         -7.16571        2.63206       -5.87158
H         -6.13567        1.90011       -7.08337
H         -7.51234        1.15291       -6.68975
H         -5.13626       -2.08527       -3.80780
H         -6.04722       -2.70063       -2.63318
H         -6.83675       -2.42746       -4.20562
H          0.87855        0.20912        2.18776
H         -0.22744        0.88099        3.43554
H         -0.09219        2.95455        1.70858
H          0.66539        1.96434        0.40446
H         -0.50215        2.69364       -1.30699
H         -1.68181        3.34368       -0.48630
H         -0.11427        4.08909       -0.35106
H         -0.31910       -1.84702        2.07120
H         -0.03256       -1.55150        3.73420
H         -1.69759       -1.22675        3.10890
H          1.98024        6.71800        4.20825
H          2.01448        6.87217        2.41668
H          0.39268        8.66302        4.35003
H          1.92636        9.11114        3.51156
H          0.46314        8.85428        2.55290
H         -5.52300        4.60637        9.22210
H         -7.13518        4.07392        8.61539
H         -4.74767        2.23057        9.38090
H         -6.22058        2.52811       10.36273
H         -6.35454        1.66751        8.77838
H        -12.99138        5.95800       -1.43993
H        -12.30384        7.15844       -0.28689
H        -12.29753        7.44669       -3.36300
H        -13.38907        8.30706       -2.21356
H        -11.63118        8.65045       -2.18406
H         -2.68368        8.30411       -4.61002
H         -2.39721        8.89175       -2.93255
H         -1.08834        6.40378       -4.23703
H         -0.31199        8.00793       -3.96585
H         -0.77652        7.00137       -2.55713
