96
ICz-Rd2.sdf
C         -0.31300       -1.84134        0.05577
C         -0.90754       -0.97601        0.99677
C         -0.84192        0.41001        0.86909
C         -0.20971        1.02096       -0.22468
C          0.44389        0.18271       -1.14389
C          0.39571       -1.24195       -1.00937
N          1.11632        0.64820       -2.22898
S          1.61618       -0.74069       -2.96713
N          1.01903       -1.93578       -1.99684
C         -0.18517        2.50291       -0.40880
C         -4.82245      -14.82843        1.39083
C         -6.18821      -15.13709        1.23272
C         -6.65917      -16.44693        1.28292
C         -5.80382      -17.53141        1.52971
C         -4.42998      -17.25777        1.63686
C         -3.93574      -15.91481        1.56887
N         -3.49243      -18.21913        1.84365
S         -2.09463      -17.34652        1.93397
N         -2.59492      -15.78583        1.73547
C         -6.30543      -18.93474        1.62684
C         -0.49351       -3.32274        0.20491
C         -7.52129      -19.36430        2.05251
C         -8.64430      -18.59394        2.64529
N         -9.77667      -19.30896        2.82777
C         -9.59889      -20.66996        2.44933
S         -7.93017      -21.11444        1.95833
S        -10.66589      -21.63434        2.39884
C        -11.02122      -18.71656        3.32385
C        -11.41191      -19.26446        4.69421
O         -8.56535      -17.42813        2.99667
C         -1.10946        3.41490       -0.01164
C         -2.44087        3.20703        0.61196
N         -3.06226        4.34404        0.99589
C         -2.30818        5.49799        0.63751
S         -0.79580        5.16843       -0.27102
S         -2.73718        6.84886        0.88788
C         -4.36249        4.34796        1.66932
C         -4.26682        3.69062        3.04928
O         -2.98623        2.12075        0.71988
C          0.45999       -4.27175       -0.26340
C          0.22847       -5.65586       -0.14177
C         -0.97287       -6.07117        0.42532
C         -1.91034       -5.17006        0.87991
C         -1.69013       -3.79991        0.79783
C         -1.50325       -7.32627        0.63511
C         -2.76206       -7.12271        1.19842
N         -3.01036       -5.80168        1.35983
C         -4.23029       -5.18855        1.89974
C         -4.10953       -5.00589        3.40724
C         -0.99778       -8.60815        0.35933
C         -1.85290       -9.68683        0.66805
C         -3.11411       -9.46483        1.21529
C         -3.60913       -8.19222        1.50965
N         -1.64116      -11.02112        0.49584
C         -2.78781      -11.62582        0.91432
C         -3.69856      -10.69203        1.35677
C         -0.44185      -11.67200       -0.05106
C          0.26189      -12.52238        1.00686
C         -3.10911      -12.98998        0.91148
C         -4.39331      -13.39182        1.36647
C         -5.30323      -12.38985        1.81509
C         -4.95747      -11.03719        1.81804
H         -1.42669       -1.36102        1.86332
H         -1.28343        0.99096        1.66010
H          0.67369        2.89750       -0.94434
H         -6.92044      -14.36556        1.04143
H         -7.70889      -16.58987        1.09522
H         -5.60369      -19.70747        1.32469
H        -10.91866      -17.61519        3.43758
H        -11.83487      -18.89126        2.58796
H        -10.60646      -19.05422        5.42891
H        -12.34304      -18.76255        5.03423
H        -11.60079      -20.35457        4.66210
H         -4.73645        5.38002        1.82472
H         -5.11035        3.81321        1.04441
H         -3.53471        4.23942        3.67920
H         -5.25825        3.71863        3.54807
H         -3.94942        2.63031        2.97579
H          1.39066       -3.95940       -0.71071
H          0.95543       -6.37323       -0.49899
H         -2.45793       -3.12638        1.14468
H         -4.41767       -4.20719        1.41628
H         -5.11393       -5.81802        1.66620
H         -3.24818       -4.34584        3.64359
H         -5.03722       -4.54137        3.80316
H         -3.96196       -5.99022        3.89976
H         -0.01905       -8.73821       -0.07775
H         -4.59301       -8.05048        1.93459
H         -0.72363      -12.29474       -0.92693
H          0.28946      -10.91548       -0.39807
H         -0.38368      -13.33762        1.38424
H          1.17164      -12.98135        0.56595
H          0.56305      -11.88523        1.86513
H         -2.39985      -13.70357        0.52978
H         -6.28582      -12.64146        2.18721
H         -5.65880      -10.28751        2.16130
