132
IDF-4F.sdf
C          0.52403        1.13313        0.37194
C          0.24778        1.30615       -0.97288
C          1.09201        1.87875       -2.10949
C          0.61700        1.16095       -3.33910
C         -0.59945        0.59936       -3.05378
C         -0.93241        0.81085       -1.69304
C          1.13869        1.01665       -4.64025
C          0.39852        0.28789       -5.59456
C         -0.85687       -0.25359       -5.26368
C         -1.36827       -0.08721       -3.98064
F         -1.57137       -0.95248       -6.17795
F          0.89656        0.10261       -6.84073
O         -2.06183        0.65211       -1.28785
C          1.97252        2.91570       -2.13865
C          2.62916        3.32879       -3.35986
C          2.23969        3.76824       -1.00692
N          3.18813        3.71541       -4.29681
N          2.51260        4.50796       -0.15904
C         -0.35296        0.35235        1.39121
O         -1.52728       -0.29985        1.19027
C         -1.95907       -0.78466        2.37477
C         -1.05455       -0.47184        3.31299
C         -0.06171        0.23228        2.74897
C         -4.28306       -8.25286        6.23569
C         -5.28617       -9.11696        6.50531
C         -6.18496       -8.63736        7.61094
C         -7.47190       -8.39252        6.98042
C         -7.53252       -8.99009        5.73485
C         -6.22362       -9.45214        5.40868
C         -8.54611       -7.73401        7.47612
C         -9.65937       -7.86528        6.74510
C         -9.80877       -8.47060        5.56084
C         -8.70434       -9.01933        4.97465
F        -11.04428       -8.55566        5.05336
F        -10.70464       -7.57665        7.29212
O         -5.90747       -9.90629        4.32095
C         -5.94713       -8.53382        8.95335
C         -6.91304       -8.02610        9.90574
C         -4.75753       -9.01770        9.58509
N         -7.65663       -7.63253       10.70328
N         -3.83727       -9.38790       10.17761
C         -3.04686       -1.60434        3.06833
C         -2.53313       -1.79235        4.37429
C         -1.41297       -0.78831        4.72306
C         -4.33882       -2.20255        2.74127
C         -4.97696       -3.12899        3.69826
C         -4.13824       -3.51268        4.73755
C         -3.02905       -2.84045        5.15123
C         -6.30643       -4.06709        3.80826
C         -5.60279       -5.21172        4.54883
C         -4.49802       -4.82318        5.15898
C         -0.24491       -1.34757        5.62474
C         -2.12029        0.54951        5.24557
C         -7.44451       -3.62905        4.90352
C         -6.90517       -4.48182        2.40053
C         -1.53603        1.43880        6.18526
C         -2.18663        2.56113        6.68134
C         -3.46341        2.89397        6.25835
C         -4.08048        2.08092        5.30864
C         -3.43126        0.94357        4.80972
C          1.11152       -1.38191        5.23919
C          2.10383       -1.91156        6.08454
C          1.78472       -2.52350        7.30395
C          0.49512       -2.44149        7.70300
C         -0.47541       -1.84745        6.92943
C         -7.01537       -5.83409        2.01268
C         -7.50461       -6.20642        0.74918
C         -7.89360       -5.23647       -0.18320
C         -7.82156       -3.91962        0.17126
C         -7.38099       -3.56298        1.41979
C         -8.10817       -2.38532        4.88057
C         -9.12551       -1.98295        5.71891
C         -9.59558       -2.81046        6.70326
C         -8.96769       -4.05473        6.85809
C         -7.91719       -4.46088        5.98743
C         -4.14913        4.10167        6.83462
C         -3.85576        5.36037        6.02301
C          2.73453       -3.30585        8.20623
C          3.87542       -2.48717        8.75696
C        -10.75636       -2.32975        7.53866
C        -11.96271       -3.26374        7.40860
C         -8.41583       -5.54883       -1.54437
C         -9.83011       -4.98511       -1.72818
C         -5.75472       -6.53119        4.90411
C         -4.62862       -6.88167        5.66586
O         -3.87863       -5.79275        5.80909
H          1.50407        1.49344        0.71318
H          2.09409        1.41770       -4.93399
H         -2.32705       -0.50537       -3.69750
H          0.69123        0.58460        3.37714
H         -3.57626       -8.09737        7.02736
H         -8.55943       -7.19535        8.40366
H         -8.75853       -9.49131        4.01176
H         -4.77384       -1.96241        1.78407
H         -2.62814       -3.20524        6.06905
H         -0.57475        1.34215        6.61315
H         -1.66151        3.15691        7.41711
H         -5.07348        2.31835        4.95640
H         -4.01169        0.39278        4.09613
H          1.48727       -1.04046        4.30478
H          3.11584       -1.96034        5.71718
H          0.23222       -2.84981        8.64317
H         -1.38794       -1.86331        7.44145
H         -6.74360       -6.62353        2.66206
H         -7.57489       -7.24755        0.49669
H         -8.12190       -3.12708       -0.51082
H         -7.46205       -2.52937        1.48413
H         -7.93009       -1.62993        4.21681
H         -9.54616       -0.99668        5.54273
H         -9.30751       -4.71229        7.64113
H         -7.51942       -5.43942        6.18448
H         -5.24296        3.91908        6.85956
H         -3.80418        4.26110        7.88193
H         -4.22606        5.24554        4.98297
H         -4.37055        6.22935        6.48424
H         -2.76500        5.57026        6.00534
H          2.16562       -3.75639        9.04877
H          3.17339       -4.16985        7.70441
H          3.47900       -1.65822        9.37183
H          4.51008       -3.13552        9.39814
H          4.49044       -2.09753        7.92333
H        -10.44785       -2.25942        8.59838
H        -11.07213       -1.31340        7.19954
H        -11.70007       -4.28059        7.76879
H        -12.81290       -2.88100        8.00923
H        -12.31501       -3.32976        6.35684
H         -7.74252       -5.08986       -2.30311
H         -8.43206       -6.64276       -1.67991
H         -9.84474       -3.87267       -1.67563
H        -10.20983       -5.27613       -2.72507
H        -10.50606       -5.38047       -0.94091
H         -6.57984       -7.12804        4.61296
