110
IDFBR.sdf
S         -2.08437        0.61901       -1.26052
C         -0.59948        1.38507       -1.89200
S         -0.28335        1.32402       -3.29514
N          0.19845        2.05224       -0.91838
C          1.45232        2.75518       -1.19391
C          1.31394        4.25338       -0.93134
C         -0.33005        1.93433        0.32210
O          0.21161        2.40564        1.31268
C         -1.59090        1.17208        0.38500
C         -2.21265        0.88763        1.55633
C         -3.47317        0.10335        1.76549
C         -3.72454       -0.46803        3.02427
N         -2.86919       -0.35357        4.07545
S         -3.61230       -1.24100        5.24928
N         -4.98330       -1.78548        4.51204
C         -4.89756       -1.25074        3.26542
C         -5.84787       -1.46918        2.23851
C         -5.58468       -0.86720        0.99128
C         -4.43952       -0.10124        0.76312
C         -7.08100       -2.31077        2.41212
C        -16.62217      -10.50820        2.37952
C        -17.64864      -10.41641        3.34847
N        -17.79680       -9.37186        4.20414
S        -19.13945       -9.78856        5.06829
N        -19.58268      -11.24123        4.42438
C        -18.64070      -11.44275        3.46445
C        -18.61351      -12.58230        2.64336
C        -17.59850      -12.64820        1.67276
C        -16.63962      -11.64371        1.54224
C        -19.65180      -13.64890        2.80820
C        -19.53791      -14.96003        2.47754
S        -18.06006      -15.77555        1.83174
C        -18.97505      -17.30938        1.85457
S        -18.32245      -18.55865        1.56233
N        -20.31189      -17.20430        2.32999
C        -21.24727      -18.31980        2.43961
C        -21.28055      -18.84873        3.86804
C        -20.62467      -15.93570        2.67907
O        -21.72894      -15.62746        3.10670
C         -7.69207       -2.49610        3.68298
C         -8.82350       -3.30597        3.83342
C         -9.33713       -3.94085        2.71140
C         -8.77587       -3.78280        1.46298
C         -7.65887       -2.96331        1.28919
C        -10.45405       -4.84954        2.60897
C        -10.55638       -5.27461        1.28696
C         -9.51108       -4.60445        0.41908
C        -11.32501       -5.29650        3.60867
C        -12.30401       -6.22292        3.22808
C        -12.38634       -6.67510        1.91431
C        -11.53059       -6.20906        0.90765
C        -13.36836       -6.86504        4.09221
C        -14.03149       -7.78215        3.08212
C        -13.44596       -7.65301        1.83802
C        -15.08292       -8.68078        3.28563
C        -15.53328       -9.48513        2.20656
C        -14.89824       -9.32727        0.94099
C        -13.86241       -8.40759        0.75261
C        -10.16417       -3.70771       -0.66923
C         -8.57875       -5.64130       -0.26765
C        -11.08966       -2.61719       -0.11646
C         -7.82887       -6.56320        0.69818
C        -14.36263       -5.80626        4.64182
C        -12.74472       -7.65476        5.27638
C        -11.75400       -8.74753        4.86152
C        -15.06457       -4.98139        3.55474
H          2.26474        2.32441       -0.57203
H          1.75336        2.63976       -2.25529
H          1.06698        4.45831        0.12958
H          2.27255        4.75953       -1.17082
H          0.51549        4.67635       -1.57755
H         -1.71700        1.23197        2.46006
H         -6.27602       -0.96176        0.16628
H         -4.35689        0.33586       -0.21116
H        -17.52933      -13.45840        0.97286
H        -15.89026      -11.79612        0.78023
H        -20.58275      -13.33939        3.27618
H        -22.25809      -18.00452        2.10045
H        -20.94061      -19.15420        1.77533
H        -21.60301      -18.05775        4.57473
H        -21.98374      -19.70528        3.93004
H        -20.26628      -19.20344        4.15528
H         -7.32472       -2.01248        4.57272
H         -9.27703       -3.44147        4.80663
H         -7.23894       -2.88706        0.29707
H        -11.24140       -4.95210        4.63049
H        -11.60892       -6.55961       -0.11275
H        -15.49129       -8.76385        4.27956
H        -15.20056       -9.89939        0.07726
H        -13.39113       -8.30138       -0.21575
H         -9.36735       -3.20857       -1.26252
H        -10.75563       -4.34581       -1.36229
H         -9.18160       -6.27329       -0.95646
H         -7.82108       -5.10508       -0.88060
H        -10.52693       -1.92004        0.53922
H        -11.51443       -2.03223       -0.95930
H        -11.92882       -3.06238        0.45767
H         -8.53859       -7.15046        1.31618
H         -7.20061       -7.26955        0.11493
H         -7.16138       -5.97436        1.36148
H        -15.14675       -6.31499        5.24400
H        -13.81769       -5.10565        5.31192
H        -12.21417       -6.94465        5.94846
H        -13.55630       -8.13431        5.86576
H        -10.89860       -8.31528        4.30182
H        -11.35921       -9.24788        5.77106
H        -12.25477       -9.51356        4.23356
H        -15.66821       -5.63689        2.89217
H        -15.74808       -4.24779        4.03070
H        -14.32672       -4.42414        2.94033
