158
IDSe-T-IC.sdf
C          2.95148       -0.97938       -0.34104
C          3.01671       -0.31659        0.87104
C          2.20644        0.79831        1.20394
C          1.08349        1.06394        0.33394
C          0.79650       -0.02260       -0.45412
C          1.66480       -0.98159       -0.82790
C          4.04564       -2.03992       -0.52043
C          3.99491       -2.38468        0.93501
C          3.49027       -1.39412        1.73104
C          4.36617       -3.51944        1.57695
C          3.85886       -3.61030        2.88373
S          3.15447       -2.07006        3.25926
C         -0.18242        1.97412        0.24910
C         -1.16655        0.84760       -0.04502
C         -0.58283       -0.19922       -0.56262
C         -2.44969        0.57719        0.18126
C         -2.90464       -0.70809       -0.17860
Se        -1.51636       -1.73909       -0.69035
C          3.89488       -4.91121        3.66478
C         -4.27965       -1.30484       -0.09061
C         -0.49089        2.73446        1.55222
C         -0.09957        2.88223       -1.07159
C          3.69369       -3.10829       -1.67947
C          5.44413       -1.40409       -0.68788
C          4.05275       -2.96102       -3.03844
C          3.68190       -3.90217       -4.00980
C          2.92792       -5.04041       -3.69616
C          2.57617       -5.23250       -2.38324
C          2.95961       -4.28524       -1.44482
C          5.67018       -0.00254       -0.63366
C          6.92965        0.53317       -0.82729
C          8.02246       -0.30017       -1.08706
C          7.82069       -1.68507       -1.11561
C          6.56322       -2.22699       -0.90269
C         -0.51799        4.12843        1.56029
C         -0.72005        4.89385        2.65091
C         -0.99586        4.29546        3.85747
C         -1.03796        2.89357        3.92368
C         -0.79433        2.12116        2.78254
C          0.99139        2.81079       -1.98613
C          1.04982        3.61762       -3.13883
C          0.00873        4.50611       -3.45101
C         -1.06173        4.58948       -2.58148
C         -1.08407        3.84499       -1.42817
C         -1.24568        5.17386        5.03660
C          0.05449        5.41183       -4.66056
C          9.39293        0.26455       -1.34105
C          2.48338       -6.02274       -4.73227
C          9.41339        1.79458       -1.27688
C          3.05023       -7.40189       -4.42293
C         -2.20395        4.53199        6.03618
C         -1.09873        5.16843       -5.63870
S         -5.57352       -0.40763        0.50781
C         -6.76225       -1.58143        0.41700
C         -6.17255       -2.71976       -0.11191
C         -4.78913       -2.59836       -0.41968
Se         5.22748       -6.17454        3.39491
C          4.43939       -7.26008        4.64972
C          3.28798       -6.63472        5.09140
C          2.96486       -5.38361        4.60409
C          1.70078       -4.70934        5.14891
C          2.05318       -3.89579        6.34786
C          4.94294       -8.62846        5.14938
C          5.68568       -9.55364        4.42515
C          6.13625       -9.42536        3.01157
C          6.77294      -10.59199        2.57715
C          6.83561      -11.52682        3.57180
C          6.22684      -10.94042        4.82994
C          7.25568      -10.76885        1.28732
C          7.83045      -11.97939        0.96255
C          7.90631      -12.98636        1.93594
C          7.41559      -12.77126        3.24692
O          6.00034       -8.52585        2.21725
C          6.22583      -11.55018        6.05747
C          5.70566      -10.95164        7.25674
C          6.82302      -12.85234        6.28185
N          7.31015      -13.89640        6.40458
N          5.31074      -10.54000        8.26297
C         -4.02568       -3.78824       -1.01018
C         -4.84018       -5.02610       -1.20818
C         -8.16881       -1.31602        0.82147
C         -9.11406       -2.15458        1.33420
C         -8.95985       -3.58638        1.68751
C        -10.17189       -4.04096        2.34488
C        -11.09149       -3.00699        2.40945
C        -10.52192       -1.77806        1.76274
C        -10.43382       -5.30549        2.88412
C        -11.66423       -5.52380        3.51643
C        -12.60528       -4.48779        3.59868
C        -12.32904       -3.22971        3.04572
O         -7.96134       -4.27380        1.56263
C        -11.16970       -0.57670        1.61443
C        -10.60710        0.59969        1.00074
C        -12.52000       -0.33844        2.05838
N        -10.21495        1.57722        0.51955
N        -13.59927       -0.08237        2.39069
H          2.41135        1.26563        2.14990
H          1.21815       -1.74815       -1.38802
H          4.90738       -4.21741        0.98699
H         -2.90348        1.34235        0.62660
H          4.60196       -2.12957       -3.41387
H          3.98455       -3.69950       -5.00830
H          1.99131       -6.09792       -2.05340
H          2.63081       -4.51727       -0.51937
H          4.89835        0.72595       -0.46026
H          7.02781        1.61191       -0.78995
H          8.61982       -2.37596       -1.31595
H          6.48654       -3.29893       -0.95634
H         -0.41625        4.74150        0.73467
H         -0.66371        5.96367        2.49034
H         -1.25142        2.39225        4.85122
H         -0.86098        1.06446        2.90687
H          1.83186        2.15325       -1.83592
H          1.91568        3.54577       -3.78189
H         -1.89319        5.26046       -2.75423
H         -1.91292        4.13856       -0.84481
H         -0.27131        5.38612        5.51758
H         -1.68637        6.13682        4.68756
H          0.00709        6.47025       -4.31731
H          1.01326        5.27192       -5.19876
H         10.09316       -0.14291       -0.58334
H          9.73749       -0.05445       -2.34961
H          1.36741       -6.06016       -4.74938
H          2.84391       -5.68582       -5.72266
H          9.11880        2.14980       -0.26356
H         10.42377        2.17376       -1.47665
H          8.70265        2.21257       -2.03000
H          2.66615       -7.76000       -3.44229
H          2.75117       -8.11815       -5.20885
H          4.15971       -7.34674       -4.38881
H         -1.78046        3.57871        6.41535
H         -2.36629        5.21374        6.89299
H         -3.19336        4.33743        5.57214
H         -2.08092        5.36344       -5.15932
H         -1.01148        5.85810       -6.50580
H         -1.07132        4.12648       -6.01812
H         -6.74191       -3.60843       -0.30610
H          2.64604       -7.02955        5.80617
H          1.22218       -4.01628        4.45502
H          0.97122       -5.45761        5.56305
H          2.76226       -3.10393        6.03991
H          1.18959       -3.36847        6.80474
H          2.41939       -4.67600        7.04096
H          4.65946       -8.89198        6.16928
H          7.17534       -9.97331        0.55251
H          8.20272      -12.12214       -0.04270
H          8.34866      -13.92953        1.66270
H          7.49693      -13.57640        3.94708
H         -3.65982       -3.57859       -2.01615
H         -3.18006       -4.03796       -0.32345
H         -5.79874       -4.85864       -1.73238
H         -4.42424       -6.00247       -1.43715
H         -4.90915       -5.26965       -0.22584
H         -8.40206       -0.27875        0.71455
H         -9.70206       -6.10125        2.82654
H        -11.88967       -6.48990        3.94991
H        -13.55170       -4.65560        4.09673
H        -13.08514       -2.47618        3.14734
