106
IDST-4F.sdf
C         -0.32534       -0.73109        0.93362
C         -0.84428        0.22558        0.04485
C         -0.65341        1.48465        0.47261
C         -1.10823        2.79626       -0.07985
C         -0.52070        3.62933        1.03087
C          0.12917        2.85986        2.01834
C          0.02058        1.53531        1.63013
S          0.38829        0.03404        2.26720
C          0.67713        3.36342        3.18943
C          0.50402        4.72167        3.37050
C          0.84306        5.59177        4.57377
C          0.25837        6.86546        4.00323
C         -0.24012        6.72775        2.78120
C         -0.13294        5.45409        2.36884
C         -0.64698        4.97387        1.19294
S         -0.95592        8.03390        2.08546
C         -0.60686        8.88986        3.48163
C          0.06059        8.11223        4.43203
C         -0.49944        3.13033       -1.48622
C         -0.80110        2.14392       -2.63208
C         -2.67338        2.90331       -0.10157
C         -3.34160        2.79220        1.25582
C          0.05045        5.12186        5.85294
C          0.27856        5.91519        7.16392
C          2.38216        5.69650        4.82816
C          3.11564        4.37117        5.12286
C         -1.05524       10.24352        3.64236
C         -0.40996       11.16531        4.37830
C         -1.01700       12.44294        4.79210
C         -0.30173       12.78973        6.05065
C          0.76818       11.94101        6.23093
C          0.85813       11.05526        5.14448
C         -0.52686       13.78561        6.99162
C          0.30146       13.84947        8.12536
C          1.35893       12.93525        8.30234
C          1.61229       11.97380        7.33118
O          1.87702       10.42713        4.92023
C         -2.04852       13.08738        4.18527
C         -2.74123       14.17076        4.82043
C         -2.51644       12.71517        2.86239
F          0.06622       14.79414        9.06062
F          2.13507       12.98249        9.41019
N         -3.31884       15.04670        5.30621
N         -2.84698       12.37311        1.80500
C         -0.91100       -5.45636       -1.39870
C         -1.64009       -6.54922       -1.07332
C         -2.89037       -6.70023       -1.88423
C         -2.76397       -7.88688       -2.74570
C         -1.60780       -8.55225       -2.40875
C         -0.91412       -7.80493       -1.36980
C         -3.60279       -8.37765       -3.75112
C         -3.24187       -9.55698       -4.41236
C         -2.05953      -10.23577       -4.06206
C         -1.22754       -9.73171       -3.04921
O          0.19135       -8.09229       -0.93395
C         -3.93367       -5.84084       -1.78715
C         -5.08722       -5.84530       -2.65447
C         -3.98033       -4.81455       -0.77018
F         -4.04269      -10.03982       -5.39302
F         -1.72121      -11.37683       -4.70885
N         -6.03198       -5.80650       -3.32165
N         -4.05286       -3.97887        0.02914
C         -0.42800       -2.17980        0.70956
S         -0.47136       -2.78216       -0.85893
C         -0.68779       -4.37609       -0.44324
C         -0.74726       -4.46975        0.91147
C         -0.53668       -3.26930        1.61227
S         -0.55424       -3.22037        3.44602
C          0.07850       -4.94118        3.78235
C          0.22489       -5.37214        5.24714
H         -1.38459        0.08732       -0.85486
H          1.14129        2.72010        3.92215
H         -1.17450        5.60792        0.49176
H          0.35990        8.32367        5.39376
H         -0.84513        4.14001       -1.80602
H          0.60388        3.15431       -1.41225
H         -1.84201        2.06615       -2.90771
H         -0.38029        2.49319       -3.58227
H         -0.39547        1.13650       -2.44425
H         -2.98807        3.91788       -0.44422
H         -3.13243        2.14282       -0.76038
H         -2.98466        3.66042        1.80906
H         -4.43087        2.73617        1.13925
H         -3.17831        1.94717        1.90276
H         -1.04086        5.14741        5.63554
H          0.31598        4.07274        6.10288
H          0.10285        6.99021        7.09354
H         -0.43624        5.60447        7.94570
H          1.28896        5.75969        7.58387
H          2.88832        6.12130        3.93715
H          2.55786        6.38471        5.68372
H          3.17461        3.71590        4.23482
H          4.15266        4.55579        5.44833
H          2.68543        3.79700        5.94691
H         -2.05524       10.41144        3.24576
H         -1.32396       14.48989        6.87919
H          2.42267       11.25567        7.43874
H         -1.15448       -4.95533       -2.32529
H         -4.51105       -7.87833       -4.03932
H         -0.31222      -10.24152       -2.77788
H         -0.97655       -5.42190        1.30764
H         -0.53634       -5.71500        3.27508
H          1.09680       -4.93204        3.40623
H         -0.70421       -5.15764        5.76429
H          0.31956       -6.46215        5.39453
H          1.15889       -4.99578        5.71525
