180
IDT-BOC6.sdf
C          2.88224       -1.36274       -0.24078
C          2.70498       -0.87930        1.06599
C          1.80032        0.17102        1.37910
C          0.89273        0.54063        0.35573
C          0.82625       -0.30927       -0.74307
C          1.82432       -1.18094       -1.13434
C          4.02760       -2.36613       -0.34402
C          3.89470       -2.85213        1.07724
C          3.28119       -1.95200        1.89559
C          4.19446       -4.08059        1.65236
C          3.71386       -4.22421        2.96959
S          2.95282       -2.72398        3.38655
C         -0.31560        1.49771        0.28402
C         -1.28080        0.41631       -0.18927
C         -0.58793       -0.46420       -0.97088
C         -2.61683        0.04923       -0.00354
C         -2.90544       -1.21051       -0.58520
S         -1.51409       -1.80840       -1.36485
C          3.80056       -5.55761        3.70376
C         -4.22195       -1.90615       -0.49769
C         -0.58280        2.33823        1.57072
C         -0.15916        2.43199       -0.99401
C          3.72298       -3.40266       -1.46781
C          5.38964       -1.58825       -0.44893
C          4.12824       -3.18759       -2.80844
C          3.79460       -4.08049       -3.82249
C          3.03424       -5.22351       -3.55617
C          2.60464       -5.44981       -2.24518
C          2.93822       -4.55550       -1.22035
C          6.60114       -2.13338        0.05275
C          7.80661       -1.41926        0.00895
C          7.86295       -0.13999       -0.55315
C          6.68158        0.42759       -1.04643
C          5.46567       -0.27159       -0.98014
C         -0.55532        3.75524        1.51506
C         -0.83527        4.54950        2.62658
C         -1.14495        3.96818        3.85498
C         -1.13443        2.56947        3.95685
C         -0.84920        1.76695        2.83713
C         -1.29860        2.93962       -1.68460
C         -1.17965        3.66832       -2.87472
C          0.07586        3.95182       -3.41875
C          1.21529        3.49407       -2.74575
C          1.10328        2.73850       -1.56703
C         -1.47758        4.84654        5.04034
C          0.18155        4.70286       -4.72994
C          9.17123        0.62070       -0.59928
C          2.66105       -6.17633       -4.66563
C         10.23790       -0.13051       -1.39633
C          3.71891       -6.19065       -5.76791
C         -2.88459        4.56420        5.56556
C          0.94919        6.01551       -4.59507
C          4.18494       -9.57741        5.58618
C          4.65974      -10.81294        5.18247
C          5.18959      -11.24196        3.85305
C          5.89399      -12.48865        4.00459
C          5.74064      -12.96528        5.28819
C          4.77264      -12.09263        6.02270
C          6.64066      -13.16481        3.03432
C          7.29994      -14.34189        3.40293
C          7.20070      -14.81873        4.71723
C          6.41510      -14.14332        5.66164
O          5.00527      -10.73161        2.76233
C          4.03299      -12.52903        7.09216
C          2.88170      -11.75690        7.56132
C          4.17504      -13.88884        7.63629
N          4.32004      -14.98989        8.05117
N          1.95714      -11.17788        7.96307
C         -8.24013       -3.67907       -0.35793
C         -9.45504       -3.31721        0.19714
C         -9.82334       -2.15714        1.03841
C        -11.20962       -1.97040        1.10369
C        -11.82061       -3.03065        0.50673
C        -10.78520       -4.01027        0.01452
C        -11.87651       -0.87910        1.67547
C        -13.26388       -0.86826        1.60204
C        -13.93056       -1.94191        0.99281
C        -13.21533       -3.02870        0.45750
O         -9.11725       -1.44606        1.69463
C        -11.04575       -5.26656       -0.44382
C        -10.03564       -6.23635       -0.77438
C        -12.37612       -5.81293       -0.52393
N         -9.26866       -7.05707       -1.05224
N        -13.41973       -6.30668       -0.60832
C          2.90836       -6.02080        4.68817
C          3.09612       -7.32371        5.21387
C          4.14677       -8.20046        4.87529
C          5.09310       -7.68492        3.92929
C          4.85744       -6.40978        3.35412
C         -4.39810       -3.30026       -0.50640
C         -5.72001       -3.83168       -0.44285
C         -6.86936       -2.99621       -0.38129
C         -6.63621       -1.58692       -0.37962
C         -5.33392       -1.10312       -0.42067
O          1.86774       -5.23078        5.08533
C          0.89525       -5.52926        6.03380
O          6.24439       -8.35679        3.60349
C          7.23063       -7.94063        2.68995
O         -7.65549       -0.68422       -0.35710
C         -7.63948        0.60444        0.19868
O         -3.28601       -4.08763       -0.54640
C         -3.24059       -5.46865       -0.56198
C          8.35613       -8.96734        2.61490
C         -0.09023       -4.36978        6.17848
C         -3.17903       -6.01368        0.85947
C         -8.57244        1.61508       -0.50566
H          1.67964        0.55776        2.38079
H          1.70646       -1.81116       -2.00383
H          4.65735       -4.85843        1.06375
H         -3.32571        0.62518        0.56980
H          4.69526       -2.33011       -3.11654
H          4.12833       -3.85600       -4.82160
H          2.00357       -6.31907       -2.01232
H          2.55245       -4.77927       -0.24054
H          6.64250       -3.10740        0.51117
H          8.70204       -1.86967        0.42157
H          6.69743        1.42399       -1.47188
H          4.58886        0.24243       -1.34345
H         -0.33223        4.28860        0.61020
H         -0.82447        5.62819        2.52063
H         -1.35550        2.09686        4.90583
H         -0.85204        0.70471        2.98776
H         -2.30591        2.75153       -1.35106
H         -2.08036        3.99327       -3.38442
H          2.19761        3.69592       -3.15318
H          2.02319        2.37653       -1.13779
H         -0.71923        4.70369        5.84159
H         -1.45562        5.91856        4.74813
H          0.69563        4.07654       -5.49345
H         -0.84036        4.92114       -5.10975
H          9.03252        1.61554       -1.07524
H          9.53402        0.78951        0.43872
H          2.57978       -7.21276       -4.27360
H          1.66622       -5.89563       -5.07756
H          9.90114       -0.26615       -2.44519
H         11.18296        0.45315       -1.40002
H         10.44685       -1.12556       -0.94904
H          4.68772       -6.52841       -5.34151
H          3.41712       -6.88068       -6.57208
H          3.84965       -5.18790       -6.22072
H         -2.98965        3.50861        5.89468
H         -3.10418        5.23078        6.42619
H         -3.62952        4.77262        4.76818
H          1.99062        5.81832       -4.26531
H          0.98154        6.52810       -5.58081
H          0.45496        6.69297       -3.86844
H          3.82400       -9.57270        6.60097
H          6.72609      -12.78718        2.02146
H          7.89991      -14.87989        2.68045
H          7.72757      -15.71918        5.00458
H          6.37359      -14.55459        6.65163
H         -8.25261       -4.57370       -0.97159
H        -11.34180       -0.04925        2.14081
H        -13.82162       -0.03372        2.00416
H        -15.00521       -1.93222        0.92661
H        -13.76661       -3.81790        0.00145
H          2.39079       -7.67544        5.88933
H          5.54289       -6.02677        2.63596
H         -5.85676       -4.90167       -0.42933
H         -5.16956       -0.05899       -0.42816
H          0.33360       -6.42028        5.70308
H          1.33788       -5.79164        7.01888
H          6.78227       -7.79491        1.68862
H          7.70102       -6.96067        2.92820
H         -7.95070        0.51891        1.25506
H         -6.64265        1.05081        0.22952
H         -4.14114       -5.86117       -1.05168
H         -2.37510       -5.82665       -1.16905
H          7.96088       -9.93072        2.23507
H          9.15506       -8.60969        1.92695
H          8.80985       -9.12323        3.61764
H         -0.58559       -4.17891        5.20298
H         -0.87213       -4.63228        6.92458
H          0.42386       -3.44410        6.51293
H         -4.08219       -5.68460        1.41630
H         -3.16432       -7.12372        0.83167
H         -2.27344       -5.65197        1.39100
H         -9.65457        1.39752       -0.43383
H         -8.47736        2.60516       -0.01055
H         -8.32061        1.71707       -1.57740
