206
IDT-2PDI.sdf
N          2.51359        1.59798       -2.70690
C          2.24866        2.47828       -1.68145
C          1.47846        2.07890       -0.56931
C          0.96740        0.76821       -0.49176
C          1.24470       -0.11864       -1.54075
C          2.02636        0.30609       -2.64647
O          2.24586       -0.46655       -3.56801
O          2.68822        3.62042       -1.72842
C          0.17625        0.35676        0.62865
C         -0.27560       -0.99905        0.71213
C         -0.09568       -1.87545       -0.45187
C          0.69135       -1.39481       -1.51345
C          1.20130        2.97335        0.45069
C          0.39127        2.61312        1.51638
C         -0.16540        1.31775        1.64136
C         -1.06522        0.94672        2.70706
C         -1.39538       -0.42701        2.85181
C         -0.90457       -1.38579        1.93318
C         -2.24650       -0.86293        3.91493
C         -2.50900       -2.23307        4.10768
C         -1.82657       -3.15907        3.32869
C         -1.02722       -2.72636        2.28905
C         -1.65179        1.86894        3.64018
C         -2.54577        1.41229        4.62461
C         -2.85970        0.06241        4.75936
C         -3.79300       -0.37954        5.73150
N         -4.09691       -1.72889        5.86139
C         -3.43366       -2.65472        5.07970
O         -3.68452       -3.84623        5.19178
O         -4.35501        0.44231        6.44077
C         -5.16059       -2.17578        6.79350
C         -4.62769       -3.06041        7.91885
C          3.28671        2.03909       -3.88994
C          4.73974        1.58994       -3.79636
N         -4.34203      -13.79837        3.74456
C         -3.59965      -13.09948        2.80299
C         -3.15814      -13.71874        1.62077
C         -3.43443      -15.07373        1.38536
C         -4.10154      -15.80049        2.37589
C         -4.57236      -15.14947        3.53947
O         -5.20606      -15.78782        4.36866
O         -3.34819      -11.92489        2.96232
C         -3.06655      -15.68795        0.14977
C         -3.24618      -17.08989       -0.02926
C         -3.91477      -17.83875        1.03439
C         -4.32658      -17.15723        2.17917
C         -2.43185      -13.00376        0.66944
C         -2.12938      -13.57759       -0.55102
C         -2.53940      -14.87329       -0.89774
C         -2.45768      -15.38107       -2.24194
C         -2.51157      -16.79577       -2.37813
C         -2.76452      -17.63118       -1.25254
C         -2.34977      -17.40990       -3.65288
C         -2.31417      -18.81402       -3.76789
C         -2.32525      -19.58818       -2.61173
C         -2.54146      -18.99082       -1.39389
C         -2.32313      -14.58047       -3.45963
C         -2.22868      -15.24130       -4.69974
C         -2.25418      -16.63675       -4.81231
C         -2.24847      -17.27616       -6.07694
N         -2.30756      -18.66189       -6.18392
C         -2.27814      -19.42791       -5.02705
O         -2.27141      -20.64619       -5.07611
O         -2.23425      -16.59239       -7.09027
C         -2.44528      -19.22762       -7.55740
C         -2.65055      -20.74522       -7.68217
C         -4.93801      -13.19397        4.97409
C         -4.69108      -11.70049        5.22850
O         -1.39730        3.20001        3.55759
C         -1.89589        4.21603        4.34787
C         -1.29232        5.53725        3.90099
C         -0.75595       -3.24267       -0.75617
S         -0.27525       -4.24551       -2.06817
C         -1.34282       -5.47309       -1.73532
C         -2.08121       -5.20314       -0.65594
C         -1.85656       -3.91985       -0.14398
C         -1.66838       -6.75375       -2.24738
C         -2.61315       -7.33621       -1.39166
C         -2.94710       -6.39858       -0.22122
C         -2.34981       -7.03083        1.09516
C         -4.45849       -6.02522       -0.18776
C         -5.43940       -6.85485        0.40386
C         -6.79065       -6.50326        0.41841
C         -7.23106       -5.31102       -0.16330
C         -6.28110       -4.47961       -0.77520
C         -4.92713       -4.82778       -0.78560
C         -1.26640       -6.42898        1.78926
C         -0.66782       -7.00804        2.90971
C         -1.12824       -8.22416        3.40659
C         -2.19033       -8.84380        2.75466
C         -2.77695       -8.27974        1.61466
C         -8.71358       -4.99251       -0.13197
C         -9.05549       -3.50244       -0.16849
C         -0.45388       -8.88083        4.58598
C         -1.29894       -8.79302        5.85121
C         -1.15280       -7.38396       -3.37149
C         -1.58024       -8.69312       -3.60876
C         -2.50417       -9.29465       -2.75701
C         -3.06171       -8.64477       -1.64900
C         -1.11802       -9.63643       -4.71739
C         -1.77777      -10.91245       -4.20331
C         -2.62306      -10.65161       -3.18116
C         -1.72953       -9.27023       -6.08315
C          0.41860       -9.65083       -4.69859
C         -2.62026       -8.17820       -6.22237
C         -3.21698       -7.87684       -7.44248
C         -2.94664       -8.65178       -8.58106
C         -2.05037       -9.72881       -8.45995
C         -1.45238      -10.03827       -7.22759
C         -3.59175       -8.38006       -9.92932
C         -4.59054       -7.21686       -9.96181
C          1.15619      -10.60942       -3.97386
C          2.55451      -10.56542       -3.93752
C          3.26033       -9.55238       -4.61543
C          2.52978       -8.58984       -5.32604
C          1.13422       -8.63867       -5.37073
C          4.77445       -9.43935       -4.61540
C          5.52566      -10.64306       -4.04384
C         -1.65657      -12.28119       -4.48473
C         -2.40205      -13.07097       -3.57231
S         -3.35983      -12.02040       -2.60569
O         -4.33556      -19.14868        1.09453
C         -4.75152      -20.13481        0.20918
C         -4.00843      -21.44385        0.52697
H          0.86505       -2.00552       -2.38476
H          1.59786        3.98437        0.43113
H          0.27215        3.40726        2.21924
H         -1.92863       -4.22369        3.49586
H         -0.49156       -3.46216        1.73642
H         -3.01343        2.11972        5.29496
H         -5.67346       -1.31613        7.27240
H         -5.93799       -2.72718        6.21883
H         -3.87472       -2.50279        8.51172
H         -5.47228       -3.34576        8.58168
H         -4.17401       -3.99581        7.53789
H          2.80842        1.66340       -4.82189
H          3.28699        3.14616       -3.98087
H          4.81484        0.48572       -3.73430
H          5.29245        1.94186       -4.69355
H          5.20837        2.04167       -2.89543
H         -4.86306      -17.71937        2.93709
H         -2.13082      -11.97614        0.84065
H         -1.55345      -12.97424       -1.22695
H         -2.22221      -20.66646       -2.63917
H         -2.53138      -19.60443       -0.53668
H         -2.18192      -14.65250       -5.60789
H         -3.35443      -18.77512       -8.01547
H         -1.56500      -18.94020       -8.16749
H         -3.55763      -21.06732       -7.12250
H         -2.81147      -21.01247       -8.74673
H         -1.75620      -21.29982       -7.32965
H         -6.04280      -13.32547        4.92323
H         -4.56321      -13.74162        5.86471
H         -5.10281      -11.07832        4.40444
H         -5.21032      -11.39442        6.16080
H         -3.60714      -11.50273        5.36701
H         -3.00205        4.26606        4.24460
H         -1.62212        4.03865        5.41075
H         -1.54962        5.73422        2.83852
H         -1.68815        6.36187        4.52930
H         -0.18664        5.50278        4.00537
H         -2.46874       -3.58066        0.66690
H         -5.21402       -7.78071        0.87635
H         -7.49996       -7.17170        0.89326
H         -6.57044       -3.55902       -1.25939
H         -4.26106       -4.14421       -1.28874
H         -0.82707       -5.51794        1.47220
H          0.16347       -6.50431        3.38728
H         -2.53601       -9.78852        3.11725
H         -3.53703       -8.87441        1.15165
H         -9.21181       -5.51937       -0.97374
H         -9.14510       -5.39436        0.81139
H         -8.72859       -3.03408       -1.11845
H        -10.15650       -3.37751       -0.09483
H         -8.58226       -2.98157        0.69143
H         -0.23356       -9.94252        4.33482
H          0.51660       -8.38531        4.80376
H         -2.28930       -9.27197        5.71230
H         -0.76563       -9.30062        6.68377
H         -1.43918       -7.72553        6.12784
H         -0.42494       -6.89001       -3.99831
H         -3.75978       -9.15788       -1.00700
H         -2.89251       -7.54666       -5.39032
H         -3.89737       -7.03736       -7.47203
H         -1.82423      -10.34149       -9.32376
H         -0.77863      -10.88281       -7.16514
H         -2.79251       -8.17287      -10.67241
H         -4.13697       -9.29612      -10.24366
H         -4.09044       -6.26124       -9.69573
H         -5.01321       -7.11371      -10.98335
H         -5.43177       -7.40595       -9.25983
H          0.66222      -11.38760       -3.41071
H          3.06829      -11.31854       -3.35791
H          3.04585       -7.79845       -5.85714
H          0.61169       -7.87593       -5.93431
H          5.11641       -9.32741       -5.66654
H          5.06432       -8.52052       -4.05882
H          5.28342      -11.54924       -4.64091
H          6.61945      -10.46386       -4.11695
H          5.27344      -10.81539       -2.97762
H         -0.97110      -12.67207       -5.22495
H         -5.82960      -20.33586        0.37187
H         -4.70217      -19.82725       -0.84891
H         -4.28512      -21.78262        1.54701
H         -4.27991      -22.23261       -0.20347
H         -2.90424      -21.34334        0.52767
