152
IDT-CR.sdf
C          2.76501       -1.40102       -0.42630
C          2.69904       -0.94454        0.89809
C          1.84288        0.11116        1.30909
C          0.86922        0.52829        0.36929
C          0.67580       -0.30227       -0.73666
C          1.63024       -1.19194       -1.22493
C          3.90634       -2.40432       -0.61802
C          3.84390       -2.94678        0.77403
C          3.32380       -2.04310        1.65262
C          4.16909       -4.19672        1.29354
C          3.77925       -4.32509        2.62855
S          3.13176       -2.80839        3.15199
C         -0.28543        1.55563        0.39584
C         -1.34749        0.59603       -0.08626
C         -0.76862       -0.32154       -0.91136
C         -2.73059        0.44965        0.06413
C         -3.20053       -0.68031       -0.61830
S         -1.89723       -1.44689       -1.43116
C         -0.51396        2.33896        1.72485
C         -0.12749        2.53722       -0.85335
C          3.58004       -3.43868       -1.74886
C          5.32413       -1.66689       -0.68914
C          3.94288       -3.17581       -3.08826
C          3.72240       -4.08334       -4.11454
C          3.07726       -5.28913       -3.87067
C          2.62618       -5.55992       -2.57215
C          2.86942       -4.65185       -1.52705
C          6.52777       -2.29741       -0.24215
C          7.77339       -1.64975       -0.26859
C          7.89318       -0.35328       -0.76767
C          6.74249        0.30395       -1.19209
C          5.48960       -0.31586       -1.12457
C          0.14676        3.57354        1.95187
C         -0.12902        4.36808        3.06620
C         -1.05786        3.95629        4.02154
C         -1.66953        2.70518        3.86474
C         -1.40098        1.90760        2.73846
C         -1.25493        3.14665       -1.48515
C         -1.13329        3.94107       -2.63133
C          0.11656        4.19738       -3.19236
C          1.24595        3.61563       -2.60319
C          1.12848        2.78681       -1.47542
C         -1.38219        4.84687        5.19940
C          0.22959        5.04642       -4.43904
C          9.23237        0.33839       -0.82849
C          2.85747       -6.25052       -5.00815
C         10.21276       -0.43946       -1.70260
C          4.18582       -6.68344       -5.62933
C         -1.94801        6.19760        4.74658
C          0.39269        6.52852       -4.10985
C         -4.62497       -1.18497       -0.54683
C         -6.77032       -1.12471       -4.32154
S         -6.51482       -2.22008       -5.56725
C         -7.67347       -1.63819       -6.65673
N         -8.31001       -0.55149       -6.06402
C         -7.80308       -0.28647       -4.78122
O         -8.23205        0.63185       -4.10456
C         -9.37612        0.31660       -6.63015
C        -10.63720        0.28040       -5.80003
C         -7.85117       -2.26606       -7.88001
C         -8.80365       -2.00942       -8.94233
C         -7.05258       -3.41770       -8.23741
N         -6.44216       -4.34112       -8.57308
N         -9.53567       -1.86192       -9.82980
C         -4.87295       -2.44342       -1.39340
C         -4.96215       -2.11745       -2.88301
C         -6.07138       -1.10095       -3.13994
C         -6.27854       -0.06056       -2.07221
C         -5.60177       -0.08543       -0.90772
C          4.23379       -6.89792        2.63146
C          3.07233       -7.06750        6.80456
S          2.99702       -8.50570        7.64767
C          2.53629       -7.92839        9.17405
N          2.44273       -6.54010        9.07083
C          2.74333       -6.08128        7.76574
O          2.70643       -4.89548        7.47945
C          2.05718       -5.58164       10.13964
C          3.23364       -5.08619       10.91953
C          2.33473       -8.84257       10.22384
C          1.94611       -8.68376       11.62597
C          2.55136      -10.22371        9.92584
N          2.74268      -11.31779        9.61757
N          1.63675       -8.53228       12.73520
C          4.71296       -7.98976        3.59263
C          3.65646       -8.25563        4.65731
C          3.37960       -6.98345        5.46164
C          3.41999       -5.69480        4.68111
C          3.81454       -5.62843        3.37851
H          1.81861        0.48478        2.32409
H          1.44146       -1.80122       -2.09708
H          4.58819       -4.98674        0.68441
H         -3.36532        1.10242        0.64582
H          4.41032       -2.27563       -3.40384
H          4.06491       -3.82829       -5.10995
H          2.08669       -6.47599       -2.36600
H          2.47768       -4.92339       -0.56099
H          6.55205       -3.29310        0.16314
H          8.65060       -2.16946        0.10168
H          6.80931        1.31584       -1.57310
H          4.69096        0.32324       -1.43186
H          0.86696        3.97744        1.26866
H          0.37433        5.32248        3.16887
H         -2.37156        2.35049        4.60889
H         -1.90948        0.96285        2.68077
H         -2.26552        3.00582       -1.14588
H         -2.03081        4.34775       -3.08535
H          2.22595        3.78595       -3.02922
H          2.04302        2.34020       -1.12264
H         -2.12478        4.35171        5.86101
H         -0.46509        5.02962        5.79749
H          1.09267        4.70634       -5.05047
H         -0.68141        4.92048       -5.06636
H          9.10679        1.36956       -1.22823
H          9.66737        0.42438        0.18894
H          2.31143       -7.14388       -4.64444
H          2.23352       -5.76789       -5.79429
H          9.83820       -0.52095       -2.74538
H         11.19244        0.08101       -1.71546
H         10.35909       -1.45928       -1.28721
H          4.80816       -7.21914       -4.88321
H          3.99330       -7.36973       -6.47924
H          4.74998       -5.80096       -6.00300
H         -2.89015        6.05881        4.17520
H         -2.16486        6.82811        5.63443
H         -1.21587        6.74047        4.10964
H          1.31360        6.69824       -3.51361
H          0.47598        7.11306       -5.05192
H         -0.48824        6.89913       -3.54396
H         -4.81327       -1.50183        0.50568
H         -9.04484        1.37505       -6.64163
H         -9.67001        0.00970       -7.64137
H        -10.41042        0.72095       -4.82521
H        -11.46987        0.90148       -6.17030
H        -10.98841       -0.76070       -5.79981
H         -5.84992       -2.87874       -1.09332
H         -4.08720       -3.20337       -1.18833
H         -3.99750       -1.70249       -3.24174
H         -5.14801       -3.07345       -3.41333
H         -6.94644        0.77585       -2.21366
H         -5.74178        0.73644       -0.20530
H          5.08237       -6.68131        1.95013
H          3.38722       -7.26805        1.99868
H          1.58391       -4.68506        9.71845
H          1.38964       -6.04493       10.88038
H          3.90566       -4.54706       10.25147
H          3.02840       -4.41638       11.75772
H          3.58363       -5.95416       11.43708
H          5.64736       -7.65545        4.09457
H          4.93849       -8.91918        3.02427
H          2.72045       -8.58513        4.15322
H          4.01206       -9.09259        5.29359
H          3.11342       -4.78402        5.16200
