170
IDT-NTI-2EH.sdf
C          2.97704        1.18327       -0.39324
C          3.02535       -0.20738       -0.26819
C          1.84794       -0.92801       -0.00656
C          0.66435       -0.18537        0.10129
C          0.62260        1.20738       -0.02449
C          1.80206        1.92447       -0.27177
C          4.29447        1.62838       -0.70371
C          5.13873        0.57529       -0.79997
C          4.45336       -0.73919       -0.45322
S          5.03881        3.08722       -1.03372
C          6.52370        2.32651       -1.37560
C          6.42242        0.93936       -1.20548
C         -0.68096       -0.62309        0.30977
C         -1.53202        0.43149        0.28384
C         -0.80963        1.75022        0.07473
S         -1.47728       -2.07186        0.55679
C         -3.00190       -1.31045        0.64459
C         -2.86815        0.07409        0.46297
C          4.51254       -1.73760       -1.62050
C          5.08281       -1.27174        0.85187
C         -0.94871        2.71373        1.27568
C         -1.27853        2.37232       -1.25610
C         11.21264        3.91188       -3.30447
C         11.79660        5.19361       -3.24766
C          9.94433        3.74982       -2.71415
C          9.23974        4.80457       -2.12576
C          9.81936        6.10311       -2.05758
C         11.11335        6.28074       -2.61720
C         11.73555        7.54733       -2.55384
C          9.18623        7.22087       -1.44809
N          9.82057        8.45069       -1.37252
C         11.07878        8.61938       -1.92351
C          9.13765        9.59203       -0.70994
C          8.92462        9.34568        0.78867
C          4.35812       -1.37366        2.06138
C          4.97768       -1.79670        3.23978
C          6.33967       -2.12474        3.25340
C          7.06756       -2.04539        2.05708
C          6.44673       -1.63242        0.87357
C          4.57773       -3.12778       -1.38826
C          4.65612       -4.03252       -2.45267
C          4.67676       -3.57539       -3.77904
C          4.59936       -2.19606       -4.02149
C          4.50724       -1.29084       -2.96007
C         -1.64409        2.34494        2.45267
C         -1.77569        3.22647        3.52543
C         -1.22017        4.50869        3.46728
C         -0.52322        4.89256        2.30970
C         -0.38701        4.00669        1.23031
C         -2.45167        3.15194       -1.31782
C         -2.87723        3.71701       -2.53000
C         -2.15108        3.50168       -3.71439
C         -0.99630        2.71476       -3.66536
C         -0.56404        2.16362       -2.46097
O          8.06739        7.10839       -0.98190
O         11.63268        9.70715       -1.86335
C          4.80306       -4.55383       -4.92484
C          7.01191       -2.52250        4.54710
C          3.61636       -4.48583       -5.88449
C          7.61140       -3.92456        4.49181
C         -1.39425        5.45691        4.63225
C         -0.06129        5.85480        5.26072
C         -2.60478        4.08451       -5.03293
C         -2.57564        5.61046       -5.02856
S          9.03872        2.33142       -2.57321
C          7.73160        3.03589       -1.80512
C          7.97562        4.39111       -1.63951
C         13.01080        7.72161       -3.11873
C         13.66446        6.66617       -3.74177
C         13.07159        5.39477       -3.81431
C         13.73538        4.32464       -4.44489
N         13.15989        3.06427       -4.51653
C         11.90859        2.85411       -3.94315
C         13.95878        2.01895       -5.22510
C         13.35694        0.61453       -5.34790
O         11.38917        1.75512       -3.99248
O         14.83809        4.51751       -4.93873
C         -8.03068       -2.84732        1.44411
C         -8.53522       -4.15199        1.63319
C         -6.64309       -2.70650        1.26064
C         -5.76001       -3.79241        1.26930
C         -6.25306       -5.11638        1.46483
C         -7.65416       -5.27990        1.63999
C         -8.19272       -6.57463        1.81562
C         -5.42848       -6.27600        1.49157
N         -5.97401       -7.53914        1.67222
C         -7.34059       -7.69120        1.82113
C         -5.09859       -8.73938        1.68716
C         -5.10668       -9.44091        3.04925
O         -4.22279       -6.17042        1.35270
O         -7.81998       -8.80811        1.95004
S         -5.77157       -1.28430        0.99774
C         -4.26955       -2.01423        0.88611
C         -4.41904       -3.38487        1.06034
C         -9.57939       -6.73532        1.97971
C        -10.42924       -5.63718        1.97905
C         -9.92462       -4.33936        1.80770
C        -10.78745       -3.22433        1.80686
N        -10.28574       -1.94529        1.63396
C         -8.92750       -1.75073        1.44301
C        -11.20258       -0.77794        1.63295
C        -10.94535        0.15200        2.82190
O         -8.50401       -0.62183        1.25876
O        -11.98657       -3.39812        1.96595
H          1.85180       -2.00606        0.08759
H          1.80841        2.99600       -0.40372
H          7.23626        0.24728       -1.36609
H         -3.68594        0.78256        0.47659
H          9.72799       10.52916       -0.79019
H          8.16224        9.78357       -1.20673
H          9.90027        9.17500        1.29010
H          8.44083       10.23591        1.24343
H          8.26694        8.47592        0.98365
H          3.31428       -1.11224        2.12584
H          4.39173       -1.84776        4.14926
H          8.12234       -2.28841        2.04027
H          7.04354       -1.57672       -0.02499
H          4.56998       -3.52411       -0.38157
H          4.71161       -5.09255       -2.23717
H          4.61756       -1.81601       -5.03493
H          4.45200       -0.23584       -3.19360
H         -2.09469        1.37285        2.57264
H         -2.31889        2.90191        4.40498
H         -0.09160        5.88281        2.23830
H          0.14410        4.34363        0.35170
H         -3.03541        3.33320       -0.42451
H         -3.77777        4.31735       -2.54668
H         -0.42182        2.52231       -4.56357
H          0.33015        1.55888       -2.49787
H          5.73649       -4.33341       -5.48632
H          4.87594       -5.59489       -4.54038
H          7.81714       -1.79038        4.77234
H          6.28382       -2.49304        5.38746
H          3.53630       -3.47951       -6.34610
H          3.75920       -5.22708       -6.69969
H          2.67228       -4.72063       -5.34975
H          8.39230       -3.99058        3.70604
H          8.08403       -4.15830        5.46983
H          6.81895       -4.67515        4.28960
H         -1.92848        6.36731        4.28633
H         -2.01280        4.98445        5.42767
H          0.57991        6.38525        4.52694
H         -0.24801        6.53592        6.11862
H          0.47196        4.95460        5.63376
H         -1.94048        3.74180       -5.85746
H         -3.63233        3.72754       -5.25766
H         -1.54292        5.97287       -4.83635
H         -2.90140        5.98739       -6.02176
H         -3.25868        6.01900       -4.25584
H          7.24439        5.01156       -1.15160
H         13.51195        8.68148       -3.08359
H         14.64457        6.85092       -4.16569
H         14.15506        2.36887       -6.26309
H         14.93568        1.90689       -4.70544
H         12.40868        0.64088       -5.92641
H         14.06516       -0.03953       -5.89899
H         13.19766        0.16265       -4.34605
H         -5.42069       -9.44594        0.89164
H         -4.03970       -8.48250        1.47533
H         -6.11110       -9.82200        3.31849
H         -4.41619      -10.31018        3.01956
H         -4.76510       -8.74009        3.83943
H         -3.55825       -4.02921        1.02320
H        -10.01647       -7.71715        2.11441
H        -11.49007       -5.81222        2.11233
H        -11.09588       -0.22002        0.67772
H        -12.26682       -1.08965        1.70373
H         -9.92624        0.58566        2.80122
H        -11.66953        0.99353        2.79515
H        -11.07898       -0.40354        3.77374
