164
IDT-PDOT.sdf
C          3.56082       -1.33500       -0.20463
C          3.47700       -0.66357        1.01031
C          2.47215        0.26659        1.34772
C          1.38372        0.35231        0.45896
C          1.29014       -0.65838       -0.48899
C          2.35090       -1.45468       -0.91267
C          4.83436       -2.19117       -0.30305
C          4.80405       -2.53811        1.18409
C          4.21381       -1.52245        1.89794
C          5.19794       -3.61390        1.98001
C          4.78191       -3.43054        3.31644
S          4.00889       -1.92528        3.51231
C          0.06250        1.14600        0.47962
C         -0.82277       -0.05768        0.19645
C         -0.10863       -0.96025       -0.53732
C         -2.11486       -0.49250        0.50061
C         -2.28985       -1.80797        0.05525
S         -0.92397       -2.38467       -0.77838
C          4.78108       -4.50525        4.31729
C         -3.44668       -2.63535        0.32056
C         -0.11886        2.00306        1.75908
C         -0.03364        2.01667       -0.85086
C          4.60814       -3.25229       -1.43666
C          6.19000       -1.32715       -0.47457
C          4.97531       -2.92629       -2.75486
C          4.90816       -3.76658       -3.83630
C          4.30366       -4.99111       -3.69285
C          3.76646       -5.33011       -2.43253
C          3.93160       -4.47980       -1.30624
C          7.43722       -1.80450        0.03133
C          8.61961       -1.05384       -0.05756
C          8.63594        0.20198       -0.65526
C          7.46660        0.69339       -1.17745
C          6.29926       -0.03318       -1.09020
C          0.36797        3.33082        1.75448
C          0.13419        4.20426        2.82065
C         -0.57014        3.77393        3.94834
C         -0.98711        2.43521        4.01484
C         -0.76351        1.55597        2.93709
C         -1.28865        2.34344       -1.44450
C         -1.37894        3.01751       -2.66749
C         -0.23369        3.40973       -3.35560
C          1.01614        3.14412       -2.78872
C          1.12076        2.46168       -1.56449
C         -0.90142        4.74975        5.05464
C         -0.36086        4.08290       -4.69934
C          9.88532        1.02257       -0.72712
C          4.16999       -5.86221       -4.91079
C         10.27832        1.32752       -2.16981
C          5.53712       -6.19207       -5.50206
C         -2.25718        5.41574        4.79717
C         -0.45772        5.59574       -4.56105
S         -4.77597       -2.17473        1.20222
C         -5.68090       -3.58789        0.95047
C         -4.83023       -4.50330        0.25216
C         -3.60483       -3.94578       -0.10888
S          3.71916       -4.62677        5.62203
C          4.12810       -6.17795        6.12146
C          5.15746       -6.61304        5.23571
C          5.52873       -5.66459        4.25417
C          3.44108       -6.93135        7.24705
C          2.11943       -6.78138        7.62195
C          1.19715       -5.99527        6.80318
C          0.67583       -6.98137        5.88567
C          0.89808       -8.23012        6.46038
C          1.42744       -8.07212        7.84927
C          0.20099       -6.82351        4.60055
C          0.10791       -7.96945        3.80771
C          0.40821       -9.24490        4.34077
C          0.75873       -9.38780        5.69653
O          0.96208       -4.80184        6.86667
C          0.38853       -7.89197        8.74175
C          0.33565       -8.46680       10.03434
C         -0.79603       -7.08331        8.50635
N         -1.72920       -6.43288        8.29329
N          0.14600       -8.85759       11.10260
F          0.39989      -10.33469        3.53482
F         -0.19654       -7.81955        2.49824
C         -7.14803       -3.71417        1.31328
C         -7.86762       -2.70210        1.87640
C         -7.31949       -1.39975        2.12929
C         -7.74652       -0.65163        0.98028
C         -8.77877       -1.33542        0.36159
C         -9.18981       -2.45601        1.28537
C         -7.14680        0.45635        0.48055
C         -7.42094        0.73439       -0.90907
C         -8.47959        0.08124       -1.57400
C         -9.22175       -0.91545       -0.90615
O         -6.70620       -1.02595        3.11579
C        -10.05908       -1.92466        2.20672
C        -11.41588       -2.33405        2.13318
C         -9.71177       -1.00362        3.29642
N        -12.49338       -2.72223        1.99554
N         -9.48365       -0.27724        4.16977
F         -6.69496        1.58807       -1.68063
F         -8.78601        0.44278       -2.85858
O          5.68254       -7.86005        5.23697
C          6.06004       -8.47415        4.05374
C          7.46575       -8.10102        3.62032
C          7.67126       -6.58642        3.59533
O          6.52586       -5.84488        3.33687
O         -5.14491       -5.79827       -0.10697
C         -4.84241       -6.35369       -1.36238
C         -3.49241       -6.88857       -1.42285
C         -2.51313       -6.02451       -0.68353
O         -2.66594       -4.64511       -0.81318
H          2.44537        0.76521        2.30641
H          2.18951       -2.23576       -1.64118
H          5.65847       -4.51015        1.58520
H         -2.86255        0.06196        1.05503
H          5.29718       -1.98985       -3.03513
H          5.30737       -3.41702       -4.79047
H          3.22345       -6.25170       -2.32933
H          3.49760       -4.76537       -0.36340
H          7.56128       -2.75016        0.52127
H          9.53013       -1.45642        0.35089
H          7.42195        1.66340       -1.66680
H          5.57308        0.55183       -1.55280
H          0.90466        3.72006        0.90292
H          0.47843        5.22996        2.75044
H         -1.51151        2.07997        4.89406
H         -1.11895        0.54253        3.03692
H         -2.23465        2.06740       -1.01377
H         -2.35614        3.22049       -3.09021
H          1.91653        3.45324       -3.30585
H          2.12621        2.28877       -1.21062
H         -0.91893        4.23017        6.03642
H         -0.13192        5.55016        5.10890
H          0.50643        3.81828       -5.34184
H         -1.26983        3.70490       -5.22006
H          9.73028        1.97567       -0.17580
H         10.71034        0.47373       -0.23599
H          3.62677       -6.79112       -4.65233
H          3.57032       -5.33746       -5.69151
H          9.48917        1.92173       -2.67903
H         11.21649        1.91804       -2.17192
H         10.44405        0.38423       -2.73150
H          6.14882       -6.75277       -4.76576
H          5.40453       -6.81741       -6.40875
H          6.07589       -5.26396       -5.79491
H         -3.06933        4.65872        4.75117
H         -2.48925        6.13253        5.61400
H         -2.23712        5.97906        3.83849
H          0.46284        5.99427       -4.08589
H         -0.56708        6.04917       -5.56911
H         -1.34158        5.87377       -3.94788
H          3.95260       -7.81167        7.62321
H          0.01971       -5.84930        4.18003
H          0.99675      -10.36204        6.10207
H         -7.73201       -4.54124        0.91577
H         -6.46063        0.87347        1.23477
H        -10.04928       -1.38098       -1.40641
H          5.32899       -8.19222        3.25802
H          5.97841       -9.56999        4.13345
H          8.26230       -8.53838        4.27037
H          7.58971       -8.55631        2.61496
H          8.04992       -6.25977        4.58933
H          8.45720       -6.37418        2.84107
H         -4.88595       -5.48462       -2.05279
H         -5.31167       -7.36057       -1.72030
H         -3.48492       -7.87090       -0.88438
H         -3.34782       -7.02750       -2.52377
H         -2.66168       -6.27498        0.39400
H         -1.55589       -6.39126       -1.07188
