162
IDT-CT.sdf
C          2.76440       -1.75978       -0.51970
C          2.90088       -1.03361        0.66890
C          2.04904        0.01031        1.03070
C          0.93806        0.24788        0.19977
C          0.74755       -0.54264       -0.93660
C          1.65988       -1.52112       -1.35590
C          3.87970       -2.80866       -0.66939
C          4.44768       -2.70061        0.73878
C          3.93662       -1.66302        1.43008
C          5.32836       -3.48993        1.48163
C          5.45759       -3.04050        2.80853
S          4.50746       -1.62657        3.00525
C         -0.22842        1.23444        0.41451
C         -1.14600        0.72996       -0.69054
C         -0.54634       -0.21861       -1.45309
C         -2.46428        0.99315       -1.07098
C         -2.85265        0.18730       -2.15454
S         -1.56494       -0.82098       -2.63296
C         -0.92462        1.07169        1.77822
C          0.23886        2.69211        0.17155
C          3.29484       -4.19145       -0.98632
C          4.97301       -2.38254       -1.67352
C          3.07406       -4.55117       -2.33101
C          2.56588       -5.80612       -2.67123
C          2.24406       -6.74239       -1.67168
C          2.43686       -6.38201       -0.32946
C          2.95563       -5.12875        0.01203
C          6.25451       -2.97149       -1.63561
C          7.27296       -2.54225       -2.49123
C          7.03347       -1.53592       -3.43594
C          5.75565       -0.96727       -3.51234
C          4.74427       -1.37490       -2.63930
C         -0.58002        0.06226        2.70821
C         -1.23443       -0.04564        3.93360
C         -2.25666        0.84539        4.27672
C         -2.62280        1.84389        3.36149
C         -1.96725        1.95381        2.12921
C         -0.32415        3.49485       -0.85135
C          0.11996        4.79726       -1.08538
C          1.16325        5.34453       -0.33045
C          1.73504        4.56358        0.68870
C          1.26435        3.26639        0.95031
C         -2.95943        0.71414        5.60591
C          1.67017        6.73494       -0.66815
C          8.14113       -1.05670       -4.34183
C          1.69985       -8.12742       -1.96944
C          7.85299       -1.36343       -5.80837
C          1.55433       -8.47376       -3.45287
C         -1.99826        0.90910        6.77925
C          1.88236        7.63734        0.54621
C         -4.23236        0.08506       -2.74535
C         -6.17070        4.00165       -2.42824
C         -4.44794        0.93833       -3.98296
C         -4.56998        2.42502       -3.65369
C         -5.61474        2.72174       -2.56644
C         -5.95399        1.54349       -1.67001
C         -5.30830        0.36538       -1.73578
C          6.93105       -5.05282        3.60850
C          6.62471       -3.82264        7.67154
C          8.25356       -5.01345        4.33985
C          7.98595       -4.99952        5.84993
C          6.90093       -4.01066        6.30827
C          6.16335       -3.30898        5.18123
C          6.19388       -3.75995        3.90044
C         -7.24760        4.34293       -1.43073
N         -7.85316        5.57678       -1.40511
C         -7.44401        6.61505       -2.32428
N         -6.35817        6.38548       -3.25246
C         -5.73323        5.16335       -3.29251
C          5.53147       -2.91603        8.18944
N          5.26562       -2.78190        9.52891
C          6.05241       -3.49846       10.50808
N          7.11523       -4.38229       10.08709
C          7.38401       -4.56095        8.75439
O          8.26721       -5.34925        8.44795
O          4.83880       -2.29434        7.40065
C          7.91730       -5.13386       11.07217
C          7.28257       -6.49040       11.36407
C          4.15934       -1.89477        9.93481
C          4.64943       -0.45793       10.08377
S          5.77084       -3.32917       11.92589
C         -5.86068        7.45010       -4.15631
C         -6.10887        7.11826       -5.63221
C         -8.91577        5.81286       -0.40695
C         -8.34315        6.45685        0.85278
S         -8.13578        7.89270       -2.30592
O         -7.61042        3.50787       -0.61945
O         -4.76291        5.03666       -4.02285
H          2.19001        0.53400        1.96531
H          1.48160       -2.11460       -2.24227
H          5.77218       -4.38646        1.08190
H         -3.11382        1.69506       -0.56702
H          3.30916       -3.86253       -3.13211
H          2.43326       -6.02866       -3.72044
H          2.18893       -7.08074        0.46058
H          3.08086       -4.90405        1.06145
H          6.49073       -3.74649       -0.92629
H          8.25305       -2.99557       -2.41034
H          5.54389       -0.19024       -4.23643
H          3.78643       -0.88897       -2.73610
H          0.18216       -0.67128        2.51355
H         -0.94147       -0.83485        4.61485
H         -3.41613        2.54122        3.59972
H         -2.27154        2.73906        1.44936
H         -1.10986        3.13774       -1.49596
H         -0.33781        5.36582       -1.88640
H          2.54309        4.95273        1.29241
H          1.72598        2.70984        1.74983
H         -3.76941        1.46988        5.69443
H         -3.42145       -0.29448        5.67288
H          2.64311        6.64187       -1.19290
H          0.96122        7.23632       -1.36506
H          8.27166        0.03908       -4.20487
H          9.10206       -1.54786       -4.07532
H          2.38520       -8.87595       -1.51566
H          0.70310       -8.22818       -1.48818
H          6.91898       -0.86794       -6.14533
H          8.69327       -0.99304       -6.43322
H          7.75990       -2.46086       -5.95368
H          2.54232       -8.42676       -3.95947
H          1.16146       -9.50735       -3.55553
H          0.84352       -7.77985       -3.94930
H         -1.54355        1.92166        6.73973
H         -2.55372        0.80440        7.73500
H         -1.18980        0.14805        6.76602
H          2.69255        7.23280        1.18861
H          2.20942        8.64182        0.19983
H          0.95225        7.74304        1.13993
H         -4.36666       -0.96688       -3.08040
H         -5.42100        0.62192       -4.42710
H         -3.66031        0.75585       -4.74584
H         -3.59145        2.86164       -3.35966
H         -4.90326        2.84011       -4.62839
H         -6.67443        1.57020       -0.87652
H         -5.54669       -0.40933       -1.01123
H          7.11148       -5.20726        2.52967
H          6.34060       -5.91873        3.98447
H          8.80356       -4.09828        4.02659
H          8.87834       -5.89911        4.09115
H          7.65278       -6.01706        6.15356
H          8.96830       -4.76325        6.30995
H          5.59368       -2.41738        5.35202
H          8.95890       -5.28187       10.71209
H          8.05292       -4.56327       12.01408
H          7.21517       -7.09082       10.43214
H          7.90350       -7.04235       12.10027
H          6.26328       -6.35767       11.78379
H          3.32107       -1.94155        9.20582
H          3.68821       -2.22336       10.88391
H          5.06337       -0.08791        9.12249
H          3.80428        0.19510       10.38697
H          5.43857       -0.40560       10.86334
H         -6.34231        8.43113       -3.98415
H         -4.77517        7.61341       -3.97741
H         -7.19620        6.99106       -5.81929
H         -5.73536        7.95173       -6.26589
H         -5.58399        6.19724       -5.95718
H         -9.74332        6.41692       -0.83328
H         -9.41904        4.86634       -0.10559
H         -7.87368        7.43334        0.61797
H         -9.15460        6.61408        1.59384
H         -7.57921        5.78595        1.30164
