144
IDT-BT-R.sdf
C          2.74194       -1.47895       -0.48794
C          2.82543       -0.87727        0.77148
C          1.96975        0.15564        1.19517
C          0.93274        0.51457        0.31985
C          0.75716       -0.20986       -0.86168
C          1.65670       -1.16355       -1.32316
C          3.90953       -2.45905       -0.73219
C          4.47905       -2.46675        0.67512
C          3.86826       -1.55801        1.47159
C          5.45735       -3.21832        1.32986
C          5.50308       -2.91745        2.70235
S          4.40287       -1.65214        3.04582
C         -0.13760        1.61817        0.44936
C         -1.05888        1.13030       -0.65239
C         -0.50266        0.16212       -1.40148
C         -2.35752        1.43616       -1.02330
C         -2.80729        0.62045       -2.07604
S         -1.55321       -0.43688       -2.55599
C          6.25929       -3.66709        3.74160
C         -4.20496        0.61972       -2.57737
C         -0.84212        1.63033        1.80975
C          0.40354        2.99729       -0.00850
C          3.40473       -3.82159       -1.24823
C          4.99709       -1.88303       -1.65600
C          5.81359       -3.59480        5.07236
C          6.42267       -4.32641        6.09350
C          7.52650       -5.16496        5.84800
C          7.98449       -5.25023        4.51866
C          7.35554       -4.50748        3.46978
C         -5.03369        1.71715       -2.30182
C         -6.37119        1.74271       -2.68898
C         -6.97275        0.66435       -3.36584
C         -6.14687       -0.44383       -3.65725
C         -4.76897       -0.46471       -3.27319
N          9.03833       -6.01935        4.13843
S          9.13551       -5.72849        2.51663
N          7.90079       -4.66968        2.23607
N         -6.58905       -1.56224       -4.29226
S         -5.24289       -2.51615       -4.33515
N         -4.09327       -1.60024       -3.58618
C          2.87691       -3.91101       -2.55447
C          2.40297       -5.12101       -3.06777
C          2.46428       -6.29041       -2.30059
C          3.00260       -6.22566       -1.00811
C          3.45970       -5.01036       -0.48519
C          4.89019       -0.59749       -2.23464
C          5.92206       -0.07220       -3.01597
C          7.09044       -0.81067       -3.24694
C          7.20100       -2.09543       -2.69215
C          6.16997       -2.62277       -1.90598
C         -0.86283        2.79283        2.61807
C         -1.53179        2.80692        3.84238
C         -2.18750        1.66007        4.30367
C         -2.16219        0.49430        3.52148
C         -1.50167        0.48200        2.28837
C         -0.49750        4.00711       -0.41893
C         -0.04480        5.21539       -0.94777
C          1.32544        5.47786       -1.05405
C          2.23650        4.50905       -0.60514
C          1.78464        3.28247       -0.10044
C         -2.91604        1.68602        5.62346
C          1.81090        6.76600       -1.67731
C          8.20620       -0.22834       -4.08377
C          1.94785       -7.59645       -2.85713
C          3.06594       -8.62010       -3.03771
C          9.50091       -0.07071       -3.29064
C         -4.29792        2.31596        5.46844
C          1.28195        8.00725       -0.96223
C          8.18996       -5.98554        6.91371
C         -8.42383        0.61744       -3.75702
C          8.14740       -5.80732        8.25785
S          7.35070       -4.45070        9.14139
C          7.96107       -5.16674       10.65965
N          8.71680       -6.36506       10.50498
C          8.82295       -6.71882        9.20113
S          7.68534       -4.53905       11.92579
C          9.28329       -7.14929       11.60284
C         10.80895       -7.20487       11.53061
O          9.41125       -7.72774        8.84143
C         -9.39501        1.55528       -3.60922
S         -9.23614        3.21524       -2.91400
C        -10.95175        3.48638       -3.31614
N        -11.61709        2.36711       -3.88813
C        -10.78432        1.31454       -4.04583
S        -11.61439        4.70823       -2.93834
C        -13.01993        2.34564       -4.27911
C        -13.21450        3.13318       -5.57085
O        -11.15285        0.25529       -4.53644
H          2.08751        0.63483        2.15828
H          1.47774       -1.64865       -2.26757
H          6.00944       -4.00476        0.84220
H         -2.96270        2.15511       -0.49332
H          4.95238       -2.99562        5.33801
H          5.96634       -4.24063        7.05821
H         -4.65989        2.58425       -1.77742
H         -6.89015        2.62902       -2.41176
H          2.83563       -3.04185       -3.19398
H          1.99472       -5.14319       -4.07052
H          3.05984       -7.11741       -0.39578
H          3.84969       -5.02693        0.51839
H          4.02333        0.02750       -2.07662
H          5.80940        0.92153       -3.43250
H          8.09056       -2.68847       -2.86103
H          6.29365       -3.61081       -1.48381
H         -0.36348        3.70296        2.31496
H         -1.52923        3.71321        4.43606
H         -2.67355       -0.39781        3.85978
H         -1.51361       -0.42619        1.69634
H         -1.56229        3.86060       -0.37030
H         -0.77370        5.93916       -1.29051
H          3.30210        4.68770       -0.67324
H          2.53009        2.56320        0.20167
H         -3.05654        0.65307        6.00722
H         -2.31353        2.24189        6.37603
H          2.92174        6.80302       -1.67661
H          1.47111        6.79626       -2.73581
H          8.38527       -0.88645       -4.96179
H          7.91872        0.77686       -4.46680
H          1.17041       -8.00217       -2.17317
H          1.47507       -7.43702       -3.85057
H          3.55953       -8.85036       -2.07091
H          2.64273       -9.56073       -3.44990
H          3.82329       -8.23175       -3.75219
H          9.86755       -1.05286       -2.92627
H         10.28362        0.37064       -3.94386
H          9.34302        0.60507       -2.42321
H         -4.90550        1.71201        4.75907
H         -4.81677        2.32588        6.45020
H         -4.22446        3.35643        5.08907
H          1.60975        8.01506        0.09755
H          1.67174        8.91544       -1.46913
H          0.17318        8.04649       -1.00476
H          8.78900       -6.81932        6.55585
H         -8.74119       -0.31174       -4.22088
H          9.02017       -6.71109       12.58642
H          8.86396       -8.17757       11.57837
H         11.22879       -6.17780       11.56622
H         11.19439       -7.78092       12.39797
H         11.15272       -7.70763       10.60544
H        -13.36431        1.30724       -4.47411
H        -13.64993        2.74655       -3.45480
H        -12.61522        2.65807       -6.37796
H        -14.28374        3.11502       -5.86364
H        -12.88758        4.18624       -5.45737
