146
IDT2Se-4F.sdf
C          2.64738       -1.19765       -0.54199
C          2.34255       -0.81710        0.77496
C          1.46808        0.23997        1.11214
C          0.69927        0.76966        0.05823
C          0.72995        0.08155       -1.15008
C          1.72461       -0.82348       -1.53005
C          3.73033       -2.29459       -0.58500
C          3.39245       -2.88006        0.79508
C          2.73685       -1.96784        1.57429
C          3.60076       -4.11807        1.43091
C          2.95210       -4.18476        2.67424
S          2.22593       -2.68142        3.02142
C         -0.49743        1.72617        0.05486
C         -1.40572        0.69928       -0.58518
C         -0.66416        0.01096       -1.52408
C         -2.69509        0.19462       -0.40454
C         -2.88849       -0.91770       -1.21134
S         -1.50723       -1.27139       -2.15598
C          2.86107       -5.40478        3.49197
C         -3.99793       -1.83079       -1.04557
C         -0.77692        2.39325        1.43645
C         -0.35522        2.81871       -1.10319
C          3.57218       -3.24126       -1.84031
C          5.14538       -1.62320       -0.42671
C          4.18807       -3.02239       -3.11456
C          4.04942       -3.90222       -4.18928
C          3.22281       -5.01402       -4.08108
C          2.55622       -5.22846       -2.87274
C          2.73693       -4.37119       -1.78044
C          6.24248       -2.29351        0.18039
C          7.48128       -1.66259        0.36544
C          7.68284       -0.35024       -0.06885
C          6.63177        0.32812       -0.66187
C          5.40147       -0.27987       -0.80386
C         -0.13989        3.62422        1.72148
C         -0.39321        4.34868        2.88248
C         -1.26541        3.85383        3.85059
C         -1.84685        2.59261        3.64273
C         -1.61441        1.87318        2.45155
C         -1.50462        3.38366       -1.73490
C         -1.40585        4.23738       -2.83879
C         -0.16149        4.60445       -3.34606
C          0.98873        4.09920       -2.73285
C          0.89904        3.20955       -1.65345
C         -1.55435        4.66576        5.09592
C         -0.06960        5.50382       -4.55387
C          9.00002        0.34266        0.11604
C          3.00929       -5.94673       -5.25101
C          9.58251        0.75124       -1.23200
C          4.31580       -6.57855       -5.72737
C         -3.04164        5.01184        5.23514
C          0.68106        6.79115       -4.23020
Se        -3.74613       -3.51487       -1.49014
C         -5.06450       -3.89325       -0.34804
C         -5.79020       -2.77689       -0.04082
C         -5.17973       -1.61456       -0.40570
Se         1.50808       -5.85971        4.66703
C          2.62042       -7.13264        5.30315
C          3.66083       -7.25150        4.40485
C          3.83215       -6.33669        3.44939
C          2.62657       -7.83044        6.67162
C          3.37304       -7.26138        7.70389
C          4.78382       -7.61558        7.48382
C          5.46219       -6.40363        7.04162
C          4.68652       -5.28875        7.29848
C          3.44527       -5.76802        7.93131
C          6.61856       -6.31982        6.27629
C          7.07988       -5.05409        5.91068
C          6.34194       -3.90269        6.23285
C          5.10206       -4.01047        6.87723
O          5.21839       -8.74550        7.32675
C          2.63749       -5.00703        8.70942
C          1.71295       -5.60160        9.64479
C          2.78213       -3.57208        8.75559
N          2.93658       -2.42464        8.75340
N          0.96012       -6.04040       10.40798
C         -5.22582       -5.24033        0.21833
C         -6.39931       -5.79605        0.59203
C         -7.79370       -5.25334        0.46826
C         -8.70155       -6.10415        1.06125
C         -8.06263       -7.20264        1.53688
C         -6.61499       -7.17032        1.14246
C        -10.06975       -5.86089        1.17220
C        -10.82522       -6.79042        1.86730
C        -10.19587       -7.90392        2.43943
C         -8.81994       -8.11345        2.27377
O         -8.24358       -4.26878       -0.06977
C         -5.76739       -8.23990        1.17589
C         -4.37503       -8.21725        0.77308
C         -6.29303       -9.52956        1.55675
N         -3.25816       -8.24947        0.46007
N         -6.77512      -10.53515        1.87099
F          6.83203       -2.68527        5.90197
F          8.25161       -4.94119        5.24645
F        -12.15597       -6.60546        2.01702
F        -10.91633       -8.78892        3.16202
H          1.24159        0.49911        2.13802
H          1.67132       -1.35920       -2.46658
H          4.11345       -4.96047        0.98854
H         -3.42169        0.51224        0.32727
H          4.78471       -2.20200       -3.39064
H          4.58031       -3.69767       -5.11655
H          1.88182       -6.06445       -2.77127
H          2.18695       -4.60222       -0.89542
H          6.17883       -3.29939        0.55619
H          8.28094       -2.20476        0.85402
H          6.75218        1.34939       -1.00665
H          4.70184        0.38390       -1.20204
H          0.55602        4.07252        1.04271
H          0.09457        5.30769        3.01055
H         -2.49725        2.17214        4.39945
H         -2.10409        0.92351        2.35325
H         -2.51229        3.15431       -1.43458
H         -2.31623        4.59541       -3.30740
H          1.96532        4.37192       -3.11169
H          1.83815        2.83074       -1.29623
H         -1.24980        4.09374        5.99429
H         -0.96781        5.61259        5.07905
H          0.43467        4.96038       -5.38511
H         -1.08658        5.77708       -4.90908
H          8.86338        1.23738        0.76570
H          9.71856       -0.33342        0.61943
H          2.31272       -6.75785       -4.95042
H          2.53825       -5.40289       -6.10085
H          8.90996        1.46545       -1.75512
H         10.56764        1.23334       -1.07625
H          9.71900       -0.15019       -1.86563
H          4.77646       -7.17538       -4.91404
H          4.11014       -7.26069       -6.57926
H          5.03252       -5.79705       -6.05977
H         -3.65101        4.08961        5.33942
H         -3.19494        5.62337        6.15029
H         -3.40862        5.59272        4.36092
H          1.71340        6.57164       -3.88362
H          0.73560        7.42975       -5.13560
H          0.14103        7.35170       -3.43940
H         -6.62560       -2.71984        0.57448
H         -5.52405       -0.65463       -0.09411
H          4.44856       -7.86405        4.42658
H          4.75628       -6.33650        2.86755
H          2.81121       -8.90560        6.52706
H          7.12869       -7.21325        5.93374
H          4.49739       -3.11567        6.96548
H         -4.29618       -5.78967        0.33379
H        -10.53412       -4.96967        0.74420
H         -8.39560       -8.96561        2.74896
