186
IDTC-4Cl.sdf
C          2.67821       -1.55612       -0.23352
C          2.61499       -1.05208        1.05982
C          1.77962        0.00853        1.42433
C          0.78809        0.48000        0.47588
C          0.59680       -0.39765       -0.57668
C          1.52309       -1.33455       -1.01920
C          3.88158       -2.53599       -0.38075
C          3.86039       -3.00950        1.07097
C          3.28310       -2.06942        1.87891
C          4.20578       -4.20109        1.73196
C          3.81566       -4.19824        3.08022
S          3.09230       -2.68182        3.44959
C         -0.38250        1.55346        0.36596
C         -1.44721        0.55675       -0.06633
C         -0.83516       -0.43185       -0.77291
C         -2.82767        0.33359        0.10130
C         -3.23252       -0.90198       -0.42384
S         -1.90102       -1.68576       -1.12639
C          3.93595       -5.37602        3.99045
C         -4.59641       -1.45519       -0.28726
C         -0.66917        2.37055        1.66087
C         -0.12624        2.49602       -0.93044
C          3.62059       -3.66053       -1.46515
C          5.26474       -1.69168       -0.53853
C          4.42400       -3.83063       -2.59686
C          4.31219       -4.75105       -3.55325
C          3.27756       -5.62200       -3.52880
C          2.36742       -5.53217       -2.45786
C          2.54245       -4.56754       -1.42792
C          6.51941       -2.17423       -0.07044
C          7.71631       -1.42753       -0.22475
C          7.71174       -0.16268       -0.82436
C          6.52503        0.32227       -1.26117
C          5.39615       -0.40581       -1.14111
C          0.32828        3.15779        2.22587
C          0.18824        3.92992        3.34177
C         -1.02690        3.98274        3.99462
C         -2.08448        3.20359        3.50033
C         -1.90133        2.40694        2.35433
C         -1.20591        3.09633       -1.67367
C         -0.99809        3.89169       -2.81792
C          0.29262        4.15281       -3.29001
C          1.36104        3.57912       -2.59919
C          1.16727        2.76925       -1.46920
C         -1.15025        4.86897        5.20277
C          0.54942        5.01019       -4.52241
C          8.93363        0.68174       -1.03265
C          3.16563       -6.58262       -4.66776
C          9.97420       -0.02226       -1.91562
C          4.40426       -7.48734       -4.79022
C         -1.59058        6.28807        4.82506
C          0.01301        6.44127       -4.38224
S         -5.01068       -2.95080       -0.94739
C         -6.60810       -2.72543       -0.57343
C         -6.91124       -1.57398        0.08380
C         -5.73976       -0.80017        0.24503
S          3.46955       -5.40936        5.64165
C          4.03376       -6.97485        5.88399
C          4.56238       -7.49637        4.73424
C          4.50756       -6.61446        3.64577
C          5.27099      -10.30659       10.01881
C          4.54236      -10.20497       11.17340
C          4.99278       -9.01385       11.92556
C          3.87679       -8.05676       11.94129
C          2.73733       -8.66908       11.47499
C          3.06135      -10.07028       11.21562
C          3.88187       -6.70225       12.25937
C          2.69466       -5.96420       12.08959
C          1.52253       -6.59708       11.61434
C          1.54482       -7.96088       11.30535
O          6.15405       -8.72642       12.17496
C          2.18956      -11.10215       11.22591
C          2.66877      -12.46538       11.27482
C          0.76759      -10.89218       11.35386
N         -0.36777      -10.68607       11.45537
N          2.98501      -13.57852       11.31782
Cl         0.02827       -5.70347       11.36017
Cl         2.71282       -4.24219       12.42181
C        -10.10378       -4.17026       -4.11024
C        -11.42968       -4.33539       -4.22317
C        -12.29843       -4.34667       -3.05066
C        -13.02468       -3.10749       -3.16335
C        -12.85052       -2.60865       -4.44048
C        -12.15223       -3.59283       -5.26447
C        -13.64829       -2.38306       -2.16807
C        -14.01223       -1.05889       -2.46112
C        -13.73474       -0.50485       -3.73829
C        -13.17367       -1.29743       -4.74423
O        -12.12646       -4.99888       -2.03133
C        -12.27231       -3.71111       -6.62471
C        -11.60446       -4.73322       -7.38686
C        -13.28336       -2.92593       -7.28317
N        -11.12713       -5.51648       -8.09389
N        -14.10965       -2.26439       -7.74919
Cl       -14.72194       -0.08844       -1.18926
Cl       -14.01943        1.18855       -4.09170
C          4.24984       -7.90513        6.96727
C          4.90631       -8.98163        6.46990
C          5.16520       -8.88352        4.96335
C          4.46533      -10.03177        4.15125
C          6.70588       -8.82723        4.70886
C          7.14294       -8.73108        3.24617
C          4.87866      -11.48135        4.50145
S          4.08153       -8.03613        8.63896
C          4.88567       -9.54674        8.75806
C          5.26756       -9.91332        7.44290
C         -7.74677       -3.24560       -1.18176
C         -8.81825       -2.45190       -0.92638
C         -8.46058       -1.40207        0.19305
S         -7.88864       -4.27649       -2.47596
C         -9.44676       -3.77384       -2.81411
C         -9.83726       -2.73167       -1.88078
C         -8.98647       -1.95213        1.58279
C         -8.94807        0.06433       -0.09075
C         -8.74998       -1.10695        2.85114
C         -8.40469        0.74672       -1.36187
H          1.97979        0.28219        2.42528
H          1.25852       -1.88845       -1.89879
H          4.65283       -5.05701        1.25386
H         -3.53246        0.96399        0.60765
H          5.17521       -3.27868       -2.88545
H          5.08359       -4.70841       -4.32705
H          1.52802       -6.19474       -2.42415
H          1.81998       -4.54030       -0.63763
H          6.63089       -3.12754        0.40563
H          8.64677       -1.83655        0.11780
H          6.40033        1.29095       -1.73644
H          4.70851        0.16519       -1.58743
H          1.23041        3.22972        1.88693
H          1.04968        4.49098        3.67995
H         -3.04790        3.20890        3.99267
H         -2.74375        1.85384        2.04958
H         -2.24209        2.95253       -1.40818
H         -1.85653        4.30261       -3.34096
H          2.37337        3.74322       -2.92836
H          2.08623        2.38915       -1.06418
H         -1.87843        4.43006        5.91182
H         -0.15725        4.93009        5.70739
H          1.64256        5.07178       -4.71000
H          0.08012        4.53772       -5.41606
H          8.65294        1.63809       -1.52381
H          9.38324        0.90660       -0.04918
H          2.26505       -7.19853       -4.51147
H          3.07243       -6.01436       -5.61393
H          9.58983       -0.20015       -2.94188
H         10.86098        0.61541       -2.03787
H         10.26617       -0.99276       -1.45919
H          4.53463       -8.07366       -3.84658
H          4.29152       -8.17450       -5.62949
H          5.32353       -6.86691       -4.96173
H         -2.57671        6.26572        4.31509
H         -1.67772        6.91448        5.73842
H         -0.85176        6.78334        4.15832
H          0.51648        6.97841       -3.55097
H          0.22081        7.02270       -5.29537
H         -1.08466        6.42819       -4.19855
H         -5.70485        0.20787        0.62261
H          4.90758       -6.83274        2.67031
H          6.35345      -10.38638       10.10998
H          4.79266       -6.22594       12.59137
H          0.66442       -8.42330       10.89041
H         -9.50705       -3.94261       -4.99158
H        -13.77242       -2.80971       -1.18148
H        -12.91184       -0.87767       -5.70676
H          3.36422       -9.97385        4.29318
H          4.67392       -9.89326        3.06735
H          7.12568       -7.94419        5.23967
H          7.19676       -9.74304        5.09982
H          6.62041       -7.95069        2.66405
H          8.22523       -8.52756        3.20033
H          7.04315       -9.71968        2.77123
H          4.49539      -11.82271        5.48120
H          4.40249      -12.19589        3.80145
H          5.97738      -11.63166        4.44912
H          5.82177      -10.78049        7.15869
H        -10.73457       -2.12871       -1.96488
H        -10.08494       -2.11336        1.54175
H         -8.51626       -2.93869        1.78097
H        -10.05508        0.08773       -0.19470
H         -8.66967        0.71742        0.75710
H         -9.47209       -0.29941        2.94381
H         -9.01703       -1.64745        3.76513
H         -7.71860       -0.74512        2.98891
H         -8.55608        0.18702       -2.28393
H         -8.82133        1.74338       -1.51595
H         -7.37016        1.01766       -1.33763
