152
IDTC.sdf
C          1.03341       -1.00915       -0.79840
C          1.80928       -2.37955       -0.93421
S          2.22967       -3.31201       -2.34230
C          3.10729       -4.52548       -1.58356
C          3.16746       -4.22434       -0.25675
C          2.41642       -3.09102        0.13877
C          4.27425       -5.29170       -1.99067
C          5.07717       -5.20569       -0.86794
C          4.14352       -5.16772        0.39805
C          4.73005       -5.46980       -3.31394
C          6.12454       -5.36636       -3.55379
C          6.81575       -4.80414       -2.48979
C          6.39347       -4.77481       -1.17903
C          7.03736       -5.31378       -4.82789
C          7.67762       -3.99330       -4.42621
C          7.74014       -3.87620       -3.08643
C          8.07882       -2.81836       -5.07172
C          8.38009       -1.71242       -4.25342
S          8.21321       -2.31467       -2.65653
C          4.79761       -4.65899        1.73476
C          3.32760       -6.55009        0.55832
C          8.22270       -6.38702       -4.68963
C          6.27131       -5.33410       -6.21822
C          3.95534       -7.81448        0.71395
C          3.23123       -9.00498        0.87345
C          1.83524       -9.02255        0.83686
C          1.17422       -7.81289        0.63756
C          1.88931       -6.61445        0.51270
C          4.05829       -4.00880        2.75054
C          4.58976       -3.54793        3.92240
C          5.93745       -3.67006        4.16982
C          6.73176       -4.28562        3.19838
C          6.17266       -4.79279        2.02263
C          6.34603       -4.30350       -7.19177
C          5.65815       -4.28455       -8.37895
C          4.80836       -5.31768       -8.69514
C          4.69641       -6.38539       -7.80334
C          5.42407       -6.40614       -6.60140
C          8.81751       -7.01279       -5.81306
C          9.87747       -7.92063       -5.68765
C         10.40242       -8.27380       -4.44196
C          9.84498       -7.69038       -3.30508
C          8.79869       -6.76691       -3.42375
C          1.05275      -10.31554        0.96279
C          1.31013      -11.05158        2.27963
C          6.49086       -3.11987        5.44717
C          7.70857       -3.90168        5.93348
C         11.52557       -9.28646       -4.33707
C         12.78320       -8.84736       -5.09326
C          4.02856       -5.27611       -9.97534
C          4.79633       -5.93263      -11.11834
S          0.11837       -0.56842        0.54263
C         -0.42234        0.97614        0.05394
C          0.09276        1.28726       -1.23284
C          0.90520        0.12494       -1.68411
C         -0.26448        2.68680       -1.93387
C          1.64390        0.07316       -2.96835
C          2.62624        1.18815       -3.05039
C         -0.37612        3.04954       -3.28999
C         -0.15847        2.18902       -4.46481
C         -1.03368        2.60912       -5.47671
C         -1.40410        3.88797       -5.29399
C         -0.85190        4.33936       -3.96647
C         -1.43003        1.95896       -6.60530
S         -2.32301        3.07358       -7.48611
C         -2.12424        4.36851       -6.39184
O          0.93397        1.85186       -4.88165
C         -0.68584        5.63028       -3.57953
C         -0.91744        6.68065       -4.54039
C         -0.13031        5.99055       -2.30727
N          0.32545        6.21471       -1.26909
N         -1.12995        7.44636       -5.38148
C          8.67794       -0.27386       -4.77902
S          8.64232        0.07009       -6.43038
C          9.08760        1.69729       -6.40456
C          9.22003        2.13481       -5.08369
C          9.02154        0.99538       -4.14243
C          9.65719        3.62935       -4.86453
C          9.26663        1.10246       -2.62387
C         10.35187        0.18055       -2.16136
C          9.39233        4.50687       -3.82181
C          8.45591        4.31454       -2.70290
C          9.12480        4.85159       -1.53233
C         10.10118        5.71915       -1.93075
C         10.15274        5.75313       -3.41574
C          9.05733        4.59432       -0.17174
S         10.25667        5.55624        0.53811
C         10.84814        6.26086       -0.88876
O          7.43510        3.65170       -2.70781
C         10.73272        6.70036       -4.17333
C         11.17424        7.95054       -3.58543
C         10.74139        6.65017       -5.60374
N         10.80634        6.74257       -6.75348
N         11.52016        8.93519       -3.08229
H          2.39983       -2.77223        1.15016
H          3.99535       -5.50669       -4.09248
H          7.07856       -4.25843       -0.56144
H          8.13148       -2.73183       -6.08146
H          5.01162       -7.95763        0.71466
H          3.79019       -9.91614        1.01890
H          0.09201       -7.78512        0.57257
H          1.25365       -5.75764        0.37452
H          3.05037       -3.77658        2.75606
H          3.89512       -3.08524        4.61154
H          7.79084       -4.38211        3.33155
H          6.86299       -5.26882        1.36875
H          6.87978       -3.45639       -7.18176
H          5.79125       -3.43609       -9.04728
H          4.04044       -7.21091       -8.03046
H          5.27099       -7.28022       -6.00439
H          8.49652       -6.83539       -6.82092
H         10.27891       -8.35508       -6.58780
H         10.20987       -7.95460       -2.31543
H          8.47031       -6.39949       -2.47486
H         -0.03681      -10.10612        0.88897
H          1.32297      -10.98753        0.12016
H          1.01049      -10.42407        3.14410
H          0.71947      -11.99213        2.30780
H          2.37930      -11.33015        2.37423
H          6.76389       -2.05665        5.27796
H          5.69949       -3.16076        6.23043
H          8.52055       -3.86423        5.17871
H          8.09223       -3.46502        6.86979
H          7.44471       -4.95841        6.14023
H         11.79720       -9.45688       -3.27165
H         11.17955      -10.25535       -4.75830
H         13.16921       -7.89104       -4.68231
H         13.56979       -9.62506       -5.00175
H         12.58135       -8.72453       -6.17698
H          3.06032       -5.79788       -9.82765
H          3.80247       -4.21874      -10.24072
H          5.01449       -6.99395      -10.87855
H          4.18033       -5.90139      -12.03975
H          5.74967       -5.39705      -11.31544
H         -1.08812        1.58140        0.67060
H         -0.57621        3.49717       -1.25996
H          2.13672       -0.86223       -3.20952
H          0.93063        0.14601       -3.71266
H          3.17941        1.15141       -2.15195
H          3.25787        1.28567       -3.96856
H          2.06176        2.09006       -2.90403
H         -1.16151        0.93981       -6.81950
H         -2.49867        5.35827       -6.55935
H          9.23623        2.31852       -7.28343
H         10.40401        3.95802       -5.59461
H          9.61952        2.12773       -2.38039
H          8.42759        0.79115       -2.01276
H         11.03073        0.50920       -2.86052
H         10.89906        0.32242       -1.20253
H         10.19695       -0.86853       -2.39313
H          8.42542        3.86932        0.32730
H         11.69387        6.92717       -0.95719
