218
IDTIDT-IC.sdf
C          3.11606        0.66753       -0.91726
C          2.87591       -0.67077       -0.69887
C          4.40467        0.94583       -1.17928
C          5.15683       -0.11506       -1.18842
C          4.30578       -1.37944       -0.84067
C          4.30336       -2.43051       -2.01895
C          4.87914       -1.94497        0.52086
C          4.77338       -3.76977       -1.90597
C          4.72618       -4.68676       -2.92086
C          4.22517       -4.34587       -4.15516
C          3.76993       -3.03362       -4.35059
C          3.80664       -2.09195       -3.30191
C          5.95889       -1.35015        1.23349
C          6.49324       -1.94682        2.39162
C          5.98157       -3.16204        2.87977
C          4.91715       -3.72423        2.21569
C          4.38926       -3.12217        1.10717
C          4.21450       -5.38661       -5.23819
C          3.37946       -6.60863       -4.84286
C          6.51381       -3.89669        4.08438
C          7.69216       -3.18591        4.74473
S          5.15248        2.37746       -1.36924
C          6.65514        1.69775       -1.44617
C          6.49139        0.28334       -1.39283
C          7.89530        2.52967       -1.44456
C          8.56092        2.91212       -0.30770
C          8.22354        2.59167        1.10111
C          8.89591        3.44895        1.96382
C          9.78999        4.22282        1.28196
C          9.74350        3.84163       -0.17298
O          7.53703        1.71733        1.57557
C         10.64024        4.22425       -1.12291
C         10.59664        3.69465       -2.46834
C         11.71286        5.13057       -0.82173
N         10.66100        3.34345       -3.57089
N         12.59890        5.85449       -0.65309
C          8.68724        3.48897        3.33170
C          9.43261        4.38533        4.07104
C         10.36932        5.20812        3.42319
C         10.55970        5.13181        2.02533
C        -10.44459        9.93996        0.79041
C        -10.83792       10.75949        1.80698
C        -10.23994       10.89780        3.15173
C        -10.63962       12.08900        3.73947
C        -11.65410       12.64995        3.02150
C        -11.93804       11.78645        1.82483
O         -9.75017       10.06355        3.87510
C        -13.00548       11.89109        0.98139
C        -13.22029       10.98682       -0.11275
C        -13.99781       12.93022        1.10530
N        -13.35496       10.23224       -0.98360
N        -14.74764       13.79413        1.27845
C        -10.12657       12.60059        4.92133
C        -10.68581       13.76866        5.41278
C        -11.74337       14.38026        4.71689
C        -12.23385       13.82719        3.51526
C          2.24569        1.66057       -0.87460
C          0.96762        1.38777       -0.67631
C          0.49319        0.07068       -0.47011
C          1.48095       -1.01638       -0.43376
C          0.02705        2.53101       -0.64532
C         -1.16281        1.62331       -0.49568
C         -0.99226        0.26993       -0.33857
C          0.27488        3.38000        0.69621
C          0.06837        3.38469       -2.01380
C         -2.42739        2.02627       -0.41591
C         -3.43679        1.18090       -0.11665
S         -2.61701       -0.36641       -0.06148
S         -2.89420        3.49751       -0.50053
C         -4.27014        3.28600       -0.08761
C         -4.63258        2.01240        0.13168
C         -5.06842        4.30512        0.21825
C         -6.19918        3.74198        0.72956
C         -6.09241        2.13328        0.68204
C         -7.17630        1.60201       -0.32580
C         -6.11327        1.45681        2.09652
C         -4.74427        5.67142        0.04469
C         -5.70156        6.57606        0.36199
C         -6.90680        6.06287        0.87248
C         -7.18551        4.67815        1.10836
C         -5.64886        8.11616        0.16035
C         -7.11075        8.28393        0.55181
C         -7.74394        7.17095        0.97290
C         -4.67515        8.82413        1.20247
C         -5.38701        8.55665       -1.36465
C         -7.95713        9.32540        0.49400
C         -9.27466        9.03487        0.86313
S         -9.36322        7.39540        1.28465
C          1.26139        3.02949        1.66260
C          1.43813        3.71663        2.85368
C          0.66872        4.83332        3.15914
C         -0.28879        5.22906        2.25102
C         -0.47164        4.52148        1.08757
C         -1.04575        4.09452       -2.53451
C         -1.04448        4.84138       -3.67532
C          0.09717        4.95462       -4.43424
C          1.22468        4.26089       -4.02633
C          1.21388        3.49584       -2.86948
C         -7.04414        0.42635       -1.09220
C         -8.05819        0.05150       -2.01321
C         -9.22591        0.83095       -2.16489
C         -9.34864        1.96962       -1.42685
C         -8.36257        2.32731       -0.57245
C         -7.18273        1.59282        3.01158
C         -7.21616        0.99219        4.23917
C         -6.18710        0.18488        4.64998
C         -5.08353        0.01123        3.80647
C         -5.04286        0.64241        2.55739
C         -3.29435        9.01428        0.94149
C         -2.43221        9.67397        1.80589
C         -2.86695       10.12588        3.04618
C         -4.21357        9.90537        3.38666
C         -5.10378        9.28341        2.48168
C         -5.21729        7.62012       -2.42910
C         -5.00969        8.03178       -3.77172
C         -4.93971        9.39364       -4.10425
C         -5.07485       10.31748       -3.09338
C         -5.31790        9.91816       -1.79403
C          0.86267        5.59464        4.43813
C          2.30995        5.52209        4.92373
C          0.09738        5.77410       -5.67938
C          1.47643        6.37488       -5.95169
C        -10.34314        0.52645       -3.10919
C        -11.66281        0.32880       -2.36979
C         -6.32508       -0.47579        5.97839
C         -7.01557       -1.83281        5.84516
C         -1.87942       10.78474        3.99857
C         -1.23159       12.04561        3.41602
C         -4.73939        9.90430       -5.51289
C         -5.91496       10.78934       -5.95827
H          5.21238       -4.24500       -1.08399
H          5.10387       -5.67747       -2.69908
H          3.38644       -2.73421       -5.31305
H          3.44035       -1.10500       -3.52046
H          6.41503       -0.43238        0.91684
H          7.31420       -1.46810        2.89687
H          4.45928       -4.66017        2.51351
H          3.61253       -3.70074        0.75536
H          3.81269       -4.94312       -6.16900
H          5.25637       -5.72331       -5.43109
H          2.32839       -6.30908       -4.64666
H          3.39946       -7.35756       -5.65786
H          3.79485       -7.10377       -3.93828
H          5.69778       -4.00372        4.83217
H          6.82491       -4.92388        3.77326
H          7.39072       -2.19052        5.13293
H          8.05536       -3.76669        5.60841
H          8.51854       -3.06040        4.01173
H          7.26304       -0.43416       -1.39861
H          8.21256        2.90429       -2.40965
H          7.95460        2.83526        3.79932
H          9.27739        4.43134        5.13790
H         10.94736        5.90002        4.01123
H         11.28795        5.77614        1.57557
H        -10.93339        9.98029       -0.17819
H         -9.31250       12.09831        5.43783
H        -10.30335       14.18526        6.33253
H        -12.18349       15.27981        5.11556
H        -13.04008       14.32583        3.01626
H          2.56701        2.68086       -0.99204
H          1.19294       -2.04120       -0.24327
H         -3.80324        6.01572       -0.37438
H         -8.13750        4.35304        1.49930
H         -7.52121       10.15102        0.12136
H          1.94560        2.22806        1.58434
H          2.19498        3.35091        3.52559
H         -0.92569        6.09104        2.42387
H         -1.23634        4.98178        0.60276
H         -1.96379        4.17623       -2.22593
H         -1.96956        5.32788       -3.94052
H          2.13639        4.29456       -4.59711
H          2.15903        3.03402       -2.75896
H         -6.16394       -0.18875       -1.01043
H         -7.93264       -0.83221       -2.60940
H        -10.20404        2.63946       -1.49005
H         -8.64243        3.21444       -0.15228
H         -8.06715        2.13430        2.89557
H         -8.09393        1.17385        4.84892
H         -4.26329       -0.61650        4.10915
H         -4.17237        0.45136        1.97691
H         -2.79419        8.66417        0.06947
H         -1.40838        9.79828        1.47992
H         -4.58246       10.21412        4.35411
H         -6.11927        9.14854        2.81795
H         -5.26429        6.55933       -2.26240
H         -4.90481        7.28793       -4.55254
H         -5.01489       11.37932       -3.31332
H         -5.45932       10.77854       -1.22255
H          0.58645        6.65989        4.27706
H          0.19487        5.17493        5.22013
H          2.99585        5.96267        4.17291
H          2.42832        6.09327        5.86342
H          2.60272        4.46833        5.11514
H         -0.20450        5.12235       -6.52455
H         -0.64566        6.59211       -5.56815
H          2.23724        5.57620       -6.07250
H          1.44924        6.96422       -6.87723
H          1.78155        7.04741       -5.12289
H        -10.46702        1.37227       -3.82896
H        -10.07548       -0.37899       -3.67894
H        -11.98696        1.25826       -1.85549
H        -12.45351        0.06823       -3.09829
H        -11.55338       -0.48663       -1.62593
H         -5.32187       -0.58838        6.42039
H         -6.94222        0.17132        6.64705
H         -6.42552       -2.50018        5.18372
H         -7.09849       -2.30501        6.84464
H         -8.04409       -1.72712        5.43252
H         -2.39538       11.05097        4.94692
H         -1.06261       10.06772        4.24629
H         -2.00091       12.80966        3.18490
H         -0.52014       12.49285        4.14094
H         -0.66290       11.79908        2.49614
H         -3.80837       10.51282       -5.54839
H         -4.63598        9.06106       -6.22632
H         -6.02833       11.68162       -5.30490
H         -5.74253       11.15986       -6.98984
H         -6.86486       10.21535       -5.93039
