SCF done       -259.468635314910          0.000659871524
 OpenBabel12282109493D

150164  0  0  0  0  0  0  0  0999 V2000
   -2.0793   -0.5434    0.0093 C   0  0  0  0  0  0  0  0  0  0  0  0
   -2.2506   -0.4903    1.3866 C   0  0  0  0  0  0  0  0  0  0  0  0
   -3.2992   -0.0265   -0.7183 C   0  0  0  0  0  0  0  0  0  0  0  0
   -4.1684    0.3671    0.4405 C   0  0  0  0  0  0  0  0  0  0  0  0
   -3.5259    0.0779    1.6420 C   0  0  0  0  0  0  0  0  0  0  0  0
   -3.0475    1.1822   -1.6037 C   0  0  0  0  0  0  0  0  0  0  0  0
   -3.8407   -1.1733   -1.5580 C   0  0  0  0  0  0  0  0  0  0  0  0
   -5.4080    0.9612    0.6477 C   0  0  0  0  0  0  0  0  0  0  0  0
   -5.7014    1.1008    2.0209 C   0  0  0  0  0  0  0  0  0  0  0  0
   -4.4267    0.5008    3.0538 S   0  0  0  0  0  0  0  0  0  0  0  0
   -5.0334   -1.8144   -1.2647 C   0  0  0  0  0  0  0  0  0  0  0  0
   -5.4760   -2.8557   -2.0612 C   0  0  0  0  0  0  0  0  0  0  0  0
   -4.7360   -3.2874   -3.1527 C   0  0  0  0  0  0  0  0  0  0  0  0
   -3.5365   -2.6441   -3.4344 C   0  0  0  0  0  0  0  0  0  0  0  0
   -3.0921   -1.5998   -2.6485 C   0  0  0  0  0  0  0  0  0  0  0  0
   -1.8678    1.9084   -1.5474 C   0  0  0  0  0  0  0  0  0  0  0  0
   -1.6929    3.0124   -2.3631 C   0  0  0  0  0  0  0  0  0  0  0  0
   -2.6906    3.4224   -3.2364 C   0  0  0  0  0  0  0  0  0  0  0  0
   -3.8743    2.6957   -3.2766 C   0  0  0  0  0  0  0  0  0  0  0  0
   -4.0533    1.5878   -2.4723 C   0  0  0  0  0  0  0  0  0  0  0  0
   -8.8746    2.5901    1.0870 C   0  0  0  0  0  0  0  0  0  0  0  0
   -9.6914    2.9721    0.0479 C   0  0  0  0  0  0  0  0  0  0  0  0
  -10.9958    3.5837    0.1985 C   0  0  0  0  0  0  0  0  0  0  0  0
  -11.5104    3.8507   -1.1448 C   0  0  0  0  0  0  0  0  0  0  0  0
  -10.5626    3.4163   -2.0871 C   0  0  0  0  0  0  0  0  0  0  0  0
   -9.3948    2.8494   -1.3813 C   0  0  0  0  0  0  0  0  0  0  0  0
   -8.3989    2.3829   -1.9039 O   0  0  0  0  0  0  0  0  0  0  0  0
  -11.6588    3.8713    1.3652 C   0  0  0  0  0  0  0  0  0  0  0  0
  -12.9351    4.4701    1.4228 C   0  0  0  0  0  0  0  0  0  0  0  0
  -13.9694    4.9528    1.5466 N   0  0  0  0  0  0  0  0  0  0  0  0
  -11.1877    3.6189    2.6702 C   0  0  0  0  0  0  0  0  0  0  0  0
  -10.8826    3.4481    3.7651 N   0  0  0  0  0  0  0  0  0  0  0  0
  -12.6947    4.4221   -1.5791 C   0  0  0  0  0  0  0  0  0  0  0  0
  -12.9110    4.5508   -2.9475 C   0  0  0  0  0  0  0  0  0  0  0  0
  -11.9607    4.1159   -3.8767 C   0  0  0  0  0  0  0  0  0  0  0  0
  -10.7716    3.5411   -3.4445 C   0  0  0  0  0  0  0  0  0  0  0  0
  -14.3771    5.2594   -3.4939 Cl  0  0  0  0  0  0  0  0  0  0  0  0
  -12.2603    4.2915   -5.5586 Cl  0  0  0  0  0  0  0  0  0  0  0  0
   -6.6808    1.5614   -0.3432 S   0  0  0  0  0  0  0  0  0  0  0  0
   -7.6096    1.9980    1.0948 C   0  0  0  0  0  0  0  0  0  0  0  0
   -6.9298    1.6824    2.2883 C   0  0  0  0  0  0  0  0  0  0  0  0
   -1.1948   -1.2172    2.5890 S   0  0  0  0  0  0  0  0  0  0  0  0
    0.2920   -1.3627   -0.4254 C   0  0  0  0  0  0  0  0  0  0  0  0
   -0.8749   -0.9916   -0.4594 C   0  0  0  0  0  0  0  0  0  0  0  0
    8.4512   -4.2604    1.6273 C   0  0  0  0  0  0  0  0  0  0  0  0
    9.2372   -4.8780    0.6819 C   0  0  0  0  0  0  0  0  0  0  0  0
   10.5702   -5.3936    0.9178 C   0  0  0  0  0  0  0  0  0  0  0  0
   11.0427   -5.9744   -0.3394 C   0  0  0  0  0  0  0  0  0  0  0  0
   10.0406   -5.8219   -1.3127 C   0  0  0  0  0  0  0  0  0  0  0  0
    8.8795   -5.1301   -0.7160 C   0  0  0  0  0  0  0  0  0  0  0  0
   12.2333   -6.5965   -0.6753 C   0  0  0  0  0  0  0  0  0  0  0  0
   12.4018   -7.0559   -1.9777 C   0  0  0  0  0  0  0  0  0  0  0  0
   11.3977   -6.8995   -2.9384 C   0  0  0  0  0  0  0  0  0  0  0  0
   10.2018   -6.2753   -2.6051 C   0  0  0  0  0  0  0  0  0  0  0  0
    7.8476   -4.8368   -1.2919 O   0  0  0  0  0  0  0  0  0  0  0  0
   11.2893   -5.3589    2.0860 C   0  0  0  0  0  0  0  0  0  0  0  0
   12.5907   -5.8848    2.2296 C   0  0  0  0  0  0  0  0  0  0  0  0
   10.8580   -4.8037    3.3085 C   0  0  0  0  0  0  0  0  0  0  0  0
   10.5896   -4.3751    4.3406 N   0  0  0  0  0  0  0  0  0  0  0  0
   13.6483   -6.2879    2.4213 N   0  0  0  0  0  0  0  0  0  0  0  0
   11.6395   -7.4794   -4.5368 Cl  0  0  0  0  0  0  0  0  0  0  0  0
   13.8762   -7.8281   -2.4022 Cl  0  0  0  0  0  0  0  0  0  0  0  0
    1.5182   -1.6676    0.0984 C   0  0  0  0  0  0  0  0  0  0  0  0
    1.7346   -1.3767    1.4392 C   0  0  0  0  0  0  0  0  0  0  0  0
    0.7042   -0.3930    2.4682 S   0  0  0  0  0  0  0  0  0  0  0  0
    2.7326   -2.3136   -0.5289 C   0  0  0  0  0  0  0  0  0  0  0  0
    3.6513   -2.3867    0.6557 C   0  0  0  0  0  0  0  0  0  0  0  0
    3.0363   -1.8330    1.7757 C   0  0  0  0  0  0  0  0  0  0  0  0
    2.5041   -3.7126   -1.0740 C   0  0  0  0  0  0  0  0  0  0  0  0
    3.1995   -1.3892   -1.6421 C   0  0  0  0  0  0  0  0  0  0  0  0
    1.3687   -4.4475   -0.7690 C   0  0  0  0  0  0  0  0  0  0  0  0
    1.2212   -5.7325   -1.2606 C   0  0  0  0  0  0  0  0  0  0  0  0
    2.2039   -6.3140   -2.0496 C   0  0  0  0  0  0  0  0  0  0  0  0
    3.3420   -5.5725   -2.3428 C   0  0  0  0  0  0  0  0  0  0  0  0
    3.4930   -4.2866   -1.8633 C   0  0  0  0  0  0  0  0  0  0  0  0
    4.3741   -0.6586   -1.5613 C   0  0  0  0  0  0  0  0  0  0  0  0
    4.7427    0.1799   -2.5985 C   0  0  0  0  0  0  0  0  0  0  0  0
    3.9452    0.3184   -3.7257 C   0  0  0  0  0  0  0  0  0  0  0  0
    2.7661   -0.4140   -3.7957 C   0  0  0  0  0  0  0  0  0  0  0  0
    2.3957   -1.2583   -2.7682 C   0  0  0  0  0  0  0  0  0  0  0  0
    2.0193   -7.6921   -2.6159 C   0  0  0  0  0  0  0  0  0  0  0  0
    1.3200   -7.6192   -3.9750 C   0  0  0  0  0  0  0  0  0  0  0  0
    4.3716    1.1974   -4.8654 C   0  0  0  0  0  0  0  0  0  0  0  0
    5.2056    0.3986   -5.8694 C   0  0  0  0  0  0  0  0  0  0  0  0
    4.9161   -2.8812    0.9514 C   0  0  0  0  0  0  0  0  0  0  0  0
    5.2579   -2.6772    2.3052 C   0  0  0  0  0  0  0  0  0  0  0  0
    3.9949   -1.8805    3.2123 S   0  0  0  0  0  0  0  0  0  0  0  0
    6.1749   -3.6703    0.0835 S   0  0  0  0  0  0  0  0  0  0  0  0
    7.1667   -3.7180    1.5448 C   0  0  0  0  0  0  0  0  0  0  0  0
    6.5185   -3.1349    2.6522 C   0  0  0  0  0  0  0  0  0  0  0  0
   -2.4753    4.5903   -4.1549 C   0  0  0  0  0  0  0  0  0  0  0  0
   -1.8483    4.1229   -5.4702 C   0  0  0  0  0  0  0  0  0  0  0  0
   -5.2432   -4.3869   -4.0400 C   0  0  0  0  0  0  0  0  0  0  0  0
   -6.0702   -3.8047   -5.1883 C   0  0  0  0  0  0  0  0  0  0  0  0
   -7.4543    1.8709    3.6742 C   0  0  0  0  0  0  0  0  0  0  0  0
   -8.3578    0.7017    4.0766 C   0  0  0  0  0  0  0  0  0  0  0  0
    7.0587   -3.0550    4.0426 C   0  0  0  0  0  0  0  0  0  0  0  0
    6.8209   -4.3661    4.7974 C   0  0  0  0  0  0  0  0  0  0  0  0
   -5.6276   -1.5030   -0.4190 H   0  0  0  0  0  0  0  0  0  0  0  0
   -6.4121   -3.3412   -1.8254 H   0  0  0  0  0  0  0  0  0  0  0  0
   -2.9435   -2.9665   -4.2784 H   0  0  0  0  0  0  0  0  0  0  0  0
   -2.1594   -1.1060   -2.8822 H   0  0  0  0  0  0  0  0  0  0  0  0
   -1.0760    1.6166   -0.8725 H   0  0  0  0  0  0  0  0  0  0  0  0
   -0.7651    3.5643   -2.3137 H   0  0  0  0  0  0  0  0  0  0  0  0
   -4.6683    3.0004   -3.9423 H   0  0  0  0  0  0  0  0  0  0  0  0
   -4.9787    1.0331   -2.5196 H   0  0  0  0  0  0  0  0  0  0  0  0
   -9.2644    2.7751    2.0785 H   0  0  0  0  0  0  0  0  0  0  0  0
  -13.4510    4.7697   -0.8950 H   0  0  0  0  0  0  0  0  0  0  0  0
  -10.0298    3.2013   -4.1497 H   0  0  0  0  0  0  0  0  0  0  0  0
    8.8882   -4.1735    2.6126 H   0  0  0  0  0  0  0  0  0  0  0  0
   13.0308   -6.7357    0.0358 H   0  0  0  0  0  0  0  0  0  0  0  0
    9.4189   -6.1467   -3.3356 H   0  0  0  0  0  0  0  0  0  0  0  0
    0.5916   -4.0227   -0.1497 H   0  0  0  0  0  0  0  0  0  0  0  0
    0.3287   -6.2921   -1.0191 H   0  0  0  0  0  0  0  0  0  0  0  0
    4.1233   -6.0066   -2.9492 H   0  0  0  0  0  0  0  0  0  0  0  0
    4.3839   -3.7248   -2.1019 H   0  0  0  0  0  0  0  0  0  0  0  0
    5.0108   -0.7419   -0.6935 H   0  0  0  0  0  0  0  0  0  0  0  0
    5.6648    0.7383   -2.5252 H   0  0  0  0  0  0  0  0  0  0  0  0
    2.1298   -0.3193   -4.6640 H   0  0  0  0  0  0  0  0  0  0  0  0
    1.4775   -1.8243   -2.8379 H   0  0  0  0  0  0  0  0  0  0  0  0
    2.9907   -8.1752   -2.7365 H   0  0  0  0  0  0  0  0  0  0  0  0
    1.4181   -8.2967   -1.9339 H   0  0  0  0  0  0  0  0  0  0  0  0
    1.9101   -7.0285   -4.6721 H   0  0  0  0  0  0  0  0  0  0  0  0
    1.1875   -8.6160   -4.3891 H   0  0  0  0  0  0  0  0  0  0  0  0
    0.3428   -7.1523   -3.8727 H   0  0  0  0  0  0  0  0  0  0  0  0
    3.4922    1.6029   -5.3697 H   0  0  0  0  0  0  0  0  0  0  0  0
    4.9654    2.0323   -4.4880 H   0  0  0  0  0  0  0  0  0  0  0  0
    4.6258   -0.4314   -6.2669 H   0  0  0  0  0  0  0  0  0  0  0  0
    5.5164    1.0333   -6.6959 H   0  0  0  0  0  0  0  0  0  0  0  0
    6.0932   -0.0048   -5.3874 H   0  0  0  0  0  0  0  0  0  0  0  0
   -3.4296    5.0771   -4.3641 H   0  0  0  0  0  0  0  0  0  0  0  0
   -1.8151    5.3193   -3.6806 H   0  0  0  0  0  0  0  0  0  0  0  0
   -2.4984    3.4043   -5.9642 H   0  0  0  0  0  0  0  0  0  0  0  0
   -1.6911    4.9665   -6.1382 H   0  0  0  0  0  0  0  0  0  0  0  0
   -0.8895    3.6444   -5.2826 H   0  0  0  0  0  0  0  0  0  0  0  0
   -4.4021   -4.9489   -4.4511 H   0  0  0  0  0  0  0  0  0  0  0  0
   -5.8641   -5.0737   -3.4616 H   0  0  0  0  0  0  0  0  0  0  0  0
   -5.4638   -3.1279   -5.7862 H   0  0  0  0  0  0  0  0  0  0  0  0
   -6.4409   -4.5996   -5.8311 H   0  0  0  0  0  0  0  0  0  0  0  0
   -6.9193   -3.2481   -4.7983 H   0  0  0  0  0  0  0  0  0  0  0  0
   -6.6046    1.9161    4.3585 H   0  0  0  0  0  0  0  0  0  0  0  0
   -8.0114    2.8047    3.7612 H   0  0  0  0  0  0  0  0  0  0  0  0
   -7.8074   -0.2353    4.0328 H   0  0  0  0  0  0  0  0  0  0  0  0
   -8.7185    0.8485    5.0904 H   0  0  0  0  0  0  0  0  0  0  0  0
   -9.2165    0.6324    3.4131 H   0  0  0  0  0  0  0  0  0  0  0  0
    8.1262   -2.8299    4.0370 H   0  0  0  0  0  0  0  0  0  0  0  0
    6.5426   -2.2460    4.5640 H   0  0  0  0  0  0  0  0  0  0  0  0
    7.3195   -5.1938    4.2988 H   0  0  0  0  0  0  0  0  0  0  0  0
    7.2146   -4.2851    5.8063 H   0  0  0  0  0  0  0  0  0  0  0  0
    5.7568   -4.5842    4.8527 H   0  0  0  0  0  0  0  0  0  0  0  0
  1  2  2  0  0  0  0
  2  5  1  0  0  0  0
  2 42  1  0  0  0  0
  3  1  1  0  0  0  0
  3  4  1  0  0  0  0
  4  8  1  0  0  0  0
  4  5  2  0  0  0  0
  5 10  1  0  0  0  0
  6 16  1  0  0  0  0
  6  3  1  0  0  0  0
  7 11  1  0  0  0  0
  7  3  1  0  0  0  0
  8  9  2  0  0  0  0
  9 41  1  0  0  0  0
  9 10  1  0  0  0  0
 11 99  1  0  0  0  0
 12100  1  0  0  0  0
 12 11  2  0  0  0  0
 13 12  1  0  0  0  0
 14 13  2  0  0  0  0
 14 15  1  0  0  0  0
 15  7  2  0  0  0  0
 16103  1  0  0  0  0
 17104  1  0  0  0  0
 17 16  2  0  0  0  0
 18 17  1  0  0  0  0
 19 18  2  0  0  0  0
 19 20  1  0  0  0  0
 20  6  2  0  0  0  0
 21 40  1  0  0  0  0
 21107  1  0  0  0  0
 22 23  2  0  0  0  0
 22 21  1  0  0  0  0
 23 28  1  0  0  0  0
 24 23  1  0  0  0  0
 25 26  1  0  0  0  0
 25 24  2  0  0  0  0
 26 22  1  0  0  0  0
 27 26  2  0  0  0  0
 28 29  1  0  0  0  0
 28 31  1  0  0  0  0
 29 30  3  0  0  0  0
 31 32  3  0  0  0  0
 33 24  1  0  0  0  0
 33108  1  0  0  0  0
 34 33  2  0  0  0  0
 35 36  2  0  0  0  0
 35 34  1  0  0  0  0
 36 25  1  0  0  0  0
 37 34  1  0  0  0  0
 38 35  1  0  0  0  0
 39  8  1  0  0  0  0
 39 40  1  0  0  0  0
 40 41  2  0  0  0  0
 41 95  1  0  0  0  0
 43 63  1  0  0  0  0
 44 43  3  0  0  0  0
 44  1  1  0  0  0  0
 45110  1  0  0  0  0
 46 47  2  0  0  0  0
 46 45  1  0  0  0  0
 47 56  1  0  0  0  0
 48 47  1  0  0  0  0
 49 50  1  0  0  0  0
 49 48  2  0  0  0  0
 50 46  1  0  0  0  0
 51 48  1  0  0  0  0
 51111  1  0  0  0  0
 52 51  2  0  0  0  0
 53 54  2  0  0  0  0
 53 52  1  0  0  0  0
 54 49  1  0  0  0  0
 55 50  2  0  0  0  0
 56 57  1  0  0  0  0
 56 58  1  0  0  0  0
 57 60  3  0  0  0  0
 58 59  3  0  0  0  0
 61 53  1  0  0  0  0
 62 52  1  0  0  0  0
 63 64  2  0  0  0  0
 64 68  1  0  0  0  0
 64 65  1  0  0  0  0
 65 42  1  0  0  0  0
 66 63  1  0  0  0  0
 66 67  1  0  0  0  0
 67 85  1  0  0  0  0
 67 68  2  0  0  0  0
 68 87  1  0  0  0  0
 69 71  1  0  0  0  0
 69 66  1  0  0  0  0
 70 76  1  0  0  0  0
 70 66  1  0  0  0  0
 71113  1  0  0  0  0
 72114  1  0  0  0  0
 72 71  2  0  0  0  0
 73 72  1  0  0  0  0
 74 73  2  0  0  0  0
 74 75  1  0  0  0  0
 75 69  2  0  0  0  0
 76117  1  0  0  0  0
 77118  1  0  0  0  0
 77 76  2  0  0  0  0
 78 77  1  0  0  0  0
 79 78  2  0  0  0  0
 79 80  1  0  0  0  0
 80 70  2  0  0  0  0
 81 73  1  0  0  0  0
 81122  1  0  0  0  0
 82125  1  0  0  0  0
 82 81  1  0  0  0  0
 83127  1  0  0  0  0
 83 78  1  0  0  0  0
 84130  1  0  0  0  0
 84 83  1  0  0  0  0
 85 86  2  0  0  0  0
 86 90  1  0  0  0  0
 86 87  1  0  0  0  0
 88 85  1  0  0  0  0
 88 89  1  0  0  0  0
 89 45  1  0  0  0  0
 89 90  2  0  0  0  0
 90 97  1  0  0  0  0
 91132  1  0  0  0  0
 91 18  1  0  0  0  0
 92135  1  0  0  0  0
 92 91  1  0  0  0  0
 93137  1  0  0  0  0
 93 13  1  0  0  0  0
 94140  1  0  0  0  0
 94 93  1  0  0  0  0
 95142  1  0  0  0  0
 95 96  1  0  0  0  0
 95141  1  0  0  0  0
 96144  1  0  0  0  0
 97147  1  0  0  0  0
 97 98  1  0  0  0  0
 98150  1  0  0  0  0
 98149  1  0  0  0  0
101 14  1  0  0  0  0
102 15  1  0  0  0  0
105 19  1  0  0  0  0
106 20  1  0  0  0  0
109 36  1  0  0  0  0
112 54  1  0  0  0  0
115 74  1  0  0  0  0
116 75  1  0  0  0  0
119 79  1  0  0  0  0
120 80  1  0  0  0  0
121 81  1  0  0  0  0
123 82  1  0  0  0  0
124 82  1  0  0  0  0
126 83  1  0  0  0  0
128 84  1  0  0  0  0
129 84  1  0  0  0  0
131 91  1  0  0  0  0
133 92  1  0  0  0  0
134 92  1  0  0  0  0
136 93  1  0  0  0  0
138 94  1  0  0  0  0
139 94  1  0  0  0  0
143 96  1  0  0  0  0
145 96  1  0  0  0  0
146 97  1  0  0  0  0
148 98  1  0  0  0  0
M  RAD  4  21   2  28   2  45   2  56   2
M  END
