4TIC.sdf
  xtb     12202113063D
 energy: -215.591444391648 gnorm: 0.000454555302 xtb: 6.4.1 (unknown)
132145  0     0  0            999 V2000
    1.5276    0.2173    0.9672 C   0  0  0  0  0  0  0  0  0  0  0  0
    0.6526   -0.3405    0.0064 C   0  0  0  0  0  0  0  0  0  0  0  0
    0.0428   -1.8969    0.4801 S   0  0  0  0  0  0  0  0  0  0  0  0
    0.9375   -1.7756    1.9580 C   0  0  0  0  0  0  0  0  0  0  0  0
    1.7045   -0.6141    2.0654 C   0  0  0  0  0  0  0  0  0  0  0  0
    1.0520   -2.5216    3.1501 C   0  0  0  0  0  0  0  0  0  0  0  0
    1.9045   -1.8280    4.0286 C   0  0  0  0  0  0  0  0  0  0  0  0
    2.4407   -0.5699    3.3820 C   0  0  0  0  0  0  0  0  0  0  0  0
    2.0858    0.7217    4.0929 C   0  0  0  0  0  0  0  0  0  0  0  0
    3.9458   -0.7257    3.2408 C   0  0  0  0  0  0  0  0  0  0  0  0
    2.7595    1.8875    3.7486 C   0  0  0  0  0  0  0  0  0  0  0  0
    2.4249    3.0896    4.3398 C   0  0  0  0  0  0  0  0  0  0  0  0
    1.4109    3.1603    5.2872 C   0  0  0  0  0  0  0  0  0  0  0  0
    0.7386    1.9932    5.6225 C   0  0  0  0  0  0  0  0  0  0  0  0
    1.0640    0.7869    5.0279 C   0  0  0  0  0  0  0  0  0  0  0  0
    4.7522   -0.4982    4.3492 C   0  0  0  0  0  0  0  0  0  0  0  0
    6.1203   -0.6656    4.2655 C   0  0  0  0  0  0  0  0  0  0  0  0
    6.7186   -1.0655    3.0766 C   0  0  0  0  0  0  0  0  0  0  0  0
    5.9064   -1.3002    1.9764 C   0  0  0  0  0  0  0  0  0  0  0  0
    4.5349   -1.1361    2.0547 C   0  0  0  0  0  0  0  0  0  0  0  0
    1.0890    4.4609    5.9641 C   0  0  0  0  0  0  0  0  0  0  0  0
    2.0180    4.6841    7.1593 C   0  0  0  0  0  0  0  0  0  0  0  0
    8.2012   -1.2882    3.0009 C   0  0  0  0  0  0  0  0  0  0  0  0
    8.5456   -2.7259    3.3958 C   0  0  0  0  0  0  0  0  0  0  0  0
    0.3951   -3.9511    3.8209 S   0  0  0  0  0  0  0  0  0  0  0  0
    1.2667   -3.6407    5.3183 C   0  0  0  0  0  0  0  0  0  0  0  0
    2.0371   -2.4682    5.2364 C   0  0  0  0  0  0  0  0  0  0  0  0
    1.2074   -4.3971    6.4939 C   0  0  0  0  0  0  0  0  0  0  0  0
    0.4689   -5.5138    6.8019 C   0  0  0  0  0  0  0  0  0  0  0  0
   -0.4522   -6.2057    5.8948 C   0  0  0  0  0  0  0  0  0  0  0  0
   -1.0512   -7.3019    6.6770 C   0  0  0  0  0  0  0  0  0  0  0  0
   -0.5174   -7.2896    7.9777 C   0  0  0  0  0  0  0  0  0  0  0  0
    0.4417   -6.1884    8.0836 C   0  0  0  0  0  0  0  0  0  0  0  0
   -0.6845   -5.9399    4.7278 O   0  0  0  0  0  0  0  0  0  0  0  0
    1.1614   -5.8760    9.2085 C   0  0  0  0  0  0  0  0  0  0  0  0
    2.0857   -4.8181    9.3317 C   0  0  0  0  0  0  0  0  0  0  0  0
    1.0753   -6.5819   10.4270 C   0  0  0  0  0  0  0  0  0  0  0  0
    2.8519   -3.9823    9.5193 N   0  0  0  0  0  0  0  0  0  0  0  0
    1.0603   -7.1079   11.4475 N   0  0  0  0  0  0  0  0  0  0  0  0
   -1.9920   -8.2327    6.2840 C   0  0  0  0  0  0  0  0  0  0  0  0
   -2.4104   -9.1736    7.2148 C   0  0  0  0  0  0  0  0  0  0  0  0
   -1.8898   -9.1694    8.5003 C   0  0  0  0  0  0  0  0  0  0  0  0
   -0.9421   -8.2343    8.8981 C   0  0  0  0  0  0  0  0  0  0  0  0
    2.0595    1.8151    0.5401 S   0  0  0  0  0  0  0  0  0  0  0  0
    1.0877    1.7327   -0.8923 C   0  0  0  0  0  0  0  0  0  0  0  0
    0.4101    0.5227   -1.0540 C   0  0  0  0  0  0  0  0  0  0  0  0
    0.7273    2.5995   -1.9448 C   0  0  0  0  0  0  0  0  0  0  0  0
   -0.1533    1.9283   -2.8099 C   0  0  0  0  0  0  0  0  0  0  0  0
   -0.3739    0.5086   -2.3432 C   0  0  0  0  0  0  0  0  0  0  0  0
    0.2839   -0.5327   -3.2393 C   0  0  0  0  0  0  0  0  0  0  0  0
   -1.8555    0.2304   -2.1931 C   0  0  0  0  0  0  0  0  0  0  0  0
   -0.0018   -1.8760   -3.0288 C   0  0  0  0  0  0  0  0  0  0  0  0
    0.6084   -2.8494   -3.7955 C   0  0  0  0  0  0  0  0  0  0  0  0
    1.5178   -2.5086   -4.7894 C   0  0  0  0  0  0  0  0  0  0  0  0
    1.8046   -1.1652   -4.9879 C   0  0  0  0  0  0  0  0  0  0  0  0
    1.1995   -0.1856   -4.2211 C   0  0  0  0  0  0  0  0  0  0  0  0
   -2.4939    0.2941   -0.9641 C   0  0  0  0  0  0  0  0  0  0  0  0
   -3.8482    0.0286   -0.8671 C   0  0  0  0  0  0  0  0  0  0  0  0
   -4.5960   -0.2890   -1.9919 C   0  0  0  0  0  0  0  0  0  0  0  0
   -3.9543   -0.3255   -3.2239 C   0  0  0  0  0  0  0  0  0  0  0  0
   -2.6018   -0.0683   -3.3265 C   0  0  0  0  0  0  0  0  0  0  0  0
    2.2130   -3.5692   -5.5931 C   0  0  0  0  0  0  0  0  0  0  0  0
    3.5157   -3.9887   -4.9088 C   0  0  0  0  0  0  0  0  0  0  0  0
   -6.0512   -0.6389   -1.8757 C   0  0  0  0  0  0  0  0  0  0  0  0
   -6.2194   -2.1477   -1.6828 C   0  0  0  0  0  0  0  0  0  0  0  0
    0.9885    4.2205   -2.4067 S   0  0  0  0  0  0  0  0  0  0  0  0
   -0.1262    4.0234   -3.7701 C   0  0  0  0  0  0  0  0  0  0  0  0
   -0.6300    2.7248   -3.8299 C   0  0  0  0  0  0  0  0  0  0  0  0
   -0.3496    5.1731   -4.5430 C   0  0  0  0  0  0  0  0  0  0  0  0
   -1.2024    5.4234   -5.5889 C   0  0  0  0  0  0  0  0  0  0  0  0
   -2.1968    4.5217   -6.2119 C   0  0  0  0  0  0  0  0  0  0  0  0
   -2.9638    5.3619   -7.1525 C   0  0  0  0  0  0  0  0  0  0  0  0
   -2.4497    6.6683   -7.1521 C   0  0  0  0  0  0  0  0  0  0  0  0
   -1.3201    6.7251   -6.2252 C   0  0  0  0  0  0  0  0  0  0  0  0
   -2.3778    3.3345   -6.0257 O   0  0  0  0  0  0  0  0  0  0  0  0
   -0.5157    7.8209   -6.0453 C   0  0  0  0  0  0  0  0  0  0  0  0
    0.6229    7.9036   -5.2156 C   0  0  0  0  0  0  0  0  0  0  0  0
   -0.6994    9.0549   -6.7052 C   0  0  0  0  0  0  0  0  0  0  0  0
    1.5701    8.0690   -4.5863 N   0  0  0  0  0  0  0  0  0  0  0  0
   -0.7836   10.0890   -7.1972 N   0  0  0  0  0  0  0  0  0  0  0  0
   -4.0367    5.0010   -7.9437 C   0  0  0  0  0  0  0  0  0  0  0  0
   -4.6128    5.9728   -8.7492 C   0  0  0  0  0  0  0  0  0  0  0  0
   -4.1161    7.2682   -8.7500 C   0  0  0  0  0  0  0  0  0  0  0  0
   -3.0346    7.6325   -7.9584 C   0  0  0  0  0  0  0  0  0  0  0  0
    3.5555    1.8495    3.0189 H   0  0  0  0  0  0  0  0  0  0  0  0
    2.9573    3.9868    4.0593 H   0  0  0  0  0  0  0  0  0  0  0  0
   -0.0547    2.0261    6.3556 H   0  0  0  0  0  0  0  0  0  0  0  0
    0.5202   -0.1065    5.2983 H   0  0  0  0  0  0  0  0  0  0  0  0
    4.3039   -0.1771    5.2780 H   0  0  0  0  0  0  0  0  0  0  0  0
    6.7339   -0.4806    5.1353 H   0  0  0  0  0  0  0  0  0  0  0  0
    6.3502   -1.6141    1.0423 H   0  0  0  0  0  0  0  0  0  0  0  0
    3.9265   -1.3278    1.1827 H   0  0  0  0  0  0  0  0  0  0  0  0
    0.0532    4.4542    6.3090 H   0  0  0  0  0  0  0  0  0  0  0  0
    1.2095    5.2842    5.2572 H   0  0  0  0  0  0  0  0  0  0  0  0
    3.0556    4.7035    6.8337 H   0  0  0  0  0  0  0  0  0  0  0  0
    1.7892    5.6285    7.6474 H   0  0  0  0  0  0  0  0  0  0  0  0
    1.9020    3.8812    7.8839 H   0  0  0  0  0  0  0  0  0  0  0  0
    8.5528   -1.1002    1.9845 H   0  0  0  0  0  0  0  0  0  0  0  0
    8.7140   -0.5982    3.6737 H   0  0  0  0  0  0  0  0  0  0  0  0
    9.6195   -2.8881    3.3421 H   0  0  0  0  0  0  0  0  0  0  0  0
    8.0537   -3.4299    2.7283 H   0  0  0  0  0  0  0  0  0  0  0  0
    8.2136   -2.9293    4.4114 H   0  0  0  0  0  0  0  0  0  0  0  0
    2.6365   -2.1256    6.0609 H   0  0  0  0  0  0  0  0  0  0  0  0
    1.8380   -4.0005    7.2805 H   0  0  0  0  0  0  0  0  0  0  0  0
   -2.3831   -8.2155    5.2783 H   0  0  0  0  0  0  0  0  0  0  0  0
   -3.1460   -9.9137    6.9380 H   0  0  0  0  0  0  0  0  0  0  0  0
   -2.2264   -9.9077    9.2126 H   0  0  0  0  0  0  0  0  0  0  0  0
   -0.5578   -8.2568    9.9045 H   0  0  0  0  0  0  0  0  0  0  0  0
   -0.7124   -2.1583   -2.2654 H   0  0  0  0  0  0  0  0  0  0  0  0
    0.3722   -3.8892   -3.6213 H   0  0  0  0  0  0  0  0  0  0  0  0
    2.5095   -0.8776   -5.7548 H   0  0  0  0  0  0  0  0  0  0  0  0
    1.4402    0.8521   -4.3979 H   0  0  0  0  0  0  0  0  0  0  0  0
   -1.9376    0.5494   -0.0740 H   0  0  0  0  0  0  0  0  0  0  0  0
   -4.3289    0.0710    0.0998 H   0  0  0  0  0  0  0  0  0  0  0  0
   -4.5206   -0.5586   -4.1139 H   0  0  0  0  0  0  0  0  0  0  0  0
   -2.1170   -0.1075   -4.2907 H   0  0  0  0  0  0  0  0  0  0  0  0
    1.5639   -4.4409   -5.6962 H   0  0  0  0  0  0  0  0  0  0  0  0
    2.4376   -3.1895   -6.5917 H   0  0  0  0  0  0  0  0  0  0  0  0
    4.0190   -4.7591   -5.4882 H   0  0  0  0  0  0  0  0  0  0  0  0
    3.3117   -4.3790   -3.9142 H   0  0  0  0  0  0  0  0  0  0  0  0
    4.1834   -3.1355   -4.8109 H   0  0  0  0  0  0  0  0  0  0  0  0
   -6.5796   -0.3307   -2.7800 H   0  0  0  0  0  0  0  0  0  0  0  0
   -6.4931   -0.1156   -1.0255 H   0  0  0  0  0  0  0  0  0  0  0  0
   -7.2724   -2.4063   -1.6006 H   0  0  0  0  0  0  0  0  0  0  0  0
   -5.7097   -2.4722   -0.7783 H   0  0  0  0  0  0  0  0  0  0  0  0
   -5.7936   -2.6863   -2.5264 H   0  0  0  0  0  0  0  0  0  0  0  0
   -1.3215    2.4151   -4.5915 H   0  0  0  0  0  0  0  0  0  0  0  0
    0.2452    6.0172   -4.2138 H   0  0  0  0  0  0  0  0  0  0  0  0
   -4.4061    3.9872   -7.9231 H   0  0  0  0  0  0  0  0  0  0  0  0
   -5.4537    5.7220   -9.3782 H   0  0  0  0  0  0  0  0  0  0  0  0
   -4.5782    8.0141   -9.3792 H   0  0  0  0  0  0  0  0  0  0  0  0
   -2.6745    8.6477   -7.9800 H   0  0  0  0  0  0  0  0  0  0  0  0
  1  2  2  0  0  0  0
  3  4  1  0  0  0  0
  4  5  2  0  0  0  0
  4  6  1  0  0  0  0
  6  7  2  0  0  0  0
  7  8  1  0  0  0  0
  8  5  1  0  0  0  0
  8  9  1  0  0  0  0
  8 10  1  0  0  0  0
  9 11  2  0  0  0  0
 11 12  1  0  0  0  0
 12 13  2  0  0  0  0
 13 14  1  0  0  0  0
 14 15  2  0  0  0  0
 15  9  1  0  0  0  0
 10 16  2  0  0  0  0
 16 17  1  0  0  0  0
 17 18  2  0  0  0  0
 18 19  1  0  0  0  0
 19 20  2  0  0  0  0
 20 10  1  0  0  0  0
 13 21  1  0  0  0  0
 21 22  1  0  0  0  0
 18 23  1  0  0  0  0
 23 24  1  0  0  0  0
  6 25  1  0  0  0  0
 25 26  1  0  0  0  0
 26 27  2  0  0  0  0
 27  7  1  0  0  0  0
 26 28  1  0  0  0  0
 28 29  2  0  0  0  0
 29 30  1  0  0  0  0
 30 31  1  0  0  0  0
 31 32  2  0  0  0  0
 32 33  1  0  0  0  0
 33 29  1  0  0  0  0
 30 34  2  0  0  0  0
 33 35  2  0  0  0  0
 35 36  1  0  0  0  0
 35 37  1  0  0  0  0
 36 38  3  0  0  0  0
 37 39  3  0  0  0  0
 31 40  1  0  0  0  0
 40 41  2  0  0  0  0
 41 42  1  0  0  0  0
 42 43  2  0  0  0  0
 43 32  1  0  0  0  0
 44 45  1  0  0  0  0
 45 46  2  0  0  0  0
 45 47  1  0  0  0  0
 47 48  2  0  0  0  0
 48 49  1  0  0  0  0
 49 46  1  0  0  0  0
 49 50  1  0  0  0  0
 49 51  1  0  0  0  0
 50 52  2  0  0  0  0
 52 53  1  0  0  0  0
 53 54  2  0  0  0  0
 54 55  1  0  0  0  0
 55 56  2  0  0  0  0
 56 50  1  0  0  0  0
 51 57  2  0  0  0  0
 57 58  1  0  0  0  0
 58 59  2  0  0  0  0
 59 60  1  0  0  0  0
 60 61  2  0  0  0  0
 61 51  1  0  0  0  0
 54 62  1  0  0  0  0
 62 63  1  0  0  0  0
 59 64  1  0  0  0  0
 64 65  1  0  0  0  0
 47 66  1  0  0  0  0
 66 67  1  0  0  0  0
 67 68  2  0  0  0  0
 68 48  1  0  0  0  0
 67 69  1  0  0  0  0
 69 70  2  0  0  0  0
 70 71  1  0  0  0  0
 71 72  1  0  0  0  0
 72 73  2  0  0  0  0
 73 74  1  0  0  0  0
 74 70  1  0  0  0  0
 71 75  2  0  0  0  0
 74 76  2  0  0  0  0
 76 77  1  0  0  0  0
 76 78  1  0  0  0  0
 77 79  3  0  0  0  0
 78 80  3  0  0  0  0
 72 81  1  0  0  0  0
 81 82  2  0  0  0  0
 83 84  2  0  0  0  0
 84 73  1  0  0  0  0
 44  1  1  0  0  0  0
 46  2  1  0  0  0  0
 83 82  1  0  0  0  0
  3  2  1  0  0  0  0
  1  5  1  0  0  0  0
 11 85  1  0  0  0  0
 12 86  1  0  0  0  0
 14 87  1  0  0  0  0
 15 88  1  0  0  0  0
 16 89  1  0  0  0  0
 17 90  1  0  0  0  0
 19 91  1  0  0  0  0
 20 92  1  0  0  0  0
 21 93  1  0  0  0  0
 21 94  1  0  0  0  0
 22 95  1  0  0  0  0
 22 96  1  0  0  0  0
 22 97  1  0  0  0  0
 23 98  1  0  0  0  0
 23 99  1  0  0  0  0
 24100  1  0  0  0  0
 24101  1  0  0  0  0
 24102  1  0  0  0  0
 27103  1  0  0  0  0
 28104  1  0  0  0  0
 40105  1  0  0  0  0
 41106  1  0  0  0  0
 42107  1  0  0  0  0
 43108  1  0  0  0  0
 52109  1  0  0  0  0
 53110  1  0  0  0  0
 55111  1  0  0  0  0
 56112  1  0  0  0  0
 57113  1  0  0  0  0
 58114  1  0  0  0  0
 60115  1  0  0  0  0
 61116  1  0  0  0  0
 62117  1  0  0  0  0
 62118  1  0  0  0  0
 63119  1  0  0  0  0
 63120  1  0  0  0  0
 63121  1  0  0  0  0
 64122  1  0  0  0  0
 64123  1  0  0  0  0
 65124  1  0  0  0  0
 65125  1  0  0  0  0
 65126  1  0  0  0  0
 68127  1  0  0  0  0
 69128  1  0  0  0  0
 81129  1  0  0  0  0
 82130  1  0  0  0  0
 83131  1  0  0  0  0
 84132  1  0  0  0  0
M  END
