SCF done       -249.888678591656          0.000281136590
 OpenBabel12282109493D

130142  0  0  0  0  0  0  0  0999 V2000
    4.0901    6.3620   -3.9074 C   0  0  0  0  0  0  0  0  0  0  0  0
    2.9897    6.0987   -3.4520 O   0  0  0  0  0  0  0  0  0  0  0  0
    4.3913    6.7192   -5.3085 C   0  0  0  0  0  0  0  0  0  0  0  0
    3.5216    6.8239   -6.3752 C   0  0  0  0  0  0  0  0  0  0  0  0
    4.0546    7.1737   -7.6057 C   0  0  0  0  0  0  0  0  0  0  0  0
    5.4220    7.4089   -7.7462 C   0  0  0  0  0  0  0  0  0  0  0  0
    6.2952    7.3038   -6.6726 C   0  0  0  0  0  0  0  0  0  0  0  0
    5.7708    6.9542   -5.4388 C   0  0  0  0  0  0  0  0  0  0  0  0
    6.4077    6.7585   -4.1335 C   0  0  0  0  0  0  0  0  0  0  0  0
    7.7485    6.8991   -3.8820 C   0  0  0  0  0  0  0  0  0  0  0  0
    8.3754    6.7079   -2.6327 C   0  0  0  0  0  0  0  0  0  0  0  0
    8.9635    6.5692   -1.6560 N   0  0  0  0  0  0  0  0  0  0  0  0
    8.7015    7.2597   -4.8580 C   0  0  0  0  0  0  0  0  0  0  0  0
    9.5255    7.5484   -5.6030 N   0  0  0  0  0  0  0  0  0  0  0  0
    5.3669    6.3925   -3.1992 C   0  0  0  0  0  0  0  0  0  0  0  0
    3.2489    7.2859   -8.6690 F   0  0  0  0  0  0  0  0  0  0  0  0
    5.9099    7.7443   -8.9457 F   0  0  0  0  0  0  0  0  0  0  0  0
  -13.3300    0.0411   -1.6445 C   0  0  0  0  0  0  0  0  0  0  0  0
  -12.2626    0.6255   -1.7332 O   0  0  0  0  0  0  0  0  0  0  0  0
  -14.2573   -0.2507   -2.7563 C   0  0  0  0  0  0  0  0  0  0  0  0
  -14.1175    0.0544   -4.0952 C   0  0  0  0  0  0  0  0  0  0  0  0
  -15.1340   -0.3366   -4.9523 C   0  0  0  0  0  0  0  0  0  0  0  0
  -16.2521   -1.0129   -4.4654 C   0  0  0  0  0  0  0  0  0  0  0  0
  -16.3920   -1.3178   -3.1187 C   0  0  0  0  0  0  0  0  0  0  0  0
  -15.3804   -0.9305   -2.2549 C   0  0  0  0  0  0  0  0  0  0  0  0
  -15.2221   -1.0981   -0.8077 C   0  0  0  0  0  0  0  0  0  0  0  0
  -16.1326   -1.7053    0.0188 C   0  0  0  0  0  0  0  0  0  0  0  0
  -15.9990   -1.8659    1.4141 C   0  0  0  0  0  0  0  0  0  0  0  0
  -15.9695   -2.0355    2.5497 N   0  0  0  0  0  0  0  0  0  0  0  0
  -17.3529   -2.2593   -0.4227 C   0  0  0  0  0  0  0  0  0  0  0  0
  -18.3586   -2.7276   -0.7171 N   0  0  0  0  0  0  0  0  0  0  0  0
  -13.9530   -0.5087   -0.4437 C   0  0  0  0  0  0  0  0  0  0  0  0
  -15.0402   -0.0630   -6.2595 F   0  0  0  0  0  0  0  0  0  0  0  0
  -17.2177   -1.3804   -5.3150 F   0  0  0  0  0  0  0  0  0  0  0  0
    5.5318    6.1086   -1.8611 C   0  0  0  0  0  0  0  0  0  0  0  0
    4.5877    5.7262   -0.9111 C   0  0  0  0  0  0  0  0  0  0  0  0
    4.9195    5.4428    0.4183 C   0  0  0  0  0  0  0  0  0  0  0  0
    3.8494    5.0375    1.2472 C   0  0  0  0  0  0  0  0  0  0  0  0
    2.6310    5.0077    0.5418 C   0  0  0  0  0  0  0  0  0  0  0  0
    2.8630    5.4854   -1.1164 S   0  0  0  0  0  0  0  0  0  0  0  0
    1.3337    4.6448    0.9578 C   0  0  0  0  0  0  0  0  0  0  0  0
    0.0390    4.6974   -0.2341 S   0  0  0  0  0  0  0  0  0  0  0  0
   -1.0684    4.1211    0.9349 C   0  0  0  0  0  0  0  0  0  0  0  0
   -0.4785    3.8910    2.1742 C   0  0  0  0  0  0  0  0  0  0  0  0
    0.8713    4.2061    2.1952 C   0  0  0  0  0  0  0  0  0  0  0  0
   -2.4529    3.7855    0.9619 C   0  0  0  0  0  0  0  0  0  0  0  0
   -2.7406    3.3234    2.2695 C   0  0  0  0  0  0  0  0  0  0  0  0
   -1.5087    3.3954    3.1583 C   0  0  0  0  0  0  0  0  0  0  0  0
   -3.4101    3.8258   -0.0509 C   0  0  0  0  0  0  0  0  0  0  0  0
   -4.6644    3.3440    0.2397 C   0  0  0  0  0  0  0  0  0  0  0  0
   -4.9484    2.8667    1.5434 C   0  0  0  0  0  0  0  0  0  0  0  0
   -3.9973    2.8479    2.5625 C   0  0  0  0  0  0  0  0  0  0  0  0
   -5.8903    3.2508   -0.6559 C   0  0  0  0  0  0  0  0  0  0  0  0
   -6.8895    2.6418    0.2950 C   0  0  0  0  0  0  0  0  0  0  0  0
   -6.3092    2.4434    1.5461 C   0  0  0  0  0  0  0  0  0  0  0  0
   -8.1868    2.1674    0.2317 C   0  0  0  0  0  0  0  0  0  0  0  0
   -8.6181    1.6295    1.4452 C   0  0  0  0  0  0  0  0  0  0  0  0
   -7.3679    1.7175    2.6729 S   0  0  0  0  0  0  0  0  0  0  0  0
   -9.8771    1.0360    1.6559 C   0  0  0  0  0  0  0  0  0  0  0  0
  -10.9442    0.8427    0.2901 S   0  0  0  0  0  0  0  0  0  0  0  0
  -12.1785    0.0376    1.2430 C   0  0  0  0  0  0  0  0  0  0  0  0
  -11.7369   -0.0397    2.5686 C   0  0  0  0  0  0  0  0  0  0  0  0
  -10.4595    0.5073    2.8204 C   0  0  0  0  0  0  0  0  0  0  0  0
  -13.3994   -0.4799    0.8182 C   0  0  0  0  0  0  0  0  0  0  0  0
   -1.1906    1.9836    3.6885 C   0  0  0  0  0  0  0  0  0  0  0  0
    0.0476    1.8822    4.5692 C   0  0  0  0  0  0  0  0  0  0  0  0
   -1.6494    4.4629    4.2657 C   0  0  0  0  0  0  0  0  0  0  0  0
   -2.6987    4.1769    5.3313 C   0  0  0  0  0  0  0  0  0  0  0  0
   -6.2932    4.6762   -1.0841 C   0  0  0  0  0  0  0  0  0  0  0  0
   -7.5704    4.7620   -1.9088 C   0  0  0  0  0  0  0  0  0  0  0  0
   -5.7061    2.2706   -1.8342 C   0  0  0  0  0  0  0  0  0  0  0  0
   -4.7191    2.6931   -2.9142 C   0  0  0  0  0  0  0  0  0  0  0  0
    6.4404    5.4886    1.2301 S   0  0  0  0  0  0  0  0  0  0  0  0
    5.6753    4.9593    2.7037 C   0  0  0  0  0  0  0  0  0  0  0  0
    4.3282    4.7670    2.5565 C   0  0  0  0  0  0  0  0  0  0  0  0
    3.5568    4.3623    3.5633 F   0  0  0  0  0  0  0  0  0  0  0  0
    6.4936    4.7645    3.9068 C   0  0  0  0  0  0  0  0  0  0  0  0
    7.7610    5.1038    3.6455 O   0  0  0  0  0  0  0  0  0  0  0  0
    6.0839    4.3670    4.9666 O   0  0  0  0  0  0  0  0  0  0  0  0
    8.7110    4.9387    4.6982 C   0  0  0  0  0  0  0  0  0  0  0  0
    9.2396    3.5126    4.7439 C   0  0  0  0  0  0  0  0  0  0  0  0
  -10.1288    0.3732    4.1949 C   0  0  0  0  0  0  0  0  0  0  0  0
  -11.0998   -0.2476    4.9337 C   0  0  0  0  0  0  0  0  0  0  0  0
  -12.4849   -0.7009    3.9748 S   0  0  0  0  0  0  0  0  0  0  0  0
   -8.9914    0.8113    4.7269 F   0  0  0  0  0  0  0  0  0  0  0  0
  -11.0931   -0.5509    6.3697 C   0  0  0  0  0  0  0  0  0  0  0  0
  -10.2027   -0.2768    7.1318 O   0  0  0  0  0  0  0  0  0  0  0  0
  -12.2221   -1.1899    6.6984 O   0  0  0  0  0  0  0  0  0  0  0  0
  -12.3943   -1.5416    8.0713 C   0  0  0  0  0  0  0  0  0  0  0  0
  -12.9402   -0.3724    8.8776 C   0  0  0  0  0  0  0  0  0  0  0  0
    2.4652    6.6404   -6.2613 H   0  0  0  0  0  0  0  0  0  0  0  0
    7.3427    7.4960   -6.8360 H   0  0  0  0  0  0  0  0  0  0  0  0
  -13.2508    0.5769   -4.4672 H   0  0  0  0  0  0  0  0  0  0  0  0
  -17.2759   -1.8424   -2.7956 H   0  0  0  0  0  0  0  0  0  0  0  0
    6.5350    6.1737   -1.4563 H   0  0  0  0  0  0  0  0  0  0  0  0
    1.4983    4.1303    3.0600 H   0  0  0  0  0  0  0  0  0  0  0  0
   -3.1464    4.2204   -1.0190 H   0  0  0  0  0  0  0  0  0  0  0  0
   -4.2611    2.4561    3.5321 H   0  0  0  0  0  0  0  0  0  0  0  0
   -8.8247    2.1773   -0.6337 H   0  0  0  0  0  0  0  0  0  0  0  0
  -13.9675   -0.9319    1.6227 H   0  0  0  0  0  0  0  0  0  0  0  0
   -2.0575    1.6255    4.2451 H   0  0  0  0  0  0  0  0  0  0  0  0
   -1.0672    1.3275    2.8225 H   0  0  0  0  0  0  0  0  0  0  0  0
   -0.0422    2.5037    5.4554 H   0  0  0  0  0  0  0  0  0  0  0  0
    0.1733    0.8514    4.8931 H   0  0  0  0  0  0  0  0  0  0  0  0
    0.9419    2.1738    4.0270 H   0  0  0  0  0  0  0  0  0  0  0  0
   -0.6742    4.5787    4.7409 H   0  0  0  0  0  0  0  0  0  0  0  0
   -1.8899    5.4122    3.7794 H   0  0  0  0  0  0  0  0  0  0  0  0
   -2.5175    3.2259    5.8239 H   0  0  0  0  0  0  0  0  0  0  0  0
   -2.6625    4.9588    6.0866 H   0  0  0  0  0  0  0  0  0  0  0  0
   -3.6978    4.1699    4.9050 H   0  0  0  0  0  0  0  0  0  0  0  0
   -6.4168    5.2704   -0.1746 H   0  0  0  0  0  0  0  0  0  0  0  0
   -5.4663    5.1123   -1.6460 H   0  0  0  0  0  0  0  0  0  0  0  0
   -8.4209    4.3834   -1.3490 H   0  0  0  0  0  0  0  0  0  0  0  0
   -7.7679    5.8018   -2.1600 H   0  0  0  0  0  0  0  0  0  0  0  0
   -7.4831    4.2022   -2.8356 H   0  0  0  0  0  0  0  0  0  0  0  0
   -5.3845    1.3124   -1.4174 H   0  0  0  0  0  0  0  0  0  0  0  0
   -6.6861    2.1142   -2.2878 H   0  0  0  0  0  0  0  0  0  0  0  0
   -3.7042    2.7247   -2.5293 H   0  0  0  0  0  0  0  0  0  0  0  0
   -4.7459    1.9668   -3.7237 H   0  0  0  0  0  0  0  0  0  0  0  0
   -4.9719    3.6654   -3.3277 H   0  0  0  0  0  0  0  0  0  0  0  0
    9.5085    5.6487    4.4713 H   0  0  0  0  0  0  0  0  0  0  0  0
    8.2338    5.1991    5.6486 H   0  0  0  0  0  0  0  0  0  0  0  0
    9.6663    3.2400    3.7815 H   0  0  0  0  0  0  0  0  0  0  0  0
   10.0069    3.4339    5.5083 H   0  0  0  0  0  0  0  0  0  0  0  0
    8.4330    2.8235    4.9829 H   0  0  0  0  0  0  0  0  0  0  0  0
  -13.0965   -2.3772    8.0605 H   0  0  0  0  0  0  0  0  0  0  0  0
  -11.4297   -1.8652    8.4761 H   0  0  0  0  0  0  0  0  0  0  0  0
  -13.8759   -0.0237    8.4473 H   0  0  0  0  0  0  0  0  0  0  0  0
  -13.1155   -0.6884    9.9017 H   0  0  0  0  0  0  0  0  0  0  0  0
  -12.2233    0.4452    8.8798 H   0  0  0  0  0  0  0  0  0  0  0  0
  1  2  2  0  0  0  0
  1 15  1  0  0  0  0
  3  1  1  0  0  0  0
  4 91  1  0  0  0  0
  4  3  2  0  0  0  0
  5  4  1  0  0  0  0
  6  5  2  0  0  0  0
  6  7  1  0  0  0  0
  7  8  2  0  0  0  0
  8  3  1  0  0  0  0
  8  9  1  0  0  0  0
  9 10  2  0  0  0  0
  9 15  1  0  0  0  0
 10 11  1  0  0  0  0
 11 12  3  0  0  0  0
 13 10  1  0  0  0  0
 14 13  3  0  0  0  0
 15 35  2  0  0  0  0
 16  5  1  0  0  0  0
 17  6  1  0  0  0  0
 18 32  1  0  0  0  0
 19 18  2  0  0  0  0
 20 25  1  0  0  0  0
 20 18  1  0  0  0  0
 21 20  2  0  0  0  0
 22 23  2  0  0  0  0
 22 21  1  0  0  0  0
 23 24  1  0  0  0  0
 24 94  1  0  0  0  0
 24 25  2  0  0  0  0
 25 26  1  0  0  0  0
 26 32  2  0  0  0  0
 26 27  1  0  0  0  0
 27 28  1  0  0  0  0
 28 29  3  0  0  0  0
 30 27  1  0  0  0  0
 31 30  3  0  0  0  0
 32 64  1  0  0  0  0
 33 22  1  0  0  0  0
 34 23  1  0  0  0  0
 35 95  1  0  0  0  0
 35 36  1  0  0  0  0
 36 37  2  0  0  0  0
 37 73  1  0  0  0  0
 37 38  1  0  0  0  0
 38 75  1  0  0  0  0
 39 41  1  0  0  0  0
 39 38  2  0  0  0  0
 40 36  1  0  0  0  0
 40 39  1  0  0  0  0
 41 45  2  0  0  0  0
 42 43  1  0  0  0  0
 42 41  1  0  0  0  0
 43 46  1  0  0  0  0
 43 44  2  0  0  0  0
 44 45  1  0  0  0  0
 44 48  1  0  0  0  0
 45 96  1  0  0  0  0
 46 47  2  0  0  0  0
 47 52  1  0  0  0  0
 47 48  1  0  0  0  0
 48 65  1  0  0  0  0
 48 67  1  0  0  0  0
 49 50  2  0  0  0  0
 49 46  1  0  0  0  0
 50 51  1  0  0  0  0
 51 55  1  0  0  0  0
 51 52  2  0  0  0  0
 52 98  1  0  0  0  0
 53 50  1  0  0  0  0
 53 54  1  0  0  0  0
 54 55  2  0  0  0  0
 55 58  1  0  0  0  0
 56 54  1  0  0  0  0
 56 57  2  0  0  0  0
 57 59  1  0  0  0  0
 57 58  1  0  0  0  0
 59 63  2  0  0  0  0
 60 61  1  0  0  0  0
 60 59  1  0  0  0  0
 61 62  2  0  0  0  0
 62 63  1  0  0  0  0
 62 84  1  0  0  0  0
 63 82  1  0  0  0  0
 64 61  1  0  0  0  0
 64100  1  0  0  0  0
 65101  1  0  0  0  0
 65 66  1  0  0  0  0
 66104  1  0  0  0  0
 66103  1  0  0  0  0
 67106  1  0  0  0  0
 67 68  1  0  0  0  0
 68108  1  0  0  0  0
 68109  1  0  0  0  0
 69 53  1  0  0  0  0
 69111  1  0  0  0  0
 70113  1  0  0  0  0
 70 69  1  0  0  0  0
 71116  1  0  0  0  0
 71 53  1  0  0  0  0
 72118  1  0  0  0  0
 72 71  1  0  0  0  0
 73 74  1  0  0  0  0
 74 77  1  0  0  0  0
 75 74  2  0  0  0  0
 75 76  1  0  0  0  0
 77 79  2  0  0  0  0
 78 77  1  0  0  0  0
 78 80  1  0  0  0  0
 80 81  1  0  0  0  0
 80122  1  0  0  0  0
 81125  1  0  0  0  0
 81124  1  0  0  0  0
 82 85  1  0  0  0  0
 82 83  2  0  0  0  0
 83 86  1  0  0  0  0
 84 83  1  0  0  0  0
 86 88  1  0  0  0  0
 86 87  2  0  0  0  0
 88 89  1  0  0  0  0
 89127  1  0  0  0  0
 89 90  1  0  0  0  0
 90130  1  0  0  0  0
 90129  1  0  0  0  0
 92  7  1  0  0  0  0
 93 21  1  0  0  0  0
 97 49  1  0  0  0  0
 99 56  1  0  0  0  0
102 65  1  0  0  0  0
105 66  1  0  0  0  0
107 67  1  0  0  0  0
110 68  1  0  0  0  0
112 69  1  0  0  0  0
114 70  1  0  0  0  0
115 70  1  0  0  0  0
117 71  1  0  0  0  0
119 72  1  0  0  0  0
120 72  1  0  0  0  0
121 80  1  0  0  0  0
123 81  1  0  0  0  0
126 89  1  0  0  0  0
128 90  1  0  0  0  0
M  RAD  2  27   2  64   2
M  END
