SCF done       -241.443965009244          0.000767859208
 OpenBabel12282109493D

130142  0  0  0  0  0  0  0  0999 V2000
    7.5324    5.8377   -2.5306 C   0  0  0  0  0  0  0  0  0  0  0  0
    6.4688    5.4849   -3.0123 O   0  0  0  0  0  0  0  0  0  0  0  0
    8.8225    5.9375   -3.2433 C   0  0  0  0  0  0  0  0  0  0  0  0
    9.1000    5.6484   -4.5640 C   0  0  0  0  0  0  0  0  0  0  0  0
   10.4060    5.8156   -4.9967 C   0  0  0  0  0  0  0  0  0  0  0  0
   11.3934    6.2609   -4.1185 C   0  0  0  0  0  0  0  0  0  0  0  0
   11.1124    6.5531   -2.7912 C   0  0  0  0  0  0  0  0  0  0  0  0
    9.8094    6.3887   -2.3502 C   0  0  0  0  0  0  0  0  0  0  0  0
    9.1949    6.6014   -1.0369 C   0  0  0  0  0  0  0  0  0  0  0  0
    9.8511    7.0665    0.0741 C   0  0  0  0  0  0  0  0  0  0  0  0
    9.2680    7.2921    1.3387 C   0  0  0  0  0  0  0  0  0  0  0  0
    8.8719    7.5052    2.3956 N   0  0  0  0  0  0  0  0  0  0  0  0
   11.2229    7.3945    0.1011 C   0  0  0  0  0  0  0  0  0  0  0  0
   12.3313    7.6800    0.1887 N   0  0  0  0  0  0  0  0  0  0  0  0
    7.7997    6.2419   -1.1532 C   0  0  0  0  0  0  0  0  0  0  0  0
   10.7223    5.5453   -6.2694 F   0  0  0  0  0  0  0  0  0  0  0  0
   12.6466    6.4110   -4.5621 F   0  0  0  0  0  0  0  0  0  0  0  0
   -9.5513   -2.7904   -6.3430 C   0  0  0  0  0  0  0  0  0  0  0  0
   -8.6163   -2.1553   -5.8815 O   0  0  0  0  0  0  0  0  0  0  0  0
  -10.3761   -3.7792   -5.6293 C   0  0  0  0  0  0  0  0  0  0  0  0
  -10.2796   -4.2062   -4.3198 C   0  0  0  0  0  0  0  0  0  0  0  0
  -11.1849   -5.1593   -3.8740 C   0  0  0  0  0  0  0  0  0  0  0  0
  -12.1550   -5.6606   -4.7292 C   0  0  0  0  0  0  0  0  0  0  0  0
  -12.2541   -5.2329   -6.0478 C   0  0  0  0  0  0  0  0  0  0  0  0
  -11.3554   -4.2826   -6.5046 C   0  0  0  0  0  0  0  0  0  0  0  0
  -11.1962   -3.6408   -7.8114 C   0  0  0  0  0  0  0  0  0  0  0  0
  -11.9769   -3.8824   -8.9121 C   0  0  0  0  0  0  0  0  0  0  0  0
  -11.8342   -3.2665  -10.1730 C   0  0  0  0  0  0  0  0  0  0  0  0
  -11.7863   -2.8142  -11.2280 N   0  0  0  0  0  0  0  0  0  0  0  0
  -13.0504   -4.7978   -8.9363 C   0  0  0  0  0  0  0  0  0  0  0  0
  -13.9346   -5.5240   -9.0289 N   0  0  0  0  0  0  0  0  0  0  0  0
  -10.0786   -2.7265   -7.7075 C   0  0  0  0  0  0  0  0  0  0  0  0
    6.8676    6.2433   -0.1382 C   0  0  0  0  0  0  0  0  0  0  0  0
    5.5215    5.8877   -0.1668 C   0  0  0  0  0  0  0  0  0  0  0  0
    4.7067    5.9075    0.9709 C   0  0  0  0  0  0  0  0  0  0  0  0
    3.3714    5.4915    0.7755 C   0  0  0  0  0  0  0  0  0  0  0  0
    3.1283    5.1378   -0.5643 C   0  0  0  0  0  0  0  0  0  0  0  0
    4.5615    5.3400   -1.5305 S   0  0  0  0  0  0  0  0  0  0  0  0
    1.9588    4.6423   -1.1760 C   0  0  0  0  0  0  0  0  0  0  0  0
    1.8850    4.6014   -2.9340 S   0  0  0  0  0  0  0  0  0  0  0  0
    0.3396    3.8719   -2.8579 C   0  0  0  0  0  0  0  0  0  0  0  0
   -0.0879    3.6475   -1.5518 C   0  0  0  0  0  0  0  0  0  0  0  0
    0.8130    4.1010   -0.6013 C   0  0  0  0  0  0  0  0  0  0  0  0
   -0.6473    3.4450   -3.7955 C   0  0  0  0  0  0  0  0  0  0  0  0
   -1.7216    2.9120   -3.0444 C   0  0  0  0  0  0  0  0  0  0  0  0
   -1.4356    2.9793   -1.5542 C   0  0  0  0  0  0  0  0  0  0  0  0
   -0.6667    3.4989   -5.1883 C   0  0  0  0  0  0  0  0  0  0  0  0
   -1.7813    3.0088   -5.8285 C   0  0  0  0  0  0  0  0  0  0  0  0
   -2.8287    2.4225   -5.0754 C   0  0  0  0  0  0  0  0  0  0  0  0
   -2.8160    2.3797   -3.6827 C   0  0  0  0  0  0  0  0  0  0  0  0
   -2.0748    2.9358   -7.3190 C   0  0  0  0  0  0  0  0  0  0  0  0
   -3.3788    2.1783   -7.3145 C   0  0  0  0  0  0  0  0  0  0  0  0
   -3.7798    1.9167   -6.0096 C   0  0  0  0  0  0  0  0  0  0  0  0
   -4.2929    1.7334   -8.2594 C   0  0  0  0  0  0  0  0  0  0  0  0
   -5.3789    1.0889   -7.6799 C   0  0  0  0  0  0  0  0  0  0  0  0
   -5.2643    1.0685   -5.9260 S   0  0  0  0  0  0  0  0  0  0  0  0
   -6.4766    0.4413   -8.2885 C   0  0  0  0  0  0  0  0  0  0  0  0
   -7.4378   -0.6526   -7.3363 S   0  0  0  0  0  0  0  0  0  0  0  0
   -8.4899   -1.0507   -8.6813 C   0  0  0  0  0  0  0  0  0  0  0  0
   -8.0744   -0.3267   -9.8017 C   0  0  0  0  0  0  0  0  0  0  0  0
   -6.9503    0.5085   -9.6089 C   0  0  0  0  0  0  0  0  0  0  0  0
   -9.5696   -1.9361   -8.7095 C   0  0  0  0  0  0  0  0  0  0  0  0
   -1.3620    1.5325   -1.0161 C   0  0  0  0  0  0  0  0  0  0  0  0
   -0.8958    1.4011    0.4276 C   0  0  0  0  0  0  0  0  0  0  0  0
   -2.4895    3.8111   -0.8052 C   0  0  0  0  0  0  0  0  0  0  0  0
   -2.6702    5.2021   -1.4017 C   0  0  0  0  0  0  0  0  0  0  0  0
   -2.3533    4.3299   -7.9242 C   0  0  0  0  0  0  0  0  0  0  0  0
   -1.1662    5.2820   -7.9714 C   0  0  0  0  0  0  0  0  0  0  0  0
   -0.9392    2.1657   -8.0193 C   0  0  0  0  0  0  0  0  0  0  0  0
   -1.1334    1.9388   -9.5126 C   0  0  0  0  0  0  0  0  0  0  0  0
    5.0486    6.3698    2.5972 S   0  0  0  0  0  0  0  0  0  0  0  0
    3.3977    6.0329    3.0471 C   0  0  0  0  0  0  0  0  0  0  0  0
    2.6468    5.5883    1.9925 C   0  0  0  0  0  0  0  0  0  0  0  0
    1.3553    5.2888    2.1121 F   0  0  0  0  0  0  0  0  0  0  0  0
    2.9744    6.2450    4.4361 C   0  0  0  0  0  0  0  0  0  0  0  0
    4.0140    6.6736    5.1615 O   0  0  0  0  0  0  0  0  0  0  0  0
    1.8644    6.0509    4.8596 O   0  0  0  0  0  0  0  0  0  0  0  0
    3.7743    6.9539    6.5405 C   0  0  0  0  0  0  0  0  0  0  0  0
    3.2003    8.3502    6.7302 C   0  0  0  0  0  0  0  0  0  0  0  0
   -6.6516    1.2097  -10.8068 C   0  0  0  0  0  0  0  0  0  0  0  0
   -7.4929    0.9125  -11.8443 C   0  0  0  0  0  0  0  0  0  0  0  0
   -8.7138   -0.2532  -11.4036 S   0  0  0  0  0  0  0  0  0  0  0  0
   -5.6586    2.0896  -10.9220 F   0  0  0  0  0  0  0  0  0  0  0  0
   -7.4740    1.4522  -13.2083 C   0  0  0  0  0  0  0  0  0  0  0  0
   -6.6443    2.2087  -13.6431 O   0  0  0  0  0  0  0  0  0  0  0  0
   -8.5249    0.9835  -13.8918 O   0  0  0  0  0  0  0  0  0  0  0  0
   -8.6461    1.3843  -15.2560 C   0  0  0  0  0  0  0  0  0  0  0  0
   -7.8216    0.4883  -16.1686 C   0  0  0  0  0  0  0  0  0  0  0  0
    8.3331    5.3033   -5.2388 H   0  0  0  0  0  0  0  0  0  0  0  0
   11.9126    6.8932   -2.1549 H   0  0  0  0  0  0  0  0  0  0  0  0
   -9.5163   -3.8013   -3.6733 H   0  0  0  0  0  0  0  0  0  0  0  0
  -11.1348   -5.5136   -2.8555 H   0  0  0  0  0  0  0  0  0  0  0  0
  -12.8518   -6.4012   -4.3665 H   0  0  0  0  0  0  0  0  0  0  0  0
  -13.0188   -5.6420   -6.6872 H   0  0  0  0  0  0  0  0  0  0  0  0
    7.2028    6.5455    0.8471 H   0  0  0  0  0  0  0  0  0  0  0  0
    0.6612    4.0398    0.4578 H   0  0  0  0  0  0  0  0  0  0  0  0
    0.1785    3.9050   -5.7212 H   0  0  0  0  0  0  0  0  0  0  0  0
   -3.6414    1.9394   -3.1446 H   0  0  0  0  0  0  0  0  0  0  0  0
   -4.1833    1.8524   -9.3187 H   0  0  0  0  0  0  0  0  0  0  0  0
  -10.0444   -1.9887   -9.6824 H   0  0  0  0  0  0  0  0  0  0  0  0
   -2.3547    1.0892   -1.1152 H   0  0  0  0  0  0  0  0  0  0  0  0
   -0.6824    0.9682   -1.6602 H   0  0  0  0  0  0  0  0  0  0  0  0
   -1.5421    1.9504    1.1061 H   0  0  0  0  0  0  0  0  0  0  0  0
   -0.9160    0.3530    0.7177 H   0  0  0  0  0  0  0  0  0  0  0  0
    0.1221    1.7625    0.5422 H   0  0  0  0  0  0  0  0  0  0  0  0
   -3.4407    3.2764   -0.8331 H   0  0  0  0  0  0  0  0  0  0  0  0
   -2.1840    3.9104    0.2366 H   0  0  0  0  0  0  0  0  0  0  0  0
   -2.9995    5.1412   -2.4367 H   0  0  0  0  0  0  0  0  0  0  0  0
   -3.4154    5.7549   -0.8351 H   0  0  0  0  0  0  0  0  0  0  0  0
   -1.7360    5.7582   -1.3701 H   0  0  0  0  0  0  0  0  0  0  0  0
   -2.7397    4.1838   -8.9339 H   0  0  0  0  0  0  0  0  0  0  0  0
   -3.1510    4.7898   -7.3346 H   0  0  0  0  0  0  0  0  0  0  0  0
   -0.3406    4.8617   -8.5387 H   0  0  0  0  0  0  0  0  0  0  0  0
   -1.4707    6.2068   -8.4566 H   0  0  0  0  0  0  0  0  0  0  0  0
   -0.8208    5.5265   -6.9708 H   0  0  0  0  0  0  0  0  0  0  0  0
   -0.0076    2.7088   -7.8560 H   0  0  0  0  0  0  0  0  0  0  0  0
   -0.8421    1.1969   -7.5216 H   0  0  0  0  0  0  0  0  0  0  0  0
   -1.2343    2.8784  -10.0481 H   0  0  0  0  0  0  0  0  0  0  0  0
   -0.2686    1.4137   -9.9123 H   0  0  0  0  0  0  0  0  0  0  0  0
   -2.0125    1.3309   -9.7042 H   0  0  0  0  0  0  0  0  0  0  0  0
    3.0850    6.2020    6.9387 H   0  0  0  0  0  0  0  0  0  0  0  0
    4.7507    6.8592    7.0193 H   0  0  0  0  0  0  0  0  0  0  0  0
    2.2227    8.4184    6.2588 H   0  0  0  0  0  0  0  0  0  0  0  0
    3.0942    8.5579    7.7908 H   0  0  0  0  0  0  0  0  0  0  0  0
    3.8612    9.0910    6.2866 H   0  0  0  0  0  0  0  0  0  0  0  0
   -9.7115    1.3034  -15.4798 H   0  0  0  0  0  0  0  0  0  0  0  0
   -8.3199    2.4256  -15.3484 H   0  0  0  0  0  0  0  0  0  0  0  0
   -8.1137   -0.5508  -16.0367 H   0  0  0  0  0  0  0  0  0  0  0  0
   -7.9842    0.7752  -17.2033 H   0  0  0  0  0  0  0  0  0  0  0  0
   -6.7643    0.5923  -15.9364 H   0  0  0  0  0  0  0  0  0  0  0  0
  1 15  1  0  0  0  0
  2  1  2  0  0  0  0
  3  1  1  0  0  0  0
  3  8  2  0  0  0  0
  4  3  1  0  0  0  0
  5  4  2  0  0  0  0
  5  6  1  0  0  0  0
  6  7  2  0  0  0  0
  7  8  1  0  0  0  0
  7 90  1  0  0  0  0
  8  9  1  0  0  0  0
  9 10  2  0  0  0  0
 10 13  1  0  0  0  0
 10 11  1  0  0  0  0
 11 12  3  0  0  0  0
 13 14  3  0  0  0  0
 15  9  1  0  0  0  0
 15 33  2  0  0  0  0
 16  5  1  0  0  0  0
 17  6  1  0  0  0  0
 18 19  2  0  0  0  0
 18 20  1  0  0  0  0
 20 21  2  0  0  0  0
 21 22  1  0  0  0  0
 21 91  1  0  0  0  0
 22 92  1  0  0  0  0
 23 93  1  0  0  0  0
 23 22  2  0  0  0  0
 24 23  1  0  0  0  0
 25 24  2  0  0  0  0
 25 20  1  0  0  0  0
 26 32  1  0  0  0  0
 26 25  1  0  0  0  0
 27 26  2  0  0  0  0
 28 27  1  0  0  0  0
 29 28  3  0  0  0  0
 30 27  1  0  0  0  0
 31 30  3  0  0  0  0
 32 18  1  0  0  0  0
 33 95  1  0  0  0  0
 34 33  1  0  0  0  0
 34 35  2  0  0  0  0
 35 71  1  0  0  0  0
 36 35  1  0  0  0  0
 36 73  1  0  0  0  0
 37 36  2  0  0  0  0
 38 37  1  0  0  0  0
 38 34  1  0  0  0  0
 39 43  2  0  0  0  0
 39 37  1  0  0  0  0
 40 41  1  0  0  0  0
 40 39  1  0  0  0  0
 41 42  2  0  0  0  0
 42 43  1  0  0  0  0
 43 96  1  0  0  0  0
 44 45  2  0  0  0  0
 44 41  1  0  0  0  0
 45 46  1  0  0  0  0
 46 42  1  0  0  0  0
 46 63  1  0  0  0  0
 46 65  1  0  0  0  0
 47 44  1  0  0  0  0
 48 47  2  0  0  0  0
 48 49  1  0  0  0  0
 49 50  2  0  0  0  0
 50 98  1  0  0  0  0
 50 45  1  0  0  0  0
 51 52  1  0  0  0  0
 51 48  1  0  0  0  0
 52 53  2  0  0  0  0
 53 56  1  0  0  0  0
 53 49  1  0  0  0  0
 54 55  2  0  0  0  0
 54 52  1  0  0  0  0
 55 56  1  0  0  0  0
 57 55  1  0  0  0  0
 57 58  1  0  0  0  0
 59 58  1  0  0  0  0
 60 61  1  0  0  0  0
 60 59  2  0  0  0  0
 61 57  2  0  0  0  0
 62 59  1  0  0  0  0
 62 32  2  0  0  0  0
 63 64  1  0  0  0  0
 64105  1  0  0  0  0
 64104  1  0  0  0  0
 64103  1  0  0  0  0
 65107  1  0  0  0  0
 66110  1  0  0  0  0
 66109  1  0  0  0  0
 66 65  1  0  0  0  0
 67112  1  0  0  0  0
 67 51  1  0  0  0  0
 68 67  1  0  0  0  0
 68115  1  0  0  0  0
 69116  1  0  0  0  0
 69117  1  0  0  0  0
 69 51  1  0  0  0  0
 70 69  1  0  0  0  0
 71 72  1  0  0  0  0
 72 75  1  0  0  0  0
 73 74  1  0  0  0  0
 73 72  2  0  0  0  0
 75 77  2  0  0  0  0
 75 76  1  0  0  0  0
 76 78  1  0  0  0  0
 78 79  1  0  0  0  0
 78121  1  0  0  0  0
 78122  1  0  0  0  0
 79124  1  0  0  0  0
 80 61  1  0  0  0  0
 81 82  1  0  0  0  0
 81 80  2  0  0  0  0
 82 60  1  0  0  0  0
 83 80  1  0  0  0  0
 84 81  1  0  0  0  0
 85 84  2  0  0  0  0
 86 84  1  0  0  0  0
 87 86  1  0  0  0  0
 88128  1  0  0  0  0
 88130  1  0  0  0  0
 88 87  1  0  0  0  0
 89  4  1  0  0  0  0
 94 24  1  0  0  0  0
 97 47  1  0  0  0  0
 99 54  1  0  0  0  0
100 62  1  0  0  0  0
101 63  1  0  0  0  0
102 63  1  0  0  0  0
106 65  1  0  0  0  0
108 66  1  0  0  0  0
111 67  1  0  0  0  0
113 68  1  0  0  0  0
114 68  1  0  0  0  0
118 70  1  0  0  0  0
119 70  1  0  0  0  0
120 70  1  0  0  0  0
123 79  1  0  0  0  0
125 79  1  0  0  0  0
126 87  1  0  0  0  0
127 87  1  0  0  0  0
129 88  1  0  0  0  0
M  END
