6TIC.sdf
  xtb     12202113093D
 energy: -230.669768044253 gnorm: 0.000497159473 xtb: 6.4.1 (unknown)
138153  0     0  0            999 V2000
   -1.7701   -0.1635    1.3771 C   0  0  0  0  0  0  0  0  0  0  0  0
   -2.2556    1.0644    0.9279 C   0  0  0  0  0  0  0  0  0  0  0  0
   -2.7015   -0.7750    2.3942 C   0  0  0  0  0  0  0  0  0  0  0  0
   -3.7377    0.3168    2.4973 C   0  0  0  0  0  0  0  0  0  0  0  0
   -3.4445    1.3696    1.6288 C   0  0  0  0  0  0  0  0  0  0  0  0
   -2.0939   -1.0052    3.7640 C   0  0  0  0  0  0  0  0  0  0  0  0
   -3.2299   -2.0713    1.8009 C   0  0  0  0  0  0  0  0  0  0  0  0
   -4.8774    0.5789    3.2456 C   0  0  0  0  0  0  0  0  0  0  0  0
   -5.4516    1.8330    2.9370 C   0  0  0  0  0  0  0  0  0  0  0  0
   -4.5616    2.6868    1.7042 S   0  0  0  0  0  0  0  0  0  0  0  0
   -2.4392   -3.2116    1.8651 C   0  0  0  0  0  0  0  0  0  0  0  0
   -2.8687   -4.3928    1.2924 C   0  0  0  0  0  0  0  0  0  0  0  0
   -4.0956   -4.4666    0.6447 C   0  0  0  0  0  0  0  0  0  0  0  0
   -4.8777   -3.3217    0.5803 C   0  0  0  0  0  0  0  0  0  0  0  0
   -4.4509   -2.1343    1.1467 C   0  0  0  0  0  0  0  0  0  0  0  0
   -0.8949   -0.4213    4.1426 C   0  0  0  0  0  0  0  0  0  0  0  0
   -0.3912   -0.6275    5.4146 C   0  0  0  0  0  0  0  0  0  0  0  0
   -1.0769   -1.4044    6.3378 C   0  0  0  0  0  0  0  0  0  0  0  0
   -2.2841   -1.9761    5.9543 C   0  0  0  0  0  0  0  0  0  0  0  0
   -2.7886   -1.7807    4.6841 C   0  0  0  0  0  0  0  0  0  0  0  0
   -7.9743    0.9674    5.4741 C   0  0  0  0  0  0  0  0  0  0  0  0
   -8.9760    1.8146    5.8716 C   0  0  0  0  0  0  0  0  0  0  0  0
   -9.9940    1.4466    6.8423 C   0  0  0  0  0  0  0  0  0  0  0  0
  -10.7484    2.6530    7.1771 C   0  0  0  0  0  0  0  0  0  0  0  0
  -10.2774    3.7111    6.3830 C   0  0  0  0  0  0  0  0  0  0  0  0
   -9.1829    3.2364    5.5138 C   0  0  0  0  0  0  0  0  0  0  0  0
   -8.5944    3.9115    4.6932 O   0  0  0  0  0  0  0  0  0  0  0  0
  -10.2670    0.1943    7.3287 C   0  0  0  0  0  0  0  0  0  0  0  0
   -9.6198   -1.0061    6.9651 C   0  0  0  0  0  0  0  0  0  0  0  0
   -9.1675   -2.0346    6.7250 N   0  0  0  0  0  0  0  0  0  0  0  0
  -11.2884   -0.0866    8.2614 C   0  0  0  0  0  0  0  0  0  0  0  0
  -12.0950   -0.3924    9.0191 N   0  0  0  0  0  0  0  0  0  0  0  0
  -11.7720    2.8822    8.0836 C   0  0  0  0  0  0  0  0  0  0  0  0
  -12.3055    4.1614    8.1716 C   0  0  0  0  0  0  0  0  0  0  0  0
  -11.8390    5.1990    7.3773 C   0  0  0  0  0  0  0  0  0  0  0  0
  -10.8120    4.9815    6.4700 C   0  0  0  0  0  0  0  0  0  0  0  0
   -5.7851   -0.2322    4.4557 S   0  0  0  0  0  0  0  0  0  0  0  0
   -6.9244    1.1231    4.5529 C   0  0  0  0  0  0  0  0  0  0  0  0
   -6.5903    2.1357    3.6645 C   0  0  0  0  0  0  0  0  0  0  0  0
   -1.2790    1.8087   -0.2933 S   0  0  0  0  0  0  0  0  0  0  0  0
   -0.1824    0.4640   -0.2071 C   0  0  0  0  0  0  0  0  0  0  0  0
   -0.5874   -0.5081    0.7343 C   0  0  0  0  0  0  0  0  0  0  0  0
    7.6623   -0.8422   -4.2991 C   0  0  0  0  0  0  0  0  0  0  0  0
    8.1667    0.0568   -5.2050 C   0  0  0  0  0  0  0  0  0  0  0  0
    9.4544   -0.0354   -5.8643 C   0  0  0  0  0  0  0  0  0  0  0  0
    9.5550    1.0954   -6.7882 C   0  0  0  0  0  0  0  0  0  0  0  0
    8.3849    1.8682   -6.6874 C   0  0  0  0  0  0  0  0  0  0  0  0
    7.4818    1.2595   -5.6944 C   0  0  0  0  0  0  0  0  0  0  0  0
   10.5531    1.4809   -7.6690 C   0  0  0  0  0  0  0  0  0  0  0  0
   10.3612    2.6285   -8.4284 C   0  0  0  0  0  0  0  0  0  0  0  0
    9.2035    3.3850   -8.3213 C   0  0  0  0  0  0  0  0  0  0  0  0
    8.1970    3.0085   -7.4429 C   0  0  0  0  0  0  0  0  0  0  0  0
    6.3874    1.6805   -5.3625 O   0  0  0  0  0  0  0  0  0  0  0  0
   10.4285   -0.9798   -5.6661 C   0  0  0  0  0  0  0  0  0  0  0  0
   11.6636   -1.0005   -6.3482 C   0  0  0  0  0  0  0  0  0  0  0  0
   10.3644   -2.0576   -4.7585 C   0  0  0  0  0  0  0  0  0  0  0  0
   10.3994   -2.9566   -4.0438 N   0  0  0  0  0  0  0  0  0  0  0  0
   12.6859   -1.0827   -6.8642 N   0  0  0  0  0  0  0  0  0  0  0  0
    1.0114    0.1287   -0.8346 C   0  0  0  0  0  0  0  0  0  0  0  0
    1.5217   -1.0759   -0.3502 C   0  0  0  0  0  0  0  0  0  0  0  0
    0.5310   -1.8324    0.8518 S   0  0  0  0  0  0  0  0  0  0  0  0
    1.9278    0.7259   -1.8725 C   0  0  0  0  0  0  0  0  0  0  0  0
    3.0466   -0.2870   -1.8575 C   0  0  0  0  0  0  0  0  0  0  0  0
    2.7592   -1.3339   -0.9809 C   0  0  0  0  0  0  0  0  0  0  0  0
    1.3439    0.7321   -3.2764 C   0  0  0  0  0  0  0  0  0  0  0  0
    2.3240    2.1240   -1.4400 C   0  0  0  0  0  0  0  0  0  0  0  0
    2.0200    1.4184   -4.2776 C   0  0  0  0  0  0  0  0  0  0  0  0
    1.5477    1.4024   -5.5750 C   0  0  0  0  0  0  0  0  0  0  0  0
    0.3911    0.7065   -5.9055 C   0  0  0  0  0  0  0  0  0  0  0  0
   -0.2764    0.0211   -4.9004 C   0  0  0  0  0  0  0  0  0  0  0  0
    0.1942    0.0278   -3.5993 C   0  0  0  0  0  0  0  0  0  0  0  0
    1.4461    3.1749   -1.6747 C   0  0  0  0  0  0  0  0  0  0  0  0
    1.7584    4.4531   -1.2563 C   0  0  0  0  0  0  0  0  0  0  0  0
    2.9520    4.7148   -0.5948 C   0  0  0  0  0  0  0  0  0  0  0  0
    3.8223    3.6594   -0.3607 C   0  0  0  0  0  0  0  0  0  0  0  0
    3.5118    2.3751   -0.7706 C   0  0  0  0  0  0  0  0  0  0  0  0
   -0.0923    0.6517   -7.3259 C   0  0  0  0  0  0  0  0  0  0  0  0
    0.5612   -0.5177   -8.0653 C   0  0  0  0  0  0  0  0  0  0  0  0
    3.3113    6.1154   -0.1909 C   0  0  0  0  0  0  0  0  0  0  0  0
    4.0187    6.8356   -1.3407 C   0  0  0  0  0  0  0  0  0  0  0  0
    4.2599   -0.4769   -2.5078 C   0  0  0  0  0  0  0  0  0  0  0  0
    4.8969   -1.6719   -2.1031 C   0  0  0  0  0  0  0  0  0  0  0  0
    3.9707   -2.5680   -0.9248 S   0  0  0  0  0  0  0  0  0  0  0  0
    5.1951    0.3911   -3.6646 S   0  0  0  0  0  0  0  0  0  0  0  0
    6.4504   -0.8426   -3.5951 C   0  0  0  0  0  0  0  0  0  0  0  0
    6.1186   -1.8732   -2.7096 C   0  0  0  0  0  0  0  0  0  0  0  0
   -0.5068   -1.6653    7.7017 C   0  0  0  0  0  0  0  0  0  0  0  0
    0.3229   -2.9510    7.6942 C   0  0  0  0  0  0  0  0  0  0  0  0
   -4.5409   -5.7382   -0.0174 C   0  0  0  0  0  0  0  0  0  0  0  0
   -4.0750   -5.7711   -1.4746 C   0  0  0  0  0  0  0  0  0  0  0  0
   -1.4863   -3.1735    2.3729 H   0  0  0  0  0  0  0  0  0  0  0  0
   -2.2422   -5.2710    1.3522 H   0  0  0  0  0  0  0  0  0  0  0  0
   -5.8357   -3.3569    0.0817 H   0  0  0  0  0  0  0  0  0  0  0  0
   -5.0771   -1.2569    1.0782 H   0  0  0  0  0  0  0  0  0  0  0  0
   -0.3477    0.1972    3.4461 H   0  0  0  0  0  0  0  0  0  0  0  0
    0.5481   -0.1715    5.6931 H   0  0  0  0  0  0  0  0  0  0  0  0
   -2.8375   -2.5797    6.6589 H   0  0  0  0  0  0  0  0  0  0  0  0
   -3.7256   -2.2371    4.3997 H   0  0  0  0  0  0  0  0  0  0  0  0
   -7.9580   -0.0015    5.9599 H   0  0  0  0  0  0  0  0  0  0  0  0
  -12.1536    2.0984    8.7168 H   0  0  0  0  0  0  0  0  0  0  0  0
  -13.1020    4.3484    8.8763 H   0  0  0  0  0  0  0  0  0  0  0  0
  -12.2776    6.1813    7.4686 H   0  0  0  0  0  0  0  0  0  0  0  0
  -10.4298    5.7727    5.8434 H   0  0  0  0  0  0  0  0  0  0  0  0
   -7.1591    3.0425    3.5745 H   0  0  0  0  0  0  0  0  0  0  0  0
    8.2807   -1.7021   -4.0715 H   0  0  0  0  0  0  0  0  0  0  0  0
   11.4633    0.9144   -7.7760 H   0  0  0  0  0  0  0  0  0  0  0  0
   11.1344    2.9348   -9.1168 H   0  0  0  0  0  0  0  0  0  0  0  0
    9.0863    4.2719   -8.9255 H   0  0  0  0  0  0  0  0  0  0  0  0
    7.2877    3.5809   -7.3416 H   0  0  0  0  0  0  0  0  0  0  0  0
    2.9183    1.9681   -4.0390 H   0  0  0  0  0  0  0  0  0  0  0  0
    2.0873    1.9388   -6.3417 H   0  0  0  0  0  0  0  0  0  0  0  0
   -1.1773   -0.5279   -5.1350 H   0  0  0  0  0  0  0  0  0  0  0  0
   -0.3422   -0.5197   -2.8380 H   0  0  0  0  0  0  0  0  0  0  0  0
    0.5175    2.9895   -2.1952 H   0  0  0  0  0  0  0  0  0  0  0  0
    1.0643    5.2593   -1.4452 H   0  0  0  0  0  0  0  0  0  0  0  0
    4.7555    3.8411    0.1530 H   0  0  0  0  0  0  0  0  0  0  0  0
    4.2017    1.5690   -0.5687 H   0  0  0  0  0  0  0  0  0  0  0  0
    0.1558    1.5837   -7.8373 H   0  0  0  0  0  0  0  0  0  0  0  0
   -1.1770    0.5286   -7.3446 H   0  0  0  0  0  0  0  0  0  0  0  0
    0.2172   -0.5566   -9.0962 H   0  0  0  0  0  0  0  0  0  0  0  0
    0.3120   -1.4588   -7.5799 H   0  0  0  0  0  0  0  0  0  0  0  0
    1.6433   -0.4085   -8.0631 H   0  0  0  0  0  0  0  0  0  0  0  0
    2.4075    6.6665    0.0767 H   0  0  0  0  0  0  0  0  0  0  0  0
    3.9696    6.0937    0.6799 H   0  0  0  0  0  0  0  0  0  0  0  0
    4.2799    7.8506   -1.0506 H   0  0  0  0  0  0  0  0  0  0  0  0
    4.9286    6.3067   -1.6151 H   0  0  0  0  0  0  0  0  0  0  0  0
    3.3724    6.8786   -2.2144 H   0  0  0  0  0  0  0  0  0  0  0  0
    6.7627   -2.7161   -2.5345 H   0  0  0  0  0  0  0  0  0  0  0  0
   -1.3162   -1.7644    8.4276 H   0  0  0  0  0  0  0  0  0  0  0  0
    0.1262   -0.8295    8.0062 H   0  0  0  0  0  0  0  0  0  0  0  0
   -0.2952   -3.7981    7.4056 H   0  0  0  0  0  0  0  0  0  0  0  0
    1.1425   -2.8681    6.9838 H   0  0  0  0  0  0  0  0  0  0  0  0
    0.7364   -3.1426    8.6815 H   0  0  0  0  0  0  0  0  0  0  0  0
   -4.1253   -6.5971    0.5127 H   0  0  0  0  0  0  0  0  0  0  0  0
   -5.6298   -5.8105    0.0139 H   0  0  0  0  0  0  0  0  0  0  0  0
   -4.4913   -4.9297   -2.0242 H   0  0  0  0  0  0  0  0  0  0  0  0
   -4.3948   -6.6924   -1.9555 H   0  0  0  0  0  0  0  0  0  0  0  0
   -2.9902   -5.7101   -1.5264 H   0  0  0  0  0  0  0  0  0  0  0  0
  1  3  1  0  0  0  0
  3  4  1  0  0  0  0
  4  5  2  0  0  0  0
  5  2  1  0  0  0  0
  3  6  1  0  0  0  0
  3  7  1  0  0  0  0
  4  8  1  0  0  0  0
  8  9  2  0  0  0  0
  9 10  1  0  0  0  0
 10  5  1  0  0  0  0
  7 11  2  0  0  0  0
 11 12  1  0  0  0  0
 12 13  2  0  0  0  0
 13 14  1  0  0  0  0
 14 15  2  0  0  0  0
 15  7  1  0  0  0  0
  6 16  2  0  0  0  0
 16 17  1  0  0  0  0
 17 18  2  0  0  0  0
 18 19  1  0  0  0  0
 19 20  2  0  0  0  0
 20  6  1  0  0  0  0
 21 22  2  0  0  0  0
 22 23  1  0  0  0  0
 23 24  1  0  0  0  0
 24 25  2  0  0  0  0
 25 26  1  0  0  0  0
 26 22  1  0  0  0  0
 26 27  2  0  0  0  0
 23 28  2  0  0  0  0
 28 29  1  0  0  0  0
 29 30  3  0  0  0  0
 28 31  1  0  0  0  0
 31 32  3  0  0  0  0
 24 33  1  0  0  0  0
 33 34  2  0  0  0  0
 34 35  1  0  0  0  0
 35 36  2  0  0  0  0
 36 25  1  0  0  0  0
  8 37  1  0  0  0  0
 37 38  1  0  0  0  0
 38 39  2  0  0  0  0
 39  9  1  0  0  0  0
 21 38  1  0  0  0  0
  1  2  2  0  0  0  0
  2 40  1  0  0  0  0
 40 41  1  0  0  0  0
 41 42  2  0  0  0  0
 42  1  1  0  0  0  0
 43 44  2  0  0  0  0
 44 45  1  0  0  0  0
 45 46  1  0  0  0  0
 46 47  2  0  0  0  0
 47 48  1  0  0  0  0
 48 44  1  0  0  0  0
 46 49  1  0  0  0  0
 49 50  2  0  0  0  0
 50 51  1  0  0  0  0
 51 52  2  0  0  0  0
 52 47  1  0  0  0  0
 48 53  2  0  0  0  0
 45 54  2  0  0  0  0
 54 55  1  0  0  0  0
 54 56  1  0  0  0  0
 56 57  3  0  0  0  0
 55 58  3  0  0  0  0
 41 59  1  0  0  0  0
 59 60  2  0  0  0  0
 60 61  1  0  0  0  0
 61 42  1  0  0  0  0
 59 62  1  0  0  0  0
 62 63  1  0  0  0  0
 63 64  2  0  0  0  0
 64 60  1  0  0  0  0
 62 65  1  0  0  0  0
 62 66  1  0  0  0  0
 65 67  2  0  0  0  0
 67 68  1  0  0  0  0
 68 69  2  0  0  0  0
 69 70  1  0  0  0  0
 70 71  2  0  0  0  0
 71 65  1  0  0  0  0
 66 72  2  0  0  0  0
 72 73  1  0  0  0  0
 73 74  2  0  0  0  0
 74 75  1  0  0  0  0
 75 76  2  0  0  0  0
 76 66  1  0  0  0  0
 69 77  1  0  0  0  0
 77 78  1  0  0  0  0
 74 79  1  0  0  0  0
 79 80  1  0  0  0  0
 63 81  1  0  0  0  0
 81 82  2  0  0  0  0
 82 83  1  0  0  0  0
 83 64  1  0  0  0  0
 81 84  1  0  0  0  0
 84 85  1  0  0  0  0
 85 86  2  0  0  0  0
 86 82  1  0  0  0  0
 85 43  1  0  0  0  0
 18 87  1  0  0  0  0
 87 88  1  0  0  0  0
 13 89  1  0  0  0  0
 89 90  1  0  0  0  0
 11 91  1  0  0  0  0
 12 92  1  0  0  0  0
 14 93  1  0  0  0  0
 15 94  1  0  0  0  0
 16 95  1  0  0  0  0
 17 96  1  0  0  0  0
 19 97  1  0  0  0  0
 20 98  1  0  0  0  0
 21 99  1  0  0  0  0
 33100  1  0  0  0  0
 34101  1  0  0  0  0
 35102  1  0  0  0  0
 36103  1  0  0  0  0
 39104  1  0  0  0  0
 43105  1  0  0  0  0
 49106  1  0  0  0  0
 50107  1  0  0  0  0
 51108  1  0  0  0  0
 52109  1  0  0  0  0
 67110  1  0  0  0  0
 68111  1  0  0  0  0
 70112  1  0  0  0  0
 71113  1  0  0  0  0
 72114  1  0  0  0  0
 73115  1  0  0  0  0
 75116  1  0  0  0  0
 76117  1  0  0  0  0
 77118  1  0  0  0  0
 77119  1  0  0  0  0
 78120  1  0  0  0  0
 78121  1  0  0  0  0
 78122  1  0  0  0  0
 79123  1  0  0  0  0
 79124  1  0  0  0  0
 80125  1  0  0  0  0
 80126  1  0  0  0  0
 80127  1  0  0  0  0
 86128  1  0  0  0  0
 87129  1  0  0  0  0
 87130  1  0  0  0  0
 88131  1  0  0  0  0
 88132  1  0  0  0  0
 88133  1  0  0  0  0
 89134  1  0  0  0  0
 89135  1  0  0  0  0
 90136  1  0  0  0  0
 90137  1  0  0  0  0
 90138  1  0  0  0  0
M  END
