A4T-16.sdf
  xtb     12202113113D
 energy: -229.054143971502 gnorm: 0.000791971174 xtb: 6.4.1 (unknown)
138147  0     0  0            999 V2000
   -1.5791   -7.5951    5.9821 C   0  0  0  0  0  0  0  0  0  0  0  0
   -0.4973   -7.8214    5.4813 O   0  0  0  0  0  0  0  0  0  0  0  0
   -2.2305   -8.4360    7.0110 C   0  0  0  0  0  0  0  0  0  0  0  0
   -1.7577   -9.6052    7.5736 C   0  0  0  0  0  0  0  0  0  0  0  0
   -2.5511  -10.2274    8.5230 C   0  0  0  0  0  0  0  0  0  0  0  0
   -3.7825   -9.6811    8.8866 C   0  0  0  0  0  0  0  0  0  0  0  0
   -4.2548   -8.5057    8.3222 C   0  0  0  0  0  0  0  0  0  0  0  0
   -3.4651   -7.8758    7.3722 C   0  0  0  0  0  0  0  0  0  0  0  0
   -3.6619   -6.6449    6.6065 C   0  0  0  0  0  0  0  0  0  0  0  0
   -4.7242   -5.7937    6.7645 C   0  0  0  0  0  0  0  0  0  0  0  0
   -5.7889   -6.0189    7.6645 C   0  0  0  0  0  0  0  0  0  0  0  0
   -6.6892   -6.1414    8.3656 N   0  0  0  0  0  0  0  0  0  0  0  0
   -4.9279   -4.5665    6.0965 C   0  0  0  0  0  0  0  0  0  0  0  0
   -5.1746   -3.5501    5.6215 N   0  0  0  0  0  0  0  0  0  0  0  0
   -2.5216   -6.4890    5.7177 C   0  0  0  0  0  0  0  0  0  0  0  0
   -2.4317   -5.4980    4.7728 C   0  0  0  0  0  0  0  0  0  0  0  0
   -1.4156   -5.1634    3.8617 C   0  0  0  0  0  0  0  0  0  0  0  0
   -0.1269   -5.6267    3.6550 C   0  0  0  0  0  0  0  0  0  0  0  0
    0.5684   -4.9786    2.6341 C   0  0  0  0  0  0  0  0  0  0  0  0
   -0.1916   -3.9869    2.0230 C   0  0  0  0  0  0  0  0  0  0  0  0
   -1.7618   -3.8569    2.7460 S   0  0  0  0  0  0  0  0  0  0  0  0
    0.1342   -3.0693    0.9726 C   0  0  0  0  0  0  0  0  0  0  0  0
    0.9863    3.5419   -2.9549 C   0  0  0  0  0  0  0  0  0  0  0  0
    1.8389    3.4737   -4.0699 C   0  0  0  0  0  0  0  0  0  0  0  0
    2.0453    4.7133   -4.6602 C   0  0  0  0  0  0  0  0  0  0  0  0
    1.3752    5.7602   -4.0412 C   0  0  0  0  0  0  0  0  0  0  0  0
    0.4450    5.1652   -2.6820 S   0  0  0  0  0  0  0  0  0  0  0  0
    1.3123    7.1439   -4.2520 C   0  0  0  0  0  0  0  0  0  0  0  0
    1.9270    7.9722   -5.1601 C   0  0  0  0  0  0  0  0  0  0  0  0
    1.7480    9.4125   -5.1711 C   0  0  0  0  0  0  0  0  0  0  0  0
    0.9900   10.1736   -4.3175 C   0  0  0  0  0  0  0  0  0  0  0  0
    0.8753   11.5780   -4.4051 C   0  0  0  0  0  0  0  0  0  0  0  0
    0.7323   12.7168   -4.4151 N   0  0  0  0  0  0  0  0  0  0  0  0
    0.2185    9.7159   -3.2273 C   0  0  0  0  0  0  0  0  0  0  0  0
   -0.4318    9.4561   -2.3158 N   0  0  0  0  0  0  0  0  0  0  0  0
    2.5505    9.9513   -6.2704 C   0  0  0  0  0  0  0  0  0  0  0  0
    2.7413   11.2484   -6.7217 C   0  0  0  0  0  0  0  0  0  0  0  0
    3.5860   11.4445   -7.8041 C   0  0  0  0  0  0  0  0  0  0  0  0
    4.2329   10.3808   -8.4328 C   0  0  0  0  0  0  0  0  0  0  0  0
    4.0467    9.0820   -7.9883 C   0  0  0  0  0  0  0  0  0  0  0  0
    3.2058    8.8884   -6.9107 C   0  0  0  0  0  0  0  0  0  0  0  0
    2.8481    7.6106   -6.2530 C   0  0  0  0  0  0  0  0  0  0  0  0
    3.2543    6.5163   -6.5865 O   0  0  0  0  0  0  0  0  0  0  0  0
   -2.1344  -11.3631    9.0960 F   0  0  0  0  0  0  0  0  0  0  0  0
    5.0410   10.6172   -9.4741 F   0  0  0  0  0  0  0  0  0  0  0  0
   -0.4202   -1.4214    1.1548 S   0  0  0  0  0  0  0  0  0  0  0  0
    0.2714   -0.9761   -0.3742 C   0  0  0  0  0  0  0  0  0  0  0  0
    0.8641   -2.0591   -0.9773 C   0  0  0  0  0  0  0  0  0  0  0  0
    0.7899   -3.2492   -0.2327 C   0  0  0  0  0  0  0  0  0  0  0  0
    0.2116    0.3620   -0.8455 C   0  0  0  0  0  0  0  0  0  0  0  0
   -0.4921    1.4198   -0.3141 C   0  0  0  0  0  0  0  0  0  0  0  0
   -0.3049    2.6242   -0.9972 C   0  0  0  0  0  0  0  0  0  0  0  0
    0.5625    2.5064   -2.0816 C   0  0  0  0  0  0  0  0  0  0  0  0
    1.1266    0.8588   -2.2340 S   0  0  0  0  0  0  0  0  0  0  0  0
    2.4549    2.2012   -4.5621 C   0  0  0  0  0  0  0  0  0  0  0  0
    3.2894    2.3645   -5.8264 C   0  0  0  0  0  0  0  0  0  0  0  0
    1.9963   -5.3029    2.3291 C   0  0  0  0  0  0  0  0  0  0  0  0
    2.1512   -6.7376    1.8258 C   0  0  0  0  0  0  0  0  0  0  0  0
    1.2910   -4.5238   -0.7816 C   0  0  0  0  0  0  0  0  0  0  0  0
    2.6627   -4.6859   -1.0089 C   0  0  0  0  0  0  0  0  0  0  0  0
    3.1227   -5.8666   -1.5703 C   0  0  0  0  0  0  0  0  0  0  0  0
    2.2537   -6.8778   -1.9491 C   0  0  0  0  0  0  0  0  0  0  0  0
    0.8970   -6.6896   -1.7410 C   0  0  0  0  0  0  0  0  0  0  0  0
    0.3985   -5.5344   -1.1537 C   0  0  0  0  0  0  0  0  0  0  0  0
    3.6705   -3.6236   -0.6531 C   0  0  0  0  0  0  0  0  0  0  0  0
    4.2657   -2.9736   -1.9033 C   0  0  0  0  0  0  0  0  0  0  0  0
    2.7752   -8.1630   -2.5227 C   0  0  0  0  0  0  0  0  0  0  0  0
    3.1337   -9.1399   -1.4009 C   0  0  0  0  0  0  0  0  0  0  0  0
   -1.0918   -5.4158   -0.9737 C   0  0  0  0  0  0  0  0  0  0  0  0
   -1.6299   -6.4504    0.0163 C   0  0  0  0  0  0  0  0  0  0  0  0
   -0.9648    3.8861   -0.6147 C   0  0  0  0  0  0  0  0  0  0  0  0
   -2.2448    4.1715   -1.0949 C   0  0  0  0  0  0  0  0  0  0  0  0
   -2.8197    5.3949   -0.7856 C   0  0  0  0  0  0  0  0  0  0  0  0
   -2.1585    6.3336   -0.0094 C   0  0  0  0  0  0  0  0  0  0  0  0
   -0.9106    6.0074    0.5031 C   0  0  0  0  0  0  0  0  0  0  0  0
   -0.3020    4.7977    0.2144 C   0  0  0  0  0  0  0  0  0  0  0  0
    1.0448    4.4784    0.8019 C   0  0  0  0  0  0  0  0  0  0  0  0
    0.8947    3.7456    2.1361 C   0  0  0  0  0  0  0  0  0  0  0  0
   -2.7857    7.6599    0.3043 C   0  0  0  0  0  0  0  0  0  0  0  0
   -3.4295    7.6427    1.6917 C   0  0  0  0  0  0  0  0  0  0  0  0
   -2.9900    3.2045   -1.9741 C   0  0  0  0  0  0  0  0  0  0  0  0
   -2.7299    3.4815   -3.4558 C   0  0  0  0  0  0  0  0  0  0  0  0
   -4.5312  -10.3050    9.8028 F   0  0  0  0  0  0  0  0  0  0  0  0
    3.7830   12.6898   -8.2533 F   0  0  0  0  0  0  0  0  0  0  0  0
   -0.8055  -10.0222    7.2870 H   0  0  0  0  0  0  0  0  0  0  0  0
   -5.2133   -8.1290    8.6385 H   0  0  0  0  0  0  0  0  0  0  0  0
   -3.2950   -4.8484    4.6920 H   0  0  0  0  0  0  0  0  0  0  0  0
    0.2996   -6.4128    4.2499 H   0  0  0  0  0  0  0  0  0  0  0  0
    2.6663    4.8765   -5.5200 H   0  0  0  0  0  0  0  0  0  0  0  0
    0.6600    7.6367   -3.5410 H   0  0  0  0  0  0  0  0  0  0  0  0
    2.2675   12.1061   -6.2740 H   0  0  0  0  0  0  0  0  0  0  0  0
    4.5438    8.2549   -8.4694 H   0  0  0  0  0  0  0  0  0  0  0  0
    1.3188   -2.0008   -1.9500 H   0  0  0  0  0  0  0  0  0  0  0  0
   -1.1335    1.3184    0.5443 H   0  0  0  0  0  0  0  0  0  0  0  0
    3.0844    1.7841   -3.7688 H   0  0  0  0  0  0  0  0  0  0  0  0
    1.6582    1.4741   -4.7510 H   0  0  0  0  0  0  0  0  0  0  0  0
    2.6847    2.7534   -6.6414 H   0  0  0  0  0  0  0  0  0  0  0  0
    3.6876    1.3981   -6.1259 H   0  0  0  0  0  0  0  0  0  0  0  0
    4.1235    3.0402   -5.6570 H   0  0  0  0  0  0  0  0  0  0  0  0
    2.5748   -5.1871    3.2500 H   0  0  0  0  0  0  0  0  0  0  0  0
    2.3886   -4.6056    1.5922 H   0  0  0  0  0  0  0  0  0  0  0  0
    1.8011   -7.4451    2.5729 H   0  0  0  0  0  0  0  0  0  0  0  0
    3.1966   -6.9456    1.6139 H   0  0  0  0  0  0  0  0  0  0  0  0
    1.5813   -6.8840    0.9126 H   0  0  0  0  0  0  0  0  0  0  0  0
    4.1850   -5.9973   -1.7207 H   0  0  0  0  0  0  0  0  0  0  0  0
    0.2045   -7.4599   -2.0490 H   0  0  0  0  0  0  0  0  0  0  0  0
    4.4809   -4.0832   -0.0805 H   0  0  0  0  0  0  0  0  0  0  0  0
    3.2150   -2.8518   -0.0301 H   0  0  0  0  0  0  0  0  0  0  0  0
    4.9985   -2.2207   -1.6226 H   0  0  0  0  0  0  0  0  0  0  0  0
    3.4908   -2.4938   -2.4962 H   0  0  0  0  0  0  0  0  0  0  0  0
    4.7553   -3.7178   -2.5262 H   0  0  0  0  0  0  0  0  0  0  0  0
    2.0186   -8.6157   -3.1665 H   0  0  0  0  0  0  0  0  0  0  0  0
    3.6640   -7.9663   -3.1257 H   0  0  0  0  0  0  0  0  0  0  0  0
    2.2593   -9.3538   -0.7903 H   0  0  0  0  0  0  0  0  0  0  0  0
    3.5057  -10.0740   -1.8148 H   0  0  0  0  0  0  0  0  0  0  0  0
    3.9014   -8.7143   -0.7587 H   0  0  0  0  0  0  0  0  0  0  0  0
   -1.3603   -4.4157   -0.6333 H   0  0  0  0  0  0  0  0  0  0  0  0
   -1.5737   -5.5746   -1.9425 H   0  0  0  0  0  0  0  0  0  0  0  0
   -1.1226   -6.3679    0.9741 H   0  0  0  0  0  0  0  0  0  0  0  0
   -1.4784   -7.4596   -0.3581 H   0  0  0  0  0  0  0  0  0  0  0  0
   -2.6954   -6.2997    0.1739 H   0  0  0  0  0  0  0  0  0  0  0  0
   -3.8039    5.6219   -1.1708 H   0  0  0  0  0  0  0  0  0  0  0  0
   -0.3913    6.7212    1.1264 H   0  0  0  0  0  0  0  0  0  0  0  0
    1.5957    5.4067    0.9639 H   0  0  0  0  0  0  0  0  0  0  0  0
    1.6237    3.8585    0.1139 H   0  0  0  0  0  0  0  0  0  0  0  0
    0.3131    4.3456    2.8319 H   0  0  0  0  0  0  0  0  0  0  0  0
    0.3859    2.7949    1.9948 H   0  0  0  0  0  0  0  0  0  0  0  0
    1.8710    3.5527    2.5751 H   0  0  0  0  0  0  0  0  0  0  0  0
   -3.5456    7.8934   -0.4431 H   0  0  0  0  0  0  0  0  0  0  0  0
   -2.0232    8.4395    0.2660 H   0  0  0  0  0  0  0  0  0  0  0  0
   -2.6863    7.4214    2.4543 H   0  0  0  0  0  0  0  0  0  0  0  0
   -3.8769    8.6084    1.9137 H   0  0  0  0  0  0  0  0  0  0  0  0
   -4.2052    6.8813    1.7404 H   0  0  0  0  0  0  0  0  0  0  0  0
   -2.6983    2.1779   -1.7430 H   0  0  0  0  0  0  0  0  0  0  0  0
   -4.0601    3.3029   -1.7802 H   0  0  0  0  0  0  0  0  0  0  0  0
   -2.9667    4.5159   -3.6938 H   0  0  0  0  0  0  0  0  0  0  0  0
   -3.3445    2.8318   -4.0749 H   0  0  0  0  0  0  0  0  0  0  0  0
   -1.6862    3.3046   -3.7040 H   0  0  0  0  0  0  0  0  0  0  0  0
  1  2  2  0  0  0  0
  1  3  1  0  0  0  0
  3  4  2  0  0  0  0
  4  5  1  0  0  0  0
  5  6  2  0  0  0  0
  6  7  1  0  0  0  0
  7  8  2  0  0  0  0
  3  8  1  0  0  0  0
  8  9  1  0  0  0  0
  9 10  2  0  0  0  0
 10 11  1  0  0  0  0
 11 12  3  0  0  0  0
 10 13  1  0  0  0  0
 13 14  3  0  0  0  0
  9 15  1  0  0  0  0
  1 15  1  0  0  0  0
 15 16  2  0  0  0  0
 16 17  1  0  0  0  0
 17 18  2  0  0  0  0
 18 19  1  0  0  0  0
 19 20  2  0  0  0  0
 20 21  1  0  0  0  0
 17 21  1  0  0  0  0
 20 22  1  0  0  0  0
 23 24  2  0  0  0  0
 24 25  1  0  0  0  0
 25 26  2  0  0  0  0
 26 27  1  0  0  0  0
 23 27  1  0  0  0  0
 26 28  1  0  0  0  0
 28 29  2  0  0  0  0
 29 30  1  0  0  0  0
 30 31  2  0  0  0  0
 31 32  1  0  0  0  0
 32 33  3  0  0  0  0
 31 34  1  0  0  0  0
 34 35  3  0  0  0  0
 30 36  1  0  0  0  0
 36 37  2  0  0  0  0
 37 38  1  0  0  0  0
 38 39  2  0  0  0  0
 39 40  1  0  0  0  0
 40 41  2  0  0  0  0
 36 41  1  0  0  0  0
 41 42  1  0  0  0  0
 29 42  1  0  0  0  0
 42 43  2  0  0  0  0
  5 44  1  0  0  0  0
 39 45  1  0  0  0  0
 22 46  1  0  0  0  0
 46 47  1  0  0  0  0
 47 48  2  0  0  0  0
 48 49  1  0  0  0  0
 49 22  2  0  0  0  0
 47 50  1  0  0  0  0
 50 51  2  0  0  0  0
 51 52  1  0  0  0  0
 52 53  2  0  0  0  0
 53 54  1  0  0  0  0
 54 50  1  0  0  0  0
 53 23  1  0  0  0  0
 24 55  1  0  0  0  0
 55 56  1  0  0  0  0
 19 57  1  0  0  0  0
 57 58  1  0  0  0  0
 49 59  1  0  0  0  0
 59 60  2  0  0  0  0
 60 61  1  0  0  0  0
 61 62  2  0  0  0  0
 62 63  1  0  0  0  0
 63 64  2  0  0  0  0
 64 59  1  0  0  0  0
 60 65  1  0  0  0  0
 65 66  1  0  0  0  0
 62 67  1  0  0  0  0
 67 68  1  0  0  0  0
 64 69  1  0  0  0  0
 69 70  1  0  0  0  0
 52 71  1  0  0  0  0
 71 72  2  0  0  0  0
 72 73  1  0  0  0  0
 73 74  2  0  0  0  0
 74 75  1  0  0  0  0
 75 76  2  0  0  0  0
 76 71  1  0  0  0  0
 76 77  1  0  0  0  0
 77 78  1  0  0  0  0
 74 79  1  0  0  0  0
 79 80  1  0  0  0  0
 72 81  1  0  0  0  0
 81 82  1  0  0  0  0
  6 83  1  0  0  0  0
 38 84  1  0  0  0  0
  4 85  1  0  0  0  0
  7 86  1  0  0  0  0
 16 87  1  0  0  0  0
 18 88  1  0  0  0  0
 25 89  1  0  0  0  0
 28 90  1  0  0  0  0
 37 91  1  0  0  0  0
 40 92  1  0  0  0  0
 48 93  1  0  0  0  0
 51 94  1  0  0  0  0
 55 95  1  0  0  0  0
 55 96  1  0  0  0  0
 56 97  1  0  0  0  0
 56 98  1  0  0  0  0
 56 99  1  0  0  0  0
 57100  1  0  0  0  0
 57101  1  0  0  0  0
 58102  1  0  0  0  0
 58103  1  0  0  0  0
 58104  1  0  0  0  0
 61105  1  0  0  0  0
 63106  1  0  0  0  0
 65107  1  0  0  0  0
 65108  1  0  0  0  0
 66109  1  0  0  0  0
 66110  1  0  0  0  0
 66111  1  0  0  0  0
 67112  1  0  0  0  0
 67113  1  0  0  0  0
 68114  1  0  0  0  0
 68115  1  0  0  0  0
 68116  1  0  0  0  0
 69117  1  0  0  0  0
 69118  1  0  0  0  0
 70119  1  0  0  0  0
 70120  1  0  0  0  0
 70121  1  0  0  0  0
 73122  1  0  0  0  0
 75123  1  0  0  0  0
 77124  1  0  0  0  0
 77125  1  0  0  0  0
 78126  1  0  0  0  0
 78127  1  0  0  0  0
 78128  1  0  0  0  0
 79129  1  0  0  0  0
 79130  1  0  0  0  0
 80131  1  0  0  0  0
 80132  1  0  0  0  0
 80133  1  0  0  0  0
 81134  1  0  0  0  0
 81135  1  0  0  0  0
 82136  1  0  0  0  0
 82137  1  0  0  0  0
 82138  1  0  0  0  0
M  END
