SCF done       -291.979560644529          0.000801291245
 OpenBabel12282109493D

175192  0  0  1  0  0  0  0  0999 V2000
   -0.0462   -0.9018   -1.2284 C   0  0  0  0  0  0  0  0  0  0  0  0
    0.4027   -1.9687   -1.9537 C   0  0  1  0  0  0  0  0  0  0  0  0
    0.6248   -2.1392   -3.3711 C   0  0  0  0  0  0  0  0  0  0  0  0
    1.5053   -3.2957   -3.5331 C   0  0  0  0  0  0  0  0  0  0  0  0
    1.6148   -3.9534   -2.2948 C   0  0  0  0  0  0  0  0  0  0  0  0
    0.8587   -3.1993   -1.2652 C   0  0  0  0  0  0  0  0  0  0  0  0
    0.6917   -3.4964   -0.1052 O   0  0  0  0  0  0  0  0  0  0  0  0
   -0.0835   -1.5376   -4.3791 C   0  0  0  0  0  0  0  0  0  0  0  0
    0.1127   -1.8083   -5.7476 C   0  0  0  0  0  0  0  0  0  0  0  0
    0.2515   -1.9798   -6.8739 N   0  0  0  0  0  0  0  0  0  0  0  0
   -1.1522   -0.6476   -4.1435 C   0  0  0  0  0  0  0  0  0  0  0  0
   -2.0605    0.0367   -3.9861 N   0  0  0  0  0  0  0  0  0  0  0  0
    2.1569   -3.7949   -4.6483 C   0  0  0  0  0  0  0  0  0  0  0  0
    2.9091   -4.9504   -4.4963 C   0  0  0  0  0  0  0  0  0  0  0  0
    3.0037   -5.6053   -3.2680 C   0  0  0  0  0  0  0  0  0  0  0  0
    2.3534   -5.1107   -2.1484 C   0  0  0  0  0  0  0  0  0  0  0  0
    3.5620   -5.4434   -5.5549 F   0  0  0  0  0  0  0  0  0  0  0  0
    3.7351   -6.7224   -3.1693 F   0  0  0  0  0  0  0  0  0  0  0  0
    3.0091   15.9248   -9.0552 C   0  0  0  0  0  0  0  0  0  0  0  0
    3.8817   15.9545  -10.1080 C   0  0  2  0  0  0  0  0  0  0  0  0
    4.3185   14.9311  -11.0285 C   0  0  0  0  0  0  0  0  0  0  0  0
    5.6240   15.3462  -11.5420 C   0  0  0  0  0  0  0  0  0  0  0  0
    5.8508   16.6813  -11.1625 C   0  0  0  0  0  0  0  0  0  0  0  0
    4.7233   17.1555  -10.3221 C   0  0  0  0  0  0  0  0  0  0  0  0
    6.5633   14.6669  -12.2992 C   0  0  0  0  0  0  0  0  0  0  0  0
    7.7194   15.3445  -12.6580 C   0  0  0  0  0  0  0  0  0  0  0  0
    7.9341   16.6721  -12.2874 C   0  0  0  0  0  0  0  0  0  0  0  0
    6.9953   17.3587  -11.5330 C   0  0  0  0  0  0  0  0  0  0  0  0
    4.5598   18.2614   -9.8619 O   0  0  0  0  0  0  0  0  0  0  0  0
    3.5503   13.9185  -11.5421 C   0  0  0  0  0  0  0  0  0  0  0  0
    4.0148   12.9688  -12.4726 C   0  0  0  0  0  0  0  0  0  0  0  0
    2.1756   13.7728  -11.2555 C   0  0  0  0  0  0  0  0  0  0  0  0
    1.0438   13.6602  -11.1016 N   0  0  0  0  0  0  0  0  0  0  0  0
    4.3538   12.1523  -13.2048 N   0  0  0  0  0  0  0  0  0  0  0  0
    9.0636   17.2880  -12.6592 F   0  0  0  0  0  0  0  0  0  0  0  0
    8.6528   14.7029  -13.3712 F   0  0  0  0  0  0  0  0  0  0  0  0
   -0.1101    0.4539   -1.6030 C   0  0  0  0  0  0  0  0  0  0  0  0
    0.8824    1.1273   -2.8928 S   0  0  0  0  0  0  0  0  0  0  0  0
    0.2151    2.6755   -2.6106 C   0  0  0  0  0  0  0  0  0  0  0  0
   -0.7203    2.6772   -1.5804 C   0  0  0  0  0  0  0  0  0  0  0  0
   -0.8785    1.4368   -0.9871 C   0  0  0  0  0  0  0  0  0  0  0  0
    0.3658    3.9788   -3.1662 C   0  0  0  0  0  0  0  0  0  0  0  0
   -0.5109    4.8324   -2.4532 C   0  0  0  0  0  0  0  0  0  0  0  0
   -1.2757    4.0644   -1.3889 C   0  0  0  0  0  0  0  0  0  0  0  0
   -2.7582    4.1623   -1.7099 C   0  0  0  0  0  0  0  0  0  0  0  0
   -0.9710    4.5050    0.0311 C   0  0  0  0  0  0  0  0  0  0  0  0
    1.1772    4.4454   -4.1989 C   0  0  0  0  0  0  0  0  0  0  0  0
    1.0990    5.7825   -4.5030 C   0  0  0  0  0  0  0  0  0  0  0  0
    0.2154    6.6329   -3.7980 C   0  0  0  0  0  0  0  0  0  0  0  0
   -0.6033    6.1663   -2.7718 C   0  0  0  0  0  0  0  0  0  0  0  0
    1.8835    6.5594   -5.5543 C   0  0  0  0  0  0  0  0  0  0  0  0
    1.3317    7.9542   -5.3599 C   0  0  0  0  0  0  0  0  0  0  0  0
    0.3882    7.9416   -4.3332 C   0  0  0  0  0  0  0  0  0  0  0  0
    3.3669    6.5701   -5.2199 C   0  0  0  0  0  0  0  0  0  0  0  0
    1.5573    5.9453   -6.9016 C   0  0  0  0  0  0  0  0  0  0  0  0
    1.5210    9.2380   -5.8630 C   0  0  0  0  0  0  0  0  0  0  0  0
    0.6992   10.1650   -5.2004 C   0  0  0  0  0  0  0  0  0  0  0  0
   -0.2927    9.4827   -3.9670 S   0  0  0  0  0  0  0  0  0  0  0  0
    2.3058    9.9322   -6.9576 C   0  0  0  0  0  0  0  0  0  0  0  0
    1.8463   11.3586   -6.7599 C   0  0  0  0  0  0  0  0  0  0  0  0
    0.9031   11.4530   -5.7375 C   0  0  0  0  0  0  0  0  0  0  0  0
    2.1017   12.5929   -7.3316 C   0  0  0  0  0  0  0  0  0  0  0  0
    1.3342   13.6309   -6.7602 C   0  0  0  0  0  0  0  0  0  0  0  0
    0.3012   13.0545   -5.4778 S   0  0  0  0  0  0  0  0  0  0  0  0
    3.1257   13.1825   -8.5762 S   0  0  0  0  0  0  0  0  0  0  0  0
    2.4993   14.8168   -8.3575 C   0  0  0  0  0  0  0  0  0  0  0  0
    1.5657   14.8722   -7.3280 C   0  0  0  0  0  0  0  0  0  0  0  0
    2.2066    4.7865   -7.3141 C   0  0  0  0  0  0  0  0  0  0  0  0
   -1.7774    4.0532    1.0692 C   0  0  0  0  0  0  0  0  0  0  0  0
   -1.5011    4.4029    2.3764 C   0  0  0  0  0  0  0  0  0  0  0  0
   -0.4119    5.2088    2.6841 C   0  0  0  0  0  0  0  0  0  0  0  0
    0.3994    5.6435    1.6454 C   0  0  0  0  0  0  0  0  0  0  0  0
    0.1287    5.2940    0.3344 C   0  0  0  0  0  0  0  0  0  0  0  0
   -3.3804    3.2250   -2.5230 C   0  0  0  0  0  0  0  0  0  0  0  0
   -4.7215    3.3543   -2.8348 C   0  0  0  0  0  0  0  0  0  0  0  0
   -5.4692    4.4219   -2.3566 C   0  0  0  0  0  0  0  0  0  0  0  0
   -4.8369    5.3623   -1.5535 C   0  0  0  0  0  0  0  0  0  0  0  0
   -3.4977    5.2389   -1.2364 C   0  0  0  0  0  0  0  0  0  0  0  0
    4.3427    6.6168   -6.2053 C   0  0  0  0  0  0  0  0  0  0  0  0
    5.6825    6.6520   -5.8686 C   0  0  0  0  0  0  0  0  0  0  0  0
    6.0877    6.6537   -4.5405 C   0  0  0  0  0  0  0  0  0  0  0  0
    5.1087    6.6248   -3.5570 C   0  0  0  0  0  0  0  0  0  0  0  0
    3.7680    6.5888   -3.8895 C   0  0  0  0  0  0  0  0  0  0  0  0
    0.5418    6.4539   -7.6969 C   0  0  0  0  0  0  0  0  0  0  0  0
    0.2100    5.8422   -8.8929 C   0  0  0  0  0  0  0  0  0  0  0  0
    0.8649    4.6954   -9.3155 C   0  0  0  0  0  0  0  0  0  0  0  0
    1.8644    4.1736   -8.5024 C   0  0  0  0  0  0  0  0  0  0  0  0
    3.8101    9.9523   -6.7780 C   0  0  0  0  0  0  0  0  0  0  0  0
    4.3963    9.7065   -5.5467 C   0  0  0  0  0  0  0  0  0  0  0  0
    5.7659    9.8267   -5.3865 C   0  0  0  0  0  0  0  0  0  0  0  0
    6.5792   10.2119   -6.4418 C   0  0  0  0  0  0  0  0  0  0  0  0
    5.9804   10.4920   -7.6650 C   0  0  0  0  0  0  0  0  0  0  0  0
    4.6165   10.3696   -7.8319 C   0  0  0  0  0  0  0  0  0  0  0  0
    1.8477    9.4181   -8.3165 C   0  0  0  0  0  0  0  0  0  0  0  0
    0.6402    9.8609   -8.8438 C   0  0  0  0  0  0  0  0  0  0  0  0
    0.2186    9.4393  -10.0889 C   0  0  0  0  0  0  0  0  0  0  0  0
    0.9849    8.5587  -10.8414 C   0  0  0  0  0  0  0  0  0  0  0  0
    2.1713    8.0904  -10.2953 C   0  0  0  0  0  0  0  0  0  0  0  0
    2.5955    8.5071   -9.0469 C   0  0  0  0  0  0  0  0  0  0  0  0
   -0.0908    5.5559    4.1089 C   0  0  0  0  0  0  0  0  0  0  0  0
    0.8279    4.4974    4.7228 C   0  0  0  0  0  0  0  0  0  0  0  0
   -6.9359    4.5301   -2.6587 C   0  0  0  0  0  0  0  0  0  0  0  0
   -7.7549    3.7887   -1.6000 C   0  0  0  0  0  0  0  0  0  0  0  0
    7.5450    6.6523   -4.1793 C   0  0  0  0  0  0  0  0  0  0  0  0
    8.1404    5.2515   -4.3293 C   0  0  0  0  0  0  0  0  0  0  0  0
    0.5199    4.0280  -10.6161 C   0  0  0  0  0  0  0  0  0  0  0  0
    1.6582    4.1546  -11.6291 C   0  0  0  0  0  0  0  0  0  0  0  0
    8.0693   10.3245   -6.2855 C   0  0  0  0  0  0  0  0  0  0  0  0
    8.8027    9.2791   -7.1272 C   0  0  0  0  0  0  0  0  0  0  0  0
    0.5614    8.1840  -12.2310 C   0  0  0  0  0  0  0  0  0  0  0  0
    1.0498    9.2364  -13.2297 C   0  0  0  0  0  0  0  0  0  0  0  0
   -0.3191   -1.1206   -0.2003 H   0  0  0  0  0  0  0  0  0  0  0  0
    2.1125   -3.3195   -5.6147 H   0  0  0  0  0  0  0  0  0  0  0  0
    2.4266   -5.6171   -1.1992 H   0  0  0  0  0  0  0  0  0  0  0  0
    2.7714   16.8941   -8.6280 H   0  0  0  0  0  0  0  0  0  0  0  0
    6.4378   13.6406  -12.6046 H   0  0  0  0  0  0  0  0  0  0  0  0
    7.1615   18.3849  -11.2463 H   0  0  0  0  0  0  0  0  0  0  0  0
   -1.5453    1.2165   -0.1734 H   0  0  0  0  0  0  0  0  0  0  0  0
    1.8387    3.7737   -4.7225 H   0  0  0  0  0  0  0  0  0  0  0  0
   -1.2693    6.8348   -2.2486 H   0  0  0  0  0  0  0  0  0  0  0  0
    1.0777   15.7834   -7.0337 H   0  0  0  0  0  0  0  0  0  0  0  0
    2.9914    4.3623   -6.7046 H   0  0  0  0  0  0  0  0  0  0  0  0
   -2.6352    3.4351    0.8470 H   0  0  0  0  0  0  0  0  0  0  0  0
   -2.1427    4.0484    3.1704 H   0  0  0  0  0  0  0  0  0  0  0  0
    1.2552    6.2668    1.8628 H   0  0  0  0  0  0  0  0  0  0  0  0
    0.7780    5.6431   -0.4552 H   0  0  0  0  0  0  0  0  0  0  0  0
   -2.8265    2.3858   -2.9165 H   0  0  0  0  0  0  0  0  0  0  0  0
   -5.1900    2.6119   -3.4641 H   0  0  0  0  0  0  0  0  0  0  0  0
   -5.3986    6.2034   -1.1724 H   0  0  0  0  0  0  0  0  0  0  0  0
   -3.0271    5.9781   -0.6038 H   0  0  0  0  0  0  0  0  0  0  0  0
    4.0546    6.6156   -7.2447 H   0  0  0  0  0  0  0  0  0  0  0  0
    6.4231    6.6871   -6.6546 H   0  0  0  0  0  0  0  0  0  0  0  0
    5.3973    6.6331   -2.5153 H   0  0  0  0  0  0  0  0  0  0  0  0
    3.0265    6.5727   -3.1032 H   0  0  0  0  0  0  0  0  0  0  0  0
    0.0011    7.3361   -7.3887 H   0  0  0  0  0  0  0  0  0  0  0  0
   -0.5771    6.2649   -9.5001 H   0  0  0  0  0  0  0  0  0  0  0  0
    2.3758    3.2690   -8.7986 H   0  0  0  0  0  0  0  0  0  0  0  0
    3.7866    9.4158   -4.7044 H   0  0  0  0  0  0  0  0  0  0  0  0
    6.2023    9.6229   -4.4197 H   0  0  0  0  0  0  0  0  0  0  0  0
    6.5871   10.8211   -8.4961 H   0  0  0  0  0  0  0  0  0  0  0  0
    4.1733   10.5987   -8.7902 H   0  0  0  0  0  0  0  0  0  0  0  0
    0.0237   10.5502   -8.2848 H   0  0  0  0  0  0  0  0  0  0  0  0
   -0.7153    9.8095  -10.4860 H   0  0  0  0  0  0  0  0  0  0  0  0
    2.7806    7.3939  -10.8528 H   0  0  0  0  0  0  0  0  0  0  0  0
    3.5275    8.1357   -8.6506 H   0  0  0  0  0  0  0  0  0  0  0  0
    0.4030    6.5288    4.1510 H   0  0  0  0  0  0  0  0  0  0  0  0
   -1.0119    5.6143    4.6922 H   0  0  0  0  0  0  0  0  0  0  0  0
    1.7588    4.4339    4.1636 H   0  0  0  0  0  0  0  0  0  0  0  0
    1.0591    4.7472    5.7555 H   0  0  0  0  0  0  0  0  0  0  0  0
    0.3488    3.5212    4.7003 H   0  0  0  0  0  0  0  0  0  0  0  0
   -7.2349    5.5802   -2.6749 H   0  0  0  0  0  0  0  0  0  0  0  0
   -7.1437    4.0994   -3.6401 H   0  0  0  0  0  0  0  0  0  0  0  0
   -7.5723    4.2123   -0.6148 H   0  0  0  0  0  0  0  0  0  0  0  0
   -8.8175    3.8639   -1.8190 H   0  0  0  0  0  0  0  0  0  0  0  0
   -7.4784    2.7370   -1.5769 H   0  0  0  0  0  0  0  0  0  0  0  0
    8.0862    7.3423   -4.8292 H   0  0  0  0  0  0  0  0  0  0  0  0
    7.6706    6.9880   -3.1479 H   0  0  0  0  0  0  0  0  0  0  0  0
    8.0361    4.9021   -5.3539 H   0  0  0  0  0  0  0  0  0  0  0  0
    9.1967    5.2580   -4.0708 H   0  0  0  0  0  0  0  0  0  0  0  0
    7.6271    4.5501   -3.6753 H   0  0  0  0  0  0  0  0  0  0  0  0
    0.3196    2.9685  -10.4374 H   0  0  0  0  0  0  0  0  0  0  0  0
   -0.3840    4.4787  -11.0296 H   0  0  0  0  0  0  0  0  0  0  0  0
    2.5616    3.6793  -11.2549 H   0  0  0  0  0  0  0  0  0  0  0  0
    1.3831    3.6816  -12.5689 H   0  0  0  0  0  0  0  0  0  0  0  0
    1.8785    5.2024  -11.8190 H   0  0  0  0  0  0  0  0  0  0  0  0
    8.3926   11.3205   -6.5995 H   0  0  0  0  0  0  0  0  0  0  0  0
    8.3374   10.1991   -5.2346 H   0  0  0  0  0  0  0  0  0  0  0  0
    8.5938    9.4201   -8.1846 H   0  0  0  0  0  0  0  0  0  0  0  0
    9.8767    9.3557   -6.9746 H   0  0  0  0  0  0  0  0  0  0  0  0
    8.4845    8.2764   -6.8507 H   0  0  0  0  0  0  0  0  0  0  0  0
    0.9747    7.2106  -12.5010 H   0  0  0  0  0  0  0  0  0  0  0  0
   -0.5278    8.1191  -12.2818 H   0  0  0  0  0  0  0  0  0  0  0  0
    2.1350    9.3079  -13.2075 H   0  0  0  0  0  0  0  0  0  0  0  0
    0.7393    8.9752  -14.2386 H   0  0  0  0  0  0  0  0  0  0  0  0
    0.6413   10.2136  -12.9815 H   0  0  0  0  0  0  0  0  0  0  0  0
  1112  1  0  0  0  0
  2  6  1  0  0  0  0
  2  1  1  1  0  0  0
  3  2  1  0  0  0  0
  4  3  1  0  0  0  0
  4  5  2  0  0  0  0
  5 16  1  0  0  0  0
  5  6  1  0  0  0  0
  6  7  2  0  0  0  0
  8 11  1  0  0  0  0
  8  3  2  0  0  0  0
  9  8  1  0  0  0  0
 10  9  3  0  0  0  0
 11 12  3  0  0  0  0
 13 14  2  0  0  0  0
 13  4  1  0  0  0  0
 14 15  1  0  0  0  0
 15 18  1  0  0  0  0
 15 16  2  0  0  0  0
 16114  1  0  0  0  0
 17 14  1  0  0  0  0
 19115  1  0  0  0  0
 19 66  1  0  0  0  0
 20 19  1  1  0  0  0
 21 20  1  0  0  0  0
 22 23  2  0  0  0  0
 22 21  1  0  0  0  0
 23 24  1  0  0  0  0
 24 20  1  0  0  0  0
 24 29  2  0  0  0  0
 25 22  1  0  0  0  0
 26 25  2  0  0  0  0
 26 27  1  0  0  0  0
 27 28  2  0  0  0  0
 28117  1  0  0  0  0
 28 23  1  0  0  0  0
 30 32  1  0  0  0  0
 30 21  2  0  0  0  0
 31 30  1  0  0  0  0
 32 33  3  0  0  0  0
 34 31  3  0  0  0  0
 35 27  1  0  0  0  0
 36 26  1  0  0  0  0
 37  1  1  0  0  0  0
 37 41  2  0  0  0  0
 38 39  1  0  0  0  0
 38 37  1  0  0  0  0
 39 40  2  0  0  0  0
 40 44  1  0  0  0  0
 40 41  1  0  0  0  0
 41118  1  0  0  0  0
 42 39  1  0  0  0  0
 42 43  2  0  0  0  0
 43 44  1  0  0  0  0
 44 46  1  0  0  0  0
 45 44  1  0  0  0  0
 45 78  2  0  0  0  0
 46 73  2  0  0  0  0
 46 69  1  0  0  0  0
 47 42  1  0  0  0  0
 48 47  2  0  0  0  0
 48 49  1  0  0  0  0
 49 50  2  0  0  0  0
 50 43  1  0  0  0  0
 50120  1  0  0  0  0
 51 52  1  0  0  0  0
 51 54  1  0  0  0  0
 51 48  1  0  0  0  0
 52 53  2  0  0  0  0
 53 58  1  0  0  0  0
 53 49  1  0  0  0  0
 54 83  2  0  0  0  0
 55 51  1  0  0  0  0
 56 52  1  0  0  0  0
 56 57  2  0  0  0  0
 57 58  1  0  0  0  0
 59 88  1  0  0  0  0
 59 60  1  0  0  0  0
 59 56  1  0  0  0  0
 60 61  2  0  0  0  0
 61 64  1  0  0  0  0
 61 57  1  0  0  0  0
 62 63  2  0  0  0  0
 62 60  1  0  0  0  0
 63 64  1  0  0  0  0
 65 66  1  0  0  0  0
 65 62  1  0  0  0  0
 66 67  2  0  0  0  0
 67121  1  0  0  0  0
 67 63  1  0  0  0  0
 68 55  1  0  0  0  0
 68122  1  0  0  0  0
 69 70  2  0  0  0  0
 70 71  1  0  0  0  0
 70124  1  0  0  0  0
 71100  1  0  0  0  0
 72125  1  0  0  0  0
 72 71  2  0  0  0  0
 73 72  1  0  0  0  0
 74 45  1  0  0  0  0
 75 74  2  0  0  0  0
 75 76  1  0  0  0  0
 76 77  2  0  0  0  0
 77 78  1  0  0  0  0
 77129  1  0  0  0  0
 78130  1  0  0  0  0
 79 80  2  0  0  0  0
 79 54  1  0  0  0  0
 80 81  1  0  0  0  0
 81104  1  0  0  0  0
 81 82  2  0  0  0  0
 82133  1  0  0  0  0
 83 82  1  0  0  0  0
 83134  1  0  0  0  0
 84135  1  0  0  0  0
 84 55  2  0  0  0  0
 85 84  1  0  0  0  0
 86 85  2  0  0  0  0
 86 87  1  0  0  0  0
 87 68  2  0  0  0  0
 88 89  2  0  0  0  0
 89 90  1  0  0  0  0
 89138  1  0  0  0  0
 90139  1  0  0  0  0
 91108  1  0  0  0  0
 91 90  2  0  0  0  0
 92 91  1  0  0  0  0
 93 92  2  0  0  0  0
 93 88  1  0  0  0  0
 94 59  1  0  0  0  0
 95 94  1  0  0  0  0
 95142  1  0  0  0  0
 96 95  2  0  0  0  0
 97 98  2  0  0  0  0
 97 96  1  0  0  0  0
 98 99  1  0  0  0  0
 99145  1  0  0  0  0
 99 94  2  0  0  0  0
100146  1  0  0  0  0
100147  1  0  0  0  0
100101  1  0  0  0  0
101149  1  0  0  0  0
102 76  1  0  0  0  0
102103  1  0  0  0  0
103155  1  0  0  0  0
103153  1  0  0  0  0
104157  1  0  0  0  0
105104  1  0  0  0  0
105159  1  0  0  0  0
105160  1  0  0  0  0
106161  1  0  0  0  0
106 86  1  0  0  0  0
107163  1  0  0  0  0
107106  1  0  0  0  0
108167  1  0  0  0  0
109169  1  0  0  0  0
109170  1  0  0  0  0
109108  1  0  0  0  0
110 97  1  0  0  0  0
111173  1  0  0  0  0
111175  1  0  0  0  0
111110  1  0  0  0  0
113 13  1  0  0  0  0
116 25  1  0  0  0  0
119 47  1  0  0  0  0
123 69  1  0  0  0  0
126 73  1  0  0  0  0
127 74  1  0  0  0  0
128 75  1  0  0  0  0
131 79  1  0  0  0  0
132 80  1  0  0  0  0
136 85  1  0  0  0  0
137 87  1  0  0  0  0
140 92  1  0  0  0  0
141 93  1  0  0  0  0
143 96  1  0  0  0  0
144 98  1  0  0  0  0
148101  1  0  0  0  0
150101  1  0  0  0  0
151102  1  0  0  0  0
152102  1  0  0  0  0
154103  1  0  0  0  0
156104  1  0  0  0  0
158105  1  0  0  0  0
162106  1  0  0  0  0
164107  1  0  0  0  0
165107  1  0  0  0  0
166108  1  0  0  0  0
168109  1  0  0  0  0
171110  1  0  0  0  0
172110  1  0  0  0  0
174111  1  0  0  0  0
M  RAD  4   1   2   2   2  19   2  20   2
M  END
