SCF done       -285.453560016621          0.000921014045
 OpenBabel12282109493D

169188  0  0  1  0  0  0  0  0999 V2000
    0.9328   -0.7916   -1.3781 C   0  0  0  0  0  0  0  0  0  0  0  0
    0.9292   -1.8608   -0.5039 C   0  0  0  0  0  0  0  0  0  0  0  0
    2.0472   -2.7324   -0.2298 C   0  0  0  0  0  0  0  0  0  0  0  0
    1.5858   -3.7535    0.7148 C   0  0  0  0  0  0  0  0  0  0  0  0
    0.2382   -3.5046    1.0244 C   0  0  0  0  0  0  0  0  0  0  0  0
   -0.2186   -2.3110    0.2812 C   0  0  0  0  0  0  0  0  0  0  0  0
    2.2352   -4.8332    1.2906 C   0  0  0  0  0  0  0  0  0  0  0  0
    1.5157   -5.6364    2.1645 C   0  0  0  0  0  0  0  0  0  0  0  0
    0.1795   -5.3788    2.4666 C   0  0  0  0  0  0  0  0  0  0  0  0
   -0.4780   -4.3010    1.8943 C   0  0  0  0  0  0  0  0  0  0  0  0
   -1.3334   -1.8210    0.3286 O   0  0  0  0  0  0  0  0  0  0  0  0
    3.3236   -2.6466   -0.7308 C   0  0  0  0  0  0  0  0  0  0  0  0
    4.3621   -3.5430   -0.4041 C   0  0  0  0  0  0  0  0  0  0  0  0
    3.7933   -1.6661   -1.6277 C   0  0  0  0  0  0  0  0  0  0  0  0
    4.2601   -0.9034   -2.3499 N   0  0  0  0  0  0  0  0  0  0  0  0
    5.2508   -4.2346   -0.1811 N   0  0  0  0  0  0  0  0  0  0  0  0
   -0.4761   -6.1804    3.3162 F   0  0  0  0  0  0  0  0  0  0  0  0
    2.1260   -6.6855    2.7288 F   0  0  0  0  0  0  0  0  0  0  0  0
   -6.4131   11.4133   -5.2099 C   0  0  0  0  0  0  0  0  0  0  0  0
   -7.1652    9.8510   -5.3922 S   0  0  0  0  0  0  0  0  0  0  0  0
   -5.7379    9.1065   -4.7460 C   0  0  0  0  0  0  0  0  0  0  0  0
   -4.7315   10.0155   -4.4068 C   0  0  0  0  0  0  0  0  0  0  0  0
   -5.1029   11.3197   -4.6771 C   0  0  0  0  0  0  0  0  0  0  0  0
   -5.3286    7.7844   -4.4799 C   0  0  0  0  0  0  0  0  0  0  0  0
   -3.9980    7.8520   -3.9536 C   0  0  0  0  0  0  0  0  0  0  0  0
   -3.5242    9.2939   -3.8797 C   0  0  0  0  0  0  0  0  0  0  0  0
   -3.1888    9.6338   -2.4384 C   0  0  0  0  0  0  0  0  0  0  0  0
   -2.3552    9.5951   -4.8032 C   0  0  0  0  0  0  0  0  0  0  0  0
   -5.9578    6.5477   -4.7314 C   0  0  0  0  0  0  0  0  0  0  0  0
   -5.3063    5.4408   -4.2985 C   0  0  2  0  0  0  0  0  0  0  0  0
   -3.9709    5.4911   -3.6975 C   0  0  2  0  0  0  0  0  0  0  0  0
   -3.2918    6.7454   -3.5998 C   0  0  0  0  0  0  0  0  0  0  0  0
   -5.2396    3.9657   -4.6844 C   0  0  1  0  0  0  0  0  0  0  0  0
   -3.8110    4.0148   -4.1359 C   0  0  2  0  0  0  0  0  0  0  0  0
   -3.6487    4.3888   -2.6551 C   0  0  1  0  0  0  0  0  0  0  0  0
   -6.1701    2.9979   -4.0113 C   0  0  0  0  0  0  0  0  0  0  0  0
   -5.2682    3.8453   -6.1955 C   0  0  0  0  0  0  0  0  0  0  0  0
   -2.7538    3.3471   -3.3247 C   0  0  1  0  0  0  0  0  0  0  0  0
   -3.1503    2.3269   -2.3335 C   0  0  2  0  0  0  0  0  0  0  0  0
   -4.4027    3.1843   -1.5030 S   0  0  0  0  0  0  0  0  0  0  0  0
   -1.2887    3.1158   -3.7242 C   0  0  0  0  0  0  0  0  0  0  0  0
   -0.9668    1.9116   -2.8660 C   0  0  0  0  0  0  0  0  0  0  0  0
   -2.0745    1.5002   -2.0738 C   0  0  0  0  0  0  0  0  0  0  0  0
    0.1352    1.1328   -2.6624 C   0  0  0  0  0  0  0  0  0  0  0  0
   -0.0795    0.1023   -1.7197 C   0  0  0  0  0  0  0  0  0  0  0  0
   -1.7167    0.1430   -1.0762 S   0  0  0  0  0  0  0  0  0  0  0  0
   -6.3710    3.3178   -6.8535 C   0  0  0  0  0  0  0  0  0  0  0  0
   -2.0194    8.7561   -5.8556 C   0  0  0  0  0  0  0  0  0  0  0  0
   -0.9678    9.0769   -6.6960 C   0  0  0  0  0  0  0  0  0  0  0  0
   -0.2362   10.2427   -6.5148 C   0  0  0  0  0  0  0  0  0  0  0  0
   -0.5949   11.0911   -5.4743 C   0  0  0  0  0  0  0  0  0  0  0  0
   -1.6415   10.7749   -4.6302 C   0  0  0  0  0  0  0  0  0  0  0  0
   -1.9489    9.2793   -1.9212 C   0  0  0  0  0  0  0  0  0  0  0  0
   -1.6287    9.5674   -0.6092 C   0  0  0  0  0  0  0  0  0  0  0  0
   -2.5329   10.2179    0.2210 C   0  0  0  0  0  0  0  0  0  0  0  0
   -3.7759   10.5544   -0.2963 C   0  0  0  0  0  0  0  0  0  0  0  0
   -4.1043   10.2629   -1.6079 C   0  0  0  0  0  0  0  0  0  0  0  0
   -7.2525    3.4471   -3.2669 C   0  0  0  0  0  0  0  0  0  0  0  0
   -8.0880    2.5417   -2.6367 C   0  0  0  0  0  0  0  0  0  0  0  0
   -7.8474    1.1829   -2.7407 C   0  0  0  0  0  0  0  0  0  0  0  0
   -6.7723    0.7290   -3.4869 C   0  0  0  0  0  0  0  0  0  0  0  0
   -5.9413    1.6309   -4.1236 C   0  0  0  0  0  0  0  0  0  0  0  0
   -4.1852    4.2815   -6.9496 C   0  0  0  0  0  0  0  0  0  0  0  0
   -4.1874    4.1497   -8.3240 C   0  0  0  0  0  0  0  0  0  0  0  0
   -5.2732    3.5906   -8.9849 C   0  0  0  0  0  0  0  0  0  0  0  0
   -6.3678    3.1892   -8.2300 C   0  0  0  0  0  0  0  0  0  0  0  0
   -0.4944    4.3681   -3.4187 C   0  0  0  0  0  0  0  0  0  0  0  0
    0.1254    4.5572   -2.1919 C   0  0  0  0  0  0  0  0  0  0  0  0
    0.8002    5.7349   -1.9234 C   0  0  0  0  0  0  0  0  0  0  0  0
    0.8691    6.7528   -2.8659 C   0  0  0  0  0  0  0  0  0  0  0  0
    0.2343    6.5647   -4.0876 C   0  0  0  0  0  0  0  0  0  0  0  0
   -0.4462    5.3926   -4.3578 C   0  0  0  0  0  0  0  0  0  0  0  0
   -1.1211    2.6632   -5.1666 C   0  0  0  0  0  0  0  0  0  0  0  0
   -2.1516    2.0461   -5.8601 C   0  0  0  0  0  0  0  0  0  0  0  0
   -1.9668    1.6081   -7.1589 C   0  0  0  0  0  0  0  0  0  0  0  0
   -0.7392    1.7456   -7.7896 C   0  0  0  0  0  0  0  0  0  0  0  0
    0.3038    2.3265   -7.0775 C   0  0  0  0  0  0  0  0  0  0  0  0
    0.1197    2.7758   -5.7847 C   0  0  0  0  0  0  0  0  0  0  0  0
    0.8761   10.6087   -7.4538 C   0  0  0  0  0  0  0  0  0  0  0  0
    0.3395   11.4612   -8.6056 C   0  0  0  0  0  0  0  0  0  0  0  0
   -2.1912   10.5057    1.6540 C   0  0  0  0  0  0  0  0  0  0  0  0
   -2.5848    9.3260    2.5454 C   0  0  0  0  0  0  0  0  0  0  0  0
   -5.2449    3.3705  -10.4693 C   0  0  0  0  0  0  0  0  0  0  0  0
   -4.7782    1.9471  -10.7832 C   0  0  0  0  0  0  0  0  0  0  0  0
    1.6516    8.0055   -2.5978 C   0  0  0  0  0  0  0  0  0  0  0  0
    3.1095    7.8204   -3.0234 C   0  0  0  0  0  0  0  0  0  0  0  0
   -0.5430    1.3110   -9.2131 C   0  0  0  0  0  0  0  0  0  0  0  0
   -0.6595    2.5057  -10.1616 C   0  0  0  0  0  0  0  0  0  0  0  0
   -5.8285   15.0439   -5.2109 C   0  0  0  0  0  0  0  0  0  0  0  0
   -6.7849   15.9709   -5.5568 C   0  0  0  0  0  0  0  0  0  0  0  0
   -6.5328   17.3994   -5.5839 C   0  0  0  0  0  0  0  0  0  0  0  0
   -7.8150   18.0756   -5.7830 C   0  0  0  0  0  0  0  0  0  0  0  0
   -8.8101   17.1022   -5.9588 C   0  0  0  0  0  0  0  0  0  0  0  0
   -8.2125   15.7512   -5.8573 C   0  0  0  0  0  0  0  0  0  0  0  0
   -8.8202   14.7092   -5.9942 O   0  0  0  0  0  0  0  0  0  0  0  0
   -5.3208   18.0376   -5.5043 C   0  0  0  0  0  0  0  0  0  0  0  0
   -5.1640   19.4394   -5.5471 C   0  0  0  0  0  0  0  0  0  0  0  0
   -4.9628   20.5693   -5.5706 N   0  0  0  0  0  0  0  0  0  0  0  0
   -4.0552   17.4209   -5.4081 C   0  0  0  0  0  0  0  0  0  0  0  0
   -2.9819   17.0152   -5.3502 N   0  0  0  0  0  0  0  0  0  0  0  0
   -8.1516   19.4196   -5.8218 C   0  0  0  0  0  0  0  0  0  0  0  0
   -9.4805   19.7520   -6.0409 C   0  0  0  0  0  0  0  0  0  0  0  0
  -10.4607   18.7767   -6.2224 C   0  0  0  0  0  0  0  0  0  0  0  0
  -10.1320   17.4313   -6.1822 C   0  0  0  0  0  0  0  0  0  0  0  0
   -9.8262   21.0445   -6.0766 F   0  0  0  0  0  0  0  0  0  0  0  0
  -11.7311   19.1434   -6.4348 F   0  0  0  0  0  0  0  0  0  0  0  0
   -4.3943   12.8755   -4.5067 S   0  0  0  0  0  0  0  0  0  0  0  0
   -5.8645   13.6459   -5.1331 C   0  0  0  0  0  0  0  0  0  0  0  0
   -6.8351   12.7035   -5.4631 C   0  0  0  0  0  0  0  0  0  0  0  0
    1.8611   -0.6024   -1.9026 H   0  0  0  0  0  0  0  0  0  0  0  0
    3.2655   -5.0778    1.0919 H   0  0  0  0  0  0  0  0  0  0  0  0
   -1.5117   -4.0974    2.1238 H   0  0  0  0  0  0  0  0  0  0  0  0
   -6.8973    6.5053   -5.2618 H   0  0  0  0  0  0  0  0  0  0  0  0
   -2.2949    6.7975   -3.1960 H   0  0  0  0  0  0  0  0  0  0  0  0
    1.0890    1.2703   -3.1403 H   0  0  0  0  0  0  0  0  0  0  0  0
   -7.2334    2.9962   -6.2881 H   0  0  0  0  0  0  0  0  0  0  0  0
   -2.5753    7.8447   -6.0206 H   0  0  0  0  0  0  0  0  0  0  0  0
   -0.7126    8.4074   -7.5056 H   0  0  0  0  0  0  0  0  0  0  0  0
   -0.0489   12.0106   -5.3227 H   0  0  0  0  0  0  0  0  0  0  0  0
   -1.9036   11.4458   -3.8252 H   0  0  0  0  0  0  0  0  0  0  0  0
   -1.2242    8.7885   -2.5532 H   0  0  0  0  0  0  0  0  0  0  0  0
   -0.6574    9.2896   -0.2261 H   0  0  0  0  0  0  0  0  0  0  0  0
   -4.4974   11.0563    0.3323 H   0  0  0  0  0  0  0  0  0  0  0  0
   -5.0803   10.5351   -1.9824 H   0  0  0  0  0  0  0  0  0  0  0  0
   -7.4345    4.5084   -3.1768 H   0  0  0  0  0  0  0  0  0  0  0  0
   -8.9268    2.9009   -2.0594 H   0  0  0  0  0  0  0  0  0  0  0  0
   -8.4957    0.4780   -2.2426 H   0  0  0  0  0  0  0  0  0  0  0  0
   -6.5800   -0.3301   -3.5730 H   0  0  0  0  0  0  0  0  0  0  0  0
   -5.1087    1.2725   -4.7127 H   0  0  0  0  0  0  0  0  0  0  0  0
   -3.3263    4.7140   -6.4572 H   0  0  0  0  0  0  0  0  0  0  0  0
   -3.3296    4.4851   -8.8893 H   0  0  0  0  0  0  0  0  0  0  0  0
   -7.2303    2.7670   -8.7253 H   0  0  0  0  0  0  0  0  0  0  0  0
    0.0850    3.7801   -1.4429 H   0  0  0  0  0  0  0  0  0  0  0  0
    1.2808    5.8635   -0.9643 H   0  0  0  0  0  0  0  0  0  0  0  0
    0.2620    7.3491   -4.8308 H   0  0  0  0  0  0  0  0  0  0  0  0
   -0.9418    5.2708   -5.3100 H   0  0  0  0  0  0  0  0  0  0  0  0
   -3.1121    1.9026   -5.3921 H   0  0  0  0  0  0  0  0  0  0  0  0
   -2.7928    1.1486   -7.6827 H   0  0  0  0  0  0  0  0  0  0  0  0
    1.2754    2.4238   -7.5401 H   0  0  0  0  0  0  0  0  0  0  0  0
    0.9459    3.2217   -5.2507 H   0  0  0  0  0  0  0  0  0  0  0  0
    1.6428   11.1717   -6.9180 H   0  0  0  0  0  0  0  0  0  0  0  0
    1.3346    9.7039   -7.8582 H   0  0  0  0  0  0  0  0  0  0  0  0
   -0.1085   12.3751   -8.2227 H   0  0  0  0  0  0  0  0  0  0  0  0
    1.1432   11.7274   -9.2878 H   0  0  0  0  0  0  0  0  0  0  0  0
   -0.4202   10.9140   -9.1596 H   0  0  0  0  0  0  0  0  0  0  0  0
   -1.1186   10.6863    1.7490 H   0  0  0  0  0  0  0  0  0  0  0  0
   -2.7193   11.4008    1.9879 H   0  0  0  0  0  0  0  0  0  0  0  0
   -2.0640    8.4241    2.2317 H   0  0  0  0  0  0  0  0  0  0  0  0
   -2.3306    9.5322    3.5823 H   0  0  0  0  0  0  0  0  0  0  0  0
   -3.6548    9.1423    2.4795 H   0  0  0  0  0  0  0  0  0  0  0  0
   -6.2424    3.5212  -10.8867 H   0  0  0  0  0  0  0  0  0  0  0  0
   -4.5659    4.0850  -10.9386 H   0  0  0  0  0  0  0  0  0  0  0  0
   -5.4545    1.2203  -10.3386 H   0  0  0  0  0  0  0  0  0  0  0  0
   -4.7505    1.7838  -11.8578 H   0  0  0  0  0  0  0  0  0  0  0  0
   -3.7819    1.7782  -10.3810 H   0  0  0  0  0  0  0  0  0  0  0  0
    1.2205    8.8410   -3.1545 H   0  0  0  0  0  0  0  0  0  0  0  0
    1.6165    8.2457   -1.5334 H   0  0  0  0  0  0  0  0  0  0  0  0
    3.1662    7.5924   -4.0854 H   0  0  0  0  0  0  0  0  0  0  0  0
    3.6785    8.7268   -2.8318 H   0  0  0  0  0  0  0  0  0  0  0  0
    3.5648    7.0007   -2.4721 H   0  0  0  0  0  0  0  0  0  0  0  0
    0.4441    0.8583   -9.3277 H   0  0  0  0  0  0  0  0  0  0  0  0
   -1.2934    0.5636   -9.4783 H   0  0  0  0  0  0  0  0  0  0  0  0
    0.0971    3.2513   -9.9279 H   0  0  0  0  0  0  0  0  0  0  0  0
   -0.5262    2.1869  -11.1927 H   0  0  0  0  0  0  0  0  0  0  0  0
   -1.6385    2.9700  -10.0653 H   0  0  0  0  0  0  0  0  0  0  0  0
   -4.8682   15.4526   -4.9189 H   0  0  0  0  0  0  0  0  0  0  0  0
   -7.4352   20.2128   -5.6861 H   0  0  0  0  0  0  0  0  0  0  0  0
  -10.8855   16.6724   -6.3196 H   0  0  0  0  0  0  0  0  0  0  0  0
   -7.7957   12.9749   -5.8597 H   0  0  0  0  0  0  0  0  0  0  0  0
  1  2  2  0  0  0  0
  2  3  1  0  0  0  0
  2  6  1  0  0  0  0
  3  4  1  0  0  0  0
  4  5  2  0  0  0  0
  4  7  1  0  0  0  0
  5 10  1  0  0  0  0
  6 11  2  0  0  0  0
  6  5  1  0  0  0  0
  7  8  2  0  0  0  0
  8  9  1  0  0  0  0
  8 18  1  0  0  0  0
  9 17  1  0  0  0  0
 10112  1  0  0  0  0
 10  9  2  0  0  0  0
 12 13  1  0  0  0  0
 12  3  2  0  0  0  0
 13 16  3  0  0  0  0
 14 12  1  0  0  0  0
 15 14  3  0  0  0  0
 19 23  2  0  0  0  0
 20 19  1  0  0  0  0
 20 21  1  0  0  0  0
 21 24  1  0  0  0  0
 21 22  2  0  0  0  0
 22 26  1  0  0  0  0
 23107  1  0  0  0  0
 23 22  1  0  0  0  0
 24 25  1  0  0  0  0
 25 26  1  0  0  0  0
 25 32  2  0  0  0  0
 26 27  1  0  0  0  0
 27 53  2  0  0  0  0
 27 57  1  0  0  0  0
 28 52  1  0  0  0  0
 28 26  1  0  0  0  0
 29 24  2  0  0  0  0
 29 30  1  0  0  0  0
 30 33  1  6  0  0  0
 30 31  1  0  0  0  0
 31 34  1  6  0  0  0
 31 32  1  0  0  0  0
 31 35  1  0  0  0  0
 32114  1  0  0  0  0
 33 34  1  1  0  0  0
 33 36  1  0  0  0  0
 34 38  1  6  0  0  0
 35 34  1  6  0  0  0
 35 40  1  0  0  0  0
 36 58  1  0  0  0  0
 37 33  1  0  0  0  0
 38 35  1  1  0  0  0
 39 38  1  1  0  0  0
 39 43  1  0  0  0  0
 39 40  1  0  0  0  0
 41 67  1  0  0  0  0
 41 38  1  0  0  0  0
 41 42  1  0  0  0  0
 42 44  1  0  0  0  0
 42 43  2  0  0  0  0
 43 46  1  0  0  0  0
 44 45  2  0  0  0  0
 45  1  1  0  0  0  0
 45 46  1  0  0  0  0
 47116  1  0  0  0  0
 47 37  1  0  0  0  0
 48 28  2  0  0  0  0
 49 50  2  0  0  0  0
 49 48  1  0  0  0  0
 50 51  1  0  0  0  0
 51119  1  0  0  0  0
 51 52  2  0  0  0  0
 52120  1  0  0  0  0
 53 54  1  0  0  0  0
 54122  1  0  0  0  0
 54 55  2  0  0  0  0
 55 81  1  0  0  0  0
 56 55  1  0  0  0  0
 56123  1  0  0  0  0
 57 56  2  0  0  0  0
 58125  1  0  0  0  0
 58 59  2  0  0  0  0
 59126  1  0  0  0  0
 60 59  1  0  0  0  0
 60127  1  0  0  0  0
 61 60  2  0  0  0  0
 62 36  2  0  0  0  0
 62 61  1  0  0  0  0
 63130  1  0  0  0  0
 63 37  2  0  0  0  0
 64 63  1  0  0  0  0
 65 64  2  0  0  0  0
 65 66  1  0  0  0  0
 66 47  2  0  0  0  0
 67 68  2  0  0  0  0
 68 69  1  0  0  0  0
 68133  1  0  0  0  0
 69134  1  0  0  0  0
 70 85  1  0  0  0  0
 70 69  2  0  0  0  0
 71 70  1  0  0  0  0
 72 71  2  0  0  0  0
 72 67  1  0  0  0  0
 73 41  1  0  0  0  0
 74137  1  0  0  0  0
 74 73  2  0  0  0  0
 75 74  1  0  0  0  0
 76 75  2  0  0  0  0
 76 77  1  0  0  0  0
 77 78  2  0  0  0  0
 78140  1  0  0  0  0
 78 73  1  0  0  0  0
 79141  1  0  0  0  0
 79 50  1  0  0  0  0
 80143  1  0  0  0  0
 80 79  1  0  0  0  0
 81146  1  0  0  0  0
 81147  1  0  0  0  0
 81 82  1  0  0  0  0
 82149  1  0  0  0  0
 83 65  1  0  0  0  0
 84 83  1  0  0  0  0
 84155  1  0  0  0  0
 84153  1  0  0  0  0
 85157  1  0  0  0  0
 86159  1  0  0  0  0
 86 85  1  0  0  0  0
 86160  1  0  0  0  0
 87 76  1  0  0  0  0
 88165  1  0  0  0  0
 88163  1  0  0  0  0
 88 87  1  0  0  0  0
 89108  1  0  0  0  0
 89166  1  0  0  0  0
 90 89  2  0  0  0  0
 91 90  1  0  0  0  0
 91 96  2  0  0  0  0
 92 91  1  0  0  0  0
 93 94  1  0  0  0  0
 93 92  2  0  0  0  0
 94 90  1  0  0  0  0
 95 94  2  0  0  0  0
 96 99  1  0  0  0  0
 97 96  1  0  0  0  0
 98 97  3  0  0  0  0
 99100  3  0  0  0  0
101 92  1  0  0  0  0
101167  1  0  0  0  0
102101  2  0  0  0  0
103104  2  0  0  0  0
103102  1  0  0  0  0
104 93  1  0  0  0  0
105102  1  0  0  0  0
106103  1  0  0  0  0
108107  1  0  0  0  0
109 19  1  0  0  0  0
109108  2  0  0  0  0
110  1  1  0  0  0  0
111  7  1  0  0  0  0
113 29  1  0  0  0  0
115 44  1  0  0  0  0
117 48  1  0  0  0  0
118 49  1  0  0  0  0
121 53  1  0  0  0  0
124 57  1  0  0  0  0
128 61  1  0  0  0  0
129 62  1  0  0  0  0
131 64  1  0  0  0  0
132 66  1  0  0  0  0
135 71  1  0  0  0  0
136 72  1  0  0  0  0
138 75  1  0  0  0  0
139 77  1  0  0  0  0
142 79  1  0  0  0  0
144 80  1  0  0  0  0
145 80  1  0  0  0  0
148 82  1  0  0  0  0
150 82  1  0  0  0  0
151 83  1  0  0  0  0
152 83  1  0  0  0  0
154 84  1  0  0  0  0
156 85  1  0  0  0  0
158 86  1  0  0  0  0
161 87  1  0  0  0  0
162 87  1  0  0  0  0
164 88  1  0  0  0  0
168104  1  0  0  0  0
169109  1  0  0  0  0
M  RAD  2  30   2  39   2
M  END
