SCF done       -261.764419242361          0.000585844056
 OpenBabel12282109493D

148162  0  0  1  0  0  0  0  0999 V2000
    0.7566   -0.5403    1.4417 C   0  0  0  0  0  0  0  0  0  0  0  0
    2.0056   -1.0883    1.5396 C   0  0  2  0  0  0  0  0  0  0  0  0
    2.8791   -1.7152    0.5721 C   0  0  0  0  0  0  0  0  0  0  0  0
    3.9337   -2.3959    1.3259 C   0  0  0  0  0  0  0  0  0  0  0  0
    3.8449   -2.0181    2.6774 C   0  0  0  0  0  0  0  0  0  0  0  0
    2.6813   -1.1214    2.8602 C   0  0  0  0  0  0  0  0  0  0  0  0
    2.3273   -0.5638    3.8735 O   0  0  0  0  0  0  0  0  0  0  0  0
    2.9194   -1.5016   -0.7828 C   0  0  0  0  0  0  0  0  0  0  0  0
    3.9370   -1.9981   -1.6249 C   0  0  0  0  0  0  0  0  0  0  0  0
    4.7496   -2.3529   -2.3540 N   0  0  0  0  0  0  0  0  0  0  0  0
    2.0586   -0.6482   -1.5018 C   0  0  0  0  0  0  0  0  0  0  0  0
    1.4479    0.0714   -2.1558 N   0  0  0  0  0  0  0  0  0  0  0  0
    4.9281   -3.2676    0.9173 C   0  0  0  0  0  0  0  0  0  0  0  0
    5.8290   -3.7405    1.8656 C   0  0  0  0  0  0  0  0  0  0  0  0
    5.7454   -3.3459    3.2049 C   0  0  0  0  0  0  0  0  0  0  0  0
    4.7419   -2.4781    3.6191 C   0  0  0  0  0  0  0  0  0  0  0  0
   -0.1795   -0.7322    0.4098 C   0  0  0  0  0  0  0  0  0  0  0  0
   -0.2798   -1.8033   -0.4719 C   0  0  0  0  0  0  0  0  0  0  0  0
   -1.2891   -1.6241   -1.3990 C   0  0  0  0  0  0  0  0  0  0  0  0
   -1.9563   -0.4118   -1.2553 C   0  0  0  0  0  0  0  0  0  0  0  0
   -1.4095    0.4827    0.0938 S   0  0  0  0  0  0  0  0  0  0  0  0
   -1.7419   -2.3229   -2.6577 C   0  0  0  0  0  0  0  0  0  0  0  0
   -2.6956   -1.2823   -3.2268 C   0  0  0  0  0  0  0  0  0  0  0  0
   -2.8439   -0.2052   -2.3556 C   0  0  0  0  0  0  0  0  0  0  0  0
   -0.4690   -2.5570   -3.4449 C   0  0  0  0  0  0  0  0  0  0  0  0
   -2.5495   -3.5767   -2.3561 C   0  0  0  0  0  0  0  0  0  0  0  0
    0.3837   -3.5901   -3.0607 C   0  0  0  0  0  0  0  0  0  0  0  0
    1.6223   -3.7344   -3.6411 C   0  0  0  0  0  0  0  0  0  0  0  0
    2.0598   -2.8313   -4.6136 C   0  0  0  0  0  0  0  0  0  0  0  0
    1.2080   -1.8042   -5.0050 C   0  0  0  0  0  0  0  0  0  0  0  0
   -0.0388   -1.6702   -4.4176 C   0  0  0  0  0  0  0  0  0  0  0  0
   -3.4725   -3.5502   -1.3136 C   0  0  0  0  0  0  0  0  0  0  0  0
   -4.2519   -4.6480   -1.0290 C   0  0  0  0  0  0  0  0  0  0  0  0
   -4.1399   -5.8153   -1.7878 C   0  0  0  0  0  0  0  0  0  0  0  0
   -3.2275   -5.8444   -2.8360 C   0  0  0  0  0  0  0  0  0  0  0  0
   -2.4472   -4.7333   -3.1117 C   0  0  0  0  0  0  0  0  0  0  0  0
    3.3045   -3.0445   -5.0956 O   0  0  0  0  0  0  0  0  0  0  0  0
    3.9313   -2.0335   -5.8619 C   0  0  0  0  0  0  0  0  0  0  0  0
    5.4062   -2.3881   -5.9578 C   0  0  0  0  0  0  0  0  0  0  0  0
   -4.9514   -6.8390   -1.4238 O   0  0  0  0  0  0  0  0  0  0  0  0
   -4.8957   -8.0541   -2.1461 C   0  0  0  0  0  0  0  0  0  0  0  0
   -5.8980   -9.0092   -1.5178 C   0  0  0  0  0  0  0  0  0  0  0  0
   -3.3942   -1.3092   -4.4505 C   0  0  0  0  0  0  0  0  0  0  0  0
   -4.2633   -0.2039   -4.7444 C   0  0  0  0  0  0  0  0  0  0  0  0
   -4.4091    0.8546   -3.8052 C   0  0  0  0  0  0  0  0  0  0  0  0
   -3.7133    0.8692   -2.6378 C   0  0  0  0  0  0  0  0  0  0  0  0
   -3.2507   -2.3252   -5.3962 C   0  0  0  0  0  0  0  0  0  0  0  0
   -3.9081   -2.2881   -6.6187 C   0  0  0  0  0  0  0  0  0  0  0  0
   -4.7636   -1.1739   -6.9199 C   0  0  0  0  0  0  0  0  0  0  0  0
   -4.9313   -0.1730   -5.9618 C   0  0  0  0  0  0  0  0  0  0  0  0
   -3.7302   -3.3276   -7.5745 C   0  0  0  0  0  0  0  0  0  0  0  0
   -4.3325   -3.2842   -8.7914 C   0  0  0  0  0  0  0  0  0  0  0  0
   -5.1476   -2.1745   -9.1029 C   0  0  0  0  0  0  0  0  0  0  0  0
   -5.3769   -1.1488   -8.1901 C   0  0  0  0  0  0  0  0  0  0  0  0
   -5.8235   -1.8474  -10.3173 C   0  0  0  0  0  0  0  0  0  0  0  0
   -6.4578   -0.6079  -10.1886 C   0  0  0  0  0  0  0  0  0  0  0  0
   -6.2503   -0.0581   -8.7949 C   0  0  0  0  0  0  0  0  0  0  0  0
   -7.6129    0.0827   -8.1440 C   0  0  0  0  0  0  0  0  0  0  0  0
   -8.0433   -0.7665   -7.1316 C   0  0  0  0  0  0  0  0  0  0  0  0
   -9.3073   -0.6373   -6.5957 C   0  0  0  0  0  0  0  0  0  0  0  0
  -10.1871    0.3391   -7.0644 C   0  0  0  0  0  0  0  0  0  0  0  0
   -9.7652    1.1835   -8.0869 C   0  0  0  0  0  0  0  0  0  0  0  0
   -8.4947    1.0463   -8.6155 C   0  0  0  0  0  0  0  0  0  0  0  0
   -5.4464    1.2343   -8.8296 C   0  0  0  0  0  0  0  0  0  0  0  0
   -5.7752    2.3528   -8.0728 C   0  0  0  0  0  0  0  0  0  0  0  0
   -4.9820    3.4794   -8.1012 C   0  0  0  0  0  0  0  0  0  0  0  0
   -3.8270    3.5254   -8.8836 C   0  0  0  0  0  0  0  0  0  0  0  0
   -3.4942    2.4076   -9.6422 C   0  0  0  0  0  0  0  0  0  0  0  0
   -4.2983    1.2830   -9.6074 C   0  0  0  0  0  0  0  0  0  0  0  0
   -5.9979   -2.5510  -11.8616 S   0  0  0  0  0  0  0  0  0  0  0  0
   -6.9473   -1.1634  -12.3807 C   0  0  0  0  0  0  0  0  0  0  0  0
   -7.0920   -0.2230  -11.3460 C   0  0  0  0  0  0  0  0  0  0  0  0
  -11.4055    0.3781   -6.4691 O   0  0  0  0  0  0  0  0  0  0  0  0
  -12.3565    1.3281   -6.9107 C   0  0  0  0  0  0  0  0  0  0  0  0
  -13.6202    1.1328   -6.0883 C   0  0  0  0  0  0  0  0  0  0  0  0
   -3.1366    4.6942   -8.8383 O   0  0  0  0  0  0  0  0  0  0  0  0
   -1.8867    4.8030   -9.4901 C   0  0  0  0  0  0  0  0  0  0  0  0
   -0.7665    4.0976   -8.7312 C   0  0  0  0  0  0  0  0  0  0  0  0
   -7.5064   -0.9575  -13.6444 C   0  0  0  0  0  0  0  0  0  0  0  0
   -7.4667   -1.7286  -14.7833 C   0  0  0  0  0  0  0  0  0  0  0  0
   -8.0878   -1.3952  -16.0484 C   0  0  0  0  0  0  0  0  0  0  0  0
   -7.7626   -2.4671  -16.9904 C   0  0  0  0  0  0  0  0  0  0  0  0
   -6.9849   -3.4316  -16.3273 C   0  0  0  0  0  0  0  0  0  0  0  0
   -6.7741   -3.0111  -14.9266 C   0  0  0  0  0  0  0  0  0  0  0  0
   -6.1448   -3.6217  -14.0818 O   0  0  0  0  0  0  0  0  0  0  0  0
   -8.8522   -0.2949  -16.3441 C   0  0  0  0  0  0  0  0  0  0  0  0
   -9.4227   -0.0457  -17.6102 C   0  0  0  0  0  0  0  0  0  0  0  0
   -9.9111    0.2222  -18.6139 N   0  0  0  0  0  0  0  0  0  0  0  0
   -9.1922    0.7422  -15.4510 C   0  0  0  0  0  0  0  0  0  0  0  0
   -9.5231    1.6243  -14.7929 N   0  0  0  0  0  0  0  0  0  0  0  0
   -8.0847   -2.6484  -18.3249 C   0  0  0  0  0  0  0  0  0  0  0  0
   -7.6254   -3.7907  -18.9729 C   0  0  0  0  0  0  0  0  0  0  0  0
   -6.8542   -4.7454  -18.3028 C   0  0  0  0  0  0  0  0  0  0  0  0
   -6.5280   -4.5663  -16.9639 C   0  0  0  0  0  0  0  0  0  0  0  0
   -6.3056   -6.1448  -19.1337 Cl  0  0  0  0  0  0  0  0  0  0  0  0
   -8.0196   -4.0215  -20.6289 Cl  0  0  0  0  0  0  0  0  0  0  0  0
    7.0624   -4.8288    1.3719 Cl  0  0  0  0  0  0  0  0  0  0  0  0
    6.8839   -3.9376    4.3465 Cl  0  0  0  0  0  0  0  0  0  0  0  0
    0.4519    0.0743    2.2827 H   0  0  0  0  0  0  0  0  0  0  0  0
    5.0183   -3.5963   -0.1052 H   0  0  0  0  0  0  0  0  0  0  0  0
    4.6653   -2.1695    4.6496 H   0  0  0  0  0  0  0  0  0  0  0  0
    0.3538   -2.6690   -0.4037 H   0  0  0  0  0  0  0  0  0  0  0  0
    0.0733   -4.2835   -2.2920 H   0  0  0  0  0  0  0  0  0  0  0  0
    2.2900   -4.5286   -3.3458 H   0  0  0  0  0  0  0  0  0  0  0  0
    1.5095   -1.0918   -5.7563 H   0  0  0  0  0  0  0  0  0  0  0  0
   -0.6734   -0.8513   -4.7203 H   0  0  0  0  0  0  0  0  0  0  0  0
   -3.5815   -2.6571   -0.7159 H   0  0  0  0  0  0  0  0  0  0  0  0
   -4.9633   -4.6300   -0.2187 H   0  0  0  0  0  0  0  0  0  0  0  0
   -3.1109   -6.7247   -3.4483 H   0  0  0  0  0  0  0  0  0  0  0  0
   -1.7390   -4.7924   -3.9252 H   0  0  0  0  0  0  0  0  0  0  0  0
    3.4775   -1.9821   -6.8624 H   0  0  0  0  0  0  0  0  0  0  0  0
    3.8082   -1.0607   -5.3676 H   0  0  0  0  0  0  0  0  0  0  0  0
    5.5258   -3.3507   -6.4473 H   0  0  0  0  0  0  0  0  0  0  0  0
    5.9358   -1.6282   -6.5254 H   0  0  0  0  0  0  0  0  0  0  0  0
    5.8244   -2.4509   -4.9573 H   0  0  0  0  0  0  0  0  0  0  0  0
   -5.1488   -7.8771   -3.2008 H   0  0  0  0  0  0  0  0  0  0  0  0
   -3.8831   -8.4779   -2.0933 H   0  0  0  0  0  0  0  0  0  0  0  0
   -6.8962   -8.5828   -1.5662 H   0  0  0  0  0  0  0  0  0  0  0  0
   -5.8881   -9.9575   -2.0472 H   0  0  0  0  0  0  0  0  0  0  0  0
   -5.6448   -9.1790   -0.4750 H   0  0  0  0  0  0  0  0  0  0  0  0
   -5.0798    1.6629   -4.0567 H   0  0  0  0  0  0  0  0  0  0  0  0
   -3.8040    1.6790   -1.9301 H   0  0  0  0  0  0  0  0  0  0  0  0
   -2.5951   -3.1528   -5.1812 H   0  0  0  0  0  0  0  0  0  0  0  0
   -5.5850    0.6568   -6.1765 H   0  0  0  0  0  0  0  0  0  0  0  0
   -3.0889   -4.1543   -7.3061 H   0  0  0  0  0  0  0  0  0  0  0  0
   -4.1955   -4.0625   -9.5262 H   0  0  0  0  0  0  0  0  0  0  0  0
   -7.3906   -1.5382   -6.7536 H   0  0  0  0  0  0  0  0  0  0  0  0
   -9.6419   -1.2919   -5.8067 H   0  0  0  0  0  0  0  0  0  0  0  0
  -10.4145    1.9481   -8.4828 H   0  0  0  0  0  0  0  0  0  0  0  0
   -8.1843    1.7144   -9.4047 H   0  0  0  0  0  0  0  0  0  0  0  0
   -6.6614    2.3527   -7.4553 H   0  0  0  0  0  0  0  0  0  0  0  0
   -5.2374    4.3497   -7.5176 H   0  0  0  0  0  0  0  0  0  0  0  0
   -2.6148    2.3942  -10.2665 H   0  0  0  0  0  0  0  0  0  0  0  0
   -4.0168    0.4240  -10.1998 H   0  0  0  0  0  0  0  0  0  0  0  0
   -7.6401    0.6901  -11.4917 H   0  0  0  0  0  0  0  0  0  0  0  0
  -11.9661    2.3458   -6.7700 H   0  0  0  0  0  0  0  0  0  0  0  0
  -12.5713    1.1780   -7.9778 H   0  0  0  0  0  0  0  0  0  0  0  0
  -13.4026    1.2773   -5.0337 H   0  0  0  0  0  0  0  0  0  0  0  0
  -14.3771    1.8473   -6.3986 H   0  0  0  0  0  0  0  0  0  0  0  0
  -14.0013    0.1249   -6.2279 H   0  0  0  0  0  0  0  0  0  0  0  0
   -1.9533    4.4355  -10.5215 H   0  0  0  0  0  0  0  0  0  0  0  0
   -1.6928    5.8787   -9.5219 H   0  0  0  0  0  0  0  0  0  0  0  0
   -0.9563    3.0292   -8.6611 H   0  0  0  0  0  0  0  0  0  0  0  0
    0.1789    4.2564   -9.2426 H   0  0  0  0  0  0  0  0  0  0  0  0
   -0.6951    4.4991   -7.7235 H   0  0  0  0  0  0  0  0  0  0  0  0
   -8.0518   -0.0241  -13.7146 H   0  0  0  0  0  0  0  0  0  0  0  0
   -8.6760   -1.9364  -18.8765 H   0  0  0  0  0  0  0  0  0  0  0  0
   -5.9334   -5.2935  -16.4341 H   0  0  0  0  0  0  0  0  0  0  0  0
  1 99  1  0  0  0  0
  2  1  1  1  0  0  0
  2  6  1  0  0  0  0
  3  4  1  0  0  0  0
  3  2  1  0  0  0  0
  4  5  1  0  0  0  0
  5  6  1  0  0  0  0
  5 16  2  0  0  0  0
  6  7  2  0  0  0  0
  8  3  2  0  0  0  0
  9  8  1  0  0  0  0
 10  9  3  0  0  0  0
 11  8  1  0  0  0  0
 12 11  3  0  0  0  0
 13  4  2  0  0  0  0
 13 14  1  0  0  0  0
 14 15  2  0  0  0  0
 15 16  1  0  0  0  0
 15 98  1  0  0  0  0
 16101  1  0  0  0  0
 17  1  1  0  0  0  0
 18102  1  0  0  0  0
 18 17  2  0  0  0  0
 19 20  2  0  0  0  0
 19 18  1  0  0  0  0
 20 21  1  0  0  0  0
 21 17  1  0  0  0  0
 22 26  1  0  0  0  0
 22 19  1  0  0  0  0
 23 22  1  0  0  0  0
 23 24  2  0  0  0  0
 24 20  1  0  0  0  0
 25 27  1  0  0  0  0
 25 22  1  0  0  0  0
 26 32  2  0  0  0  0
 27103  1  0  0  0  0
 28104  1  0  0  0  0
 28 27  2  0  0  0  0
 29 28  1  0  0  0  0
 30 29  2  0  0  0  0
 30 31  1  0  0  0  0
 31 25  2  0  0  0  0
 32 33  1  0  0  0  0
 32107  1  0  0  0  0
 33108  1  0  0  0  0
 34 40  1  0  0  0  0
 34 33  2  0  0  0  0
 35 34  1  0  0  0  0
 36 35  2  0  0  0  0
 36 26  1  0  0  0  0
 37 29  1  0  0  0  0
 38112  1  0  0  0  0
 38 37  1  0  0  0  0
 39 38  1  0  0  0  0
 39115  1  0  0  0  0
 41117  1  0  0  0  0
 41 42  1  0  0  0  0
 41 40  1  0  0  0  0
 42120  1  0  0  0  0
 43 23  1  0  0  0  0
 44 43  1  0  0  0  0
 44 45  1  0  0  0  0
 45 46  2  0  0  0  0
 46 24  1  0  0  0  0
 46122  1  0  0  0  0
 47123  1  0  0  0  0
 47 43  2  0  0  0  0
 48 47  1  0  0  0  0
 49 48  1  0  0  0  0
 49 50  1  0  0  0  0
 50 44  2  0  0  0  0
 51125  1  0  0  0  0
 51 48  2  0  0  0  0
 52 51  1  0  0  0  0
 53 52  2  0  0  0  0
 53 54  1  0  0  0  0
 54 49  2  0  0  0  0
 55 56  2  0  0  0  0
 55 53  1  0  0  0  0
 56 57  1  0  0  0  0
 57 54  1  0  0  0  0
 57 58  1  0  0  0  0
 58 59  1  0  0  0  0
 59127  1  0  0  0  0
 59 60  2  0  0  0  0
 60128  1  0  0  0  0
 61 60  1  0  0  0  0
 61 73  1  0  0  0  0
 62 61  2  0  0  0  0
 63 58  2  0  0  0  0
 63 62  1  0  0  0  0
 64 57  1  0  0  0  0
 64 65  2  0  0  0  0
 65131  1  0  0  0  0
 66 65  1  0  0  0  0
 66132  1  0  0  0  0
 67 76  1  0  0  0  0
 67 66  2  0  0  0  0
 68 69  2  0  0  0  0
 68 67  1  0  0  0  0
 69 64  1  0  0  0  0
 70 55  1  0  0  0  0
 71 70  1  0  0  0  0
 71 72  2  0  0  0  0
 72 56  1  0  0  0  0
 74136  1  0  0  0  0
 74 73  1  0  0  0  0
 74 75  1  0  0  0  0
 75138  1  0  0  0  0
 77 76  1  0  0  0  0
 77 78  1  0  0  0  0
 78143  1  0  0  0  0
 78145  1  0  0  0  0
 79 71  1  0  0  0  0
 80 79  2  0  0  0  0
 81 80  1  0  0  0  0
 82 83  2  0  0  0  0
 82 81  1  0  0  0  0
 83 84  1  0  0  0  0
 84 80  1  0  0  0  0
 84 85  2  0  0  0  0
 86 81  2  0  0  0  0
 86 89  1  0  0  0  0
 87 86  1  0  0  0  0
 88 87  3  0  0  0  0
 89 90  3  0  0  0  0
 91 82  1  0  0  0  0
 92 91  2  0  0  0  0
 92 93  1  0  0  0  0
 93 94  2  0  0  0  0
 94148  1  0  0  0  0
 94 83  1  0  0  0  0
 95 93  1  0  0  0  0
 96 92  1  0  0  0  0
 97 14  1  0  0  0  0
100 13  1  0  0  0  0
105 30  1  0  0  0  0
106 31  1  0  0  0  0
109 35  1  0  0  0  0
110 36  1  0  0  0  0
111 38  1  0  0  0  0
113 39  1  0  0  0  0
114 39  1  0  0  0  0
116 41  1  0  0  0  0
118 42  1  0  0  0  0
119 42  1  0  0  0  0
121 45  1  0  0  0  0
124 50  1  0  0  0  0
126 52  1  0  0  0  0
129 62  1  0  0  0  0
130 63  1  0  0  0  0
133 68  1  0  0  0  0
134 69  1  0  0  0  0
135 72  1  0  0  0  0
137 74  1  0  0  0  0
139 75  1  0  0  0  0
140 75  1  0  0  0  0
141 77  1  0  0  0  0
142 77  1  0  0  0  0
144 78  1  0  0  0  0
146 79  1  0  0  0  0
147 91  1  0  0  0  0
M  RAD  2   1   2   2   2
M  END
