SCF done       -264.760547749020          0.000822611156
 OpenBabel12282109493D

160176  0  0  1  0  0  0  0  0999 V2000
    1.1578    0.3961    0.4915 C   0  0  0  0  0  0  0  0  0  0  0  0
    1.3016    1.5099    1.2831 C   0  0  0  0  0  0  0  0  0  0  0  0
    2.3703    1.7355    2.2344 C   0  0  0  0  0  0  0  0  0  0  0  0
    2.2268    3.0973    2.7431 C   0  0  0  0  0  0  0  0  0  0  0  0
    1.0650    3.6774    2.1590 C   0  0  0  0  0  0  0  0  0  0  0  0
    0.4431    2.6985    1.2525 C   0  0  0  0  0  0  0  0  0  0  0  0
   -0.5778    2.8619    0.6055 O   0  0  0  0  0  0  0  0  0  0  0  0
    3.3411    0.8466    2.6253 C   0  0  0  0  0  0  0  0  0  0  0  0
    4.3493    1.1417    3.5655 C   0  0  0  0  0  0  0  0  0  0  0  0
    5.1988    1.3129    4.3194 N   0  0  0  0  0  0  0  0  0  0  0  0
    3.4759   -0.4817    2.1743 C   0  0  0  0  0  0  0  0  0  0  0  0
    3.6558   -1.5750    1.8677 N   0  0  0  0  0  0  0  0  0  0  0  0
    2.9873    3.8305    3.6139 C   0  0  0  0  0  0  0  0  0  0  0  0
    2.6086    5.1581    3.9232 C   0  0  0  0  0  0  0  0  0  0  0  0
    1.4424    5.7277    3.3371 C   0  0  0  0  0  0  0  0  0  0  0  0
    0.6713    4.9525    2.4413 C   0  0  0  0  0  0  0  0  0  0  0  0
    1.0919    7.0523    3.6625 C   0  0  0  0  0  0  0  0  0  0  0  0
    1.8580    7.7866    4.5271 C   0  0  0  0  0  0  0  0  0  0  0  0
    3.0070    7.2270    5.1044 C   0  0  0  0  0  0  0  0  0  0  0  0
    3.3740    5.9419    4.8098 C   0  0  0  0  0  0  0  0  0  0  0  0
    0.1989    0.0828   -0.4777 C   0  0  0  0  0  0  0  0  0  0  0  0
    0.2818   -1.0905   -1.2449 C   0  0  0  0  0  0  0  0  0  0  0  0
   -0.7365   -1.1951   -2.1639 C   0  0  0  0  0  0  0  0  0  0  0  0
   -1.6195   -0.1141   -2.1029 C   0  0  0  0  0  0  0  0  0  0  0  0
   -1.2022    1.0474   -0.9237 S   0  0  0  0  0  0  0  0  0  0  0  0
   -1.1693   -2.1620   -3.2444 C   0  0  0  0  0  0  0  0  0  0  0  0
   -2.3499   -1.4050   -3.8382 C   0  0  0  0  0  0  0  0  0  0  0  0
   -2.6089   -0.2379   -3.1258 C   0  0  0  0  0  0  0  0  0  0  0  0
   -0.0835   -2.3384   -4.2932 C   0  0  0  0  0  0  0  0  0  0  0  0
   -1.5778   -3.4571   -2.5636 C   0  0  0  0  0  0  0  0  0  0  0  0
    0.5109   -1.2063   -4.8315 C   0  0  0  0  0  0  0  0  0  0  0  0
    1.4781   -1.2967   -5.8167 C   0  0  0  0  0  0  0  0  0  0  0  0
    1.8709   -2.5434   -6.2923 C   0  0  0  0  0  0  0  0  0  0  0  0
    1.2727   -3.6845   -5.7557 C   0  0  0  0  0  0  0  0  0  0  0  0
    0.3111   -3.5821   -4.7741 C   0  0  0  0  0  0  0  0  0  0  0  0
   -2.8974   -3.8907   -2.5187 C   0  0  0  0  0  0  0  0  0  0  0  0
   -3.2350   -5.0496   -1.8522 C   0  0  0  0  0  0  0  0  0  0  0  0
   -2.2638   -5.8089   -1.1993 C   0  0  0  0  0  0  0  0  0  0  0  0
   -0.9420   -5.3759   -1.2350 C   0  0  0  0  0  0  0  0  0  0  0  0
   -0.6147   -4.2129   -1.9079 C   0  0  0  0  0  0  0  0  0  0  0  0
    2.8024   -2.7602   -7.2545 O   0  0  0  0  0  0  0  0  0  0  0  0
    3.4433   -1.6519   -7.8555 C   0  0  0  0  0  0  0  0  0  0  0  0
    4.4171   -2.1896   -8.8921 C   0  0  0  0  0  0  0  0  0  0  0  0
   -2.7060   -6.9282   -0.5717 O   0  0  0  0  0  0  0  0  0  0  0  0
   -1.7813   -7.7303    0.1368 C   0  0  0  0  0  0  0  0  0  0  0  0
   -2.5528   -8.8860    0.7541 C   0  0  0  0  0  0  0  0  0  0  0  0
   -3.1026   -1.7189   -4.9890 C   0  0  0  0  0  0  0  0  0  0  0  0
   -4.1620   -0.8202   -5.3545 C   0  0  0  0  0  0  0  0  0  0  0  0
   -4.4304    0.3258   -4.5548 C   0  0  0  0  0  0  0  0  0  0  0  0
   -3.6687    0.6282   -3.4711 C   0  0  0  0  0  0  0  0  0  0  0  0
   -2.8503   -2.8270   -5.7989 C   0  0  0  0  0  0  0  0  0  0  0  0
   -3.5421   -3.0407   -6.9840 C   0  0  0  0  0  0  0  0  0  0  0  0
   -4.5921   -2.1339   -7.3575 C   0  0  0  0  0  0  0  0  0  0  0  0
   -4.8956   -1.0700   -6.5069 C   0  0  0  0  0  0  0  0  0  0  0  0
   -3.2002   -4.1264   -7.8372 C   0  0  0  0  0  0  0  0  0  0  0  0
   -3.8149   -4.3060   -9.0354 C   0  0  0  0  0  0  0  0  0  0  0  0
   -4.8290   -3.4020   -9.4149 C   0  0  0  0  0  0  0  0  0  0  0  0
   -5.2397   -2.3584   -8.5906 C   0  0  0  0  0  0  0  0  0  0  0  0
   -5.5701   -3.3074  -10.6304 C   0  0  0  0  0  0  0  0  0  0  0  0
   -6.4522   -2.2360  -10.5864 C   0  0  0  0  0  0  0  0  0  0  0  0
   -6.3463   -1.5426   -9.2473 C   0  0  0  0  0  0  0  0  0  0  0  0
   -7.6863   -1.6670   -8.5459 C   0  0  0  0  0  0  0  0  0  0  0  0
   -7.8769   -2.4998   -7.4496 C   0  0  0  0  0  0  0  0  0  0  0  0
   -9.1191   -2.6168   -6.8627 C   0  0  0  0  0  0  0  0  0  0  0  0
  -10.2148   -1.9106   -7.3598 C   0  0  0  0  0  0  0  0  0  0  0  0
  -10.0324   -1.0853   -8.4651 C   0  0  0  0  0  0  0  0  0  0  0  0
   -8.7817   -0.9751   -9.0454 C   0  0  0  0  0  0  0  0  0  0  0  0
   -5.8841   -0.1027   -9.4268 C   0  0  0  0  0  0  0  0  0  0  0  0
   -4.8520    0.1659  -10.3144 C   0  0  0  0  0  0  0  0  0  0  0  0
   -4.3675    1.4499  -10.4872 C   0  0  0  0  0  0  0  0  0  0  0  0
   -4.9095    2.5030   -9.7585 C   0  0  0  0  0  0  0  0  0  0  0  0
   -5.9485    2.2366   -8.8659 C   0  0  0  0  0  0  0  0  0  0  0  0
   -6.4270    0.9542   -8.7043 C   0  0  0  0  0  0  0  0  0  0  0  0
   -5.5734   -4.1099  -12.1399 S   0  0  0  0  0  0  0  0  0  0  0  0
   -6.7762   -2.9786  -12.7448 C   0  0  0  0  0  0  0  0  0  0  0  0
   -7.1614   -2.0712  -11.7663 C   0  0  0  0  0  0  0  0  0  0  0  0
  -11.3895   -2.0975   -6.7058 O   0  0  0  0  0  0  0  0  0  0  0  0
  -12.5443   -1.4175   -7.1574 C   0  0  0  0  0  0  0  0  0  0  0  0
  -13.6976   -1.8146   -6.2495 C   0  0  0  0  0  0  0  0  0  0  0  0
   -4.5133    3.7998   -9.8361 O   0  0  0  0  0  0  0  0  0  0  0  0
   -3.4609    4.1434  -10.7159 C   0  0  0  0  0  0  0  0  0  0  0  0
   -3.2210    5.6393  -10.5841 C   0  0  0  0  0  0  0  0  0  0  0  0
   -7.2849   -3.0564  -14.0596 C   0  0  0  0  0  0  0  0  0  0  0  0
   -6.7023   -3.6039  -15.1634 C   0  0  1  0  0  0  0  0  0  0  0  0
   -5.3330   -3.9710  -15.4479 C   0  0  0  0  0  0  0  0  0  0  0  0
   -5.3555   -4.8861  -16.5839 C   0  0  0  0  0  0  0  0  0  0  0  0
   -6.6691   -4.8833  -17.1377 C   0  0  0  0  0  0  0  0  0  0  0  0
   -7.5390   -4.0136  -16.3218 C   0  0  0  0  0  0  0  0  0  0  0  0
   -8.6997   -3.7271  -16.5153 O   0  0  0  0  0  0  0  0  0  0  0  0
   -4.2088   -3.3567  -14.9563 C   0  0  0  0  0  0  0  0  0  0  0  0
   -4.2373   -2.2604  -14.0717 C   0  0  0  0  0  0  0  0  0  0  0  0
   -4.2099   -1.3306  -13.3974 N   0  0  0  0  0  0  0  0  0  0  0  0
   -2.8988   -3.6840  -15.3562 C   0  0  0  0  0  0  0  0  0  0  0  0
   -1.8097   -3.9187  -15.6355 N   0  0  0  0  0  0  0  0  0  0  0  0
   -4.3712   -5.6491  -17.1500 C   0  0  0  0  0  0  0  0  0  0  0  0
   -4.6651   -6.4201  -18.2984 C   0  0  0  0  0  0  0  0  0  0  0  0
   -5.9744   -6.3985  -18.8595 C   0  0  0  0  0  0  0  0  0  0  0  0
   -6.9784   -5.6127  -18.2487 C   0  0  0  0  0  0  0  0  0  0  0  0
   -6.2344   -7.1654  -20.0123 C   0  0  0  0  0  0  0  0  0  0  0  0
   -5.2493   -7.9219  -20.5870 C   0  0  0  0  0  0  0  0  0  0  0  0
   -3.9605   -7.9451  -20.0337 C   0  0  0  0  0  0  0  0  0  0  0  0
   -3.6752   -7.2123  -18.9140 C   0  0  0  0  0  0  0  0  0  0  0  0
    1.9148   -0.3721    0.5968 H   0  0  0  0  0  0  0  0  0  0  0  0
    3.8774    3.4314    4.0734 H   0  0  0  0  0  0  0  0  0  0  0  0
   -0.2153    5.3668    1.9847 H   0  0  0  0  0  0  0  0  0  0  0  0
    0.2059    7.4779    3.2141 H   0  0  0  0  0  0  0  0  0  0  0  0
    1.5826    8.8021    4.7701 H   0  0  0  0  0  0  0  0  0  0  0  0
    3.6009    7.8194    5.7845 H   0  0  0  0  0  0  0  0  0  0  0  0
    4.2579    5.5064    5.2525 H   0  0  0  0  0  0  0  0  0  0  0  0
    1.0848   -1.7922   -1.1088 H   0  0  0  0  0  0  0  0  0  0  0  0
    0.2135   -0.2289   -4.4792 H   0  0  0  0  0  0  0  0  0  0  0  0
    1.9134   -0.3897   -6.2054 H   0  0  0  0  0  0  0  0  0  0  0  0
    1.5808   -4.6478   -6.1306 H   0  0  0  0  0  0  0  0  0  0  0  0
   -0.1346   -4.4842   -4.3808 H   0  0  0  0  0  0  0  0  0  0  0  0
   -3.6752   -3.3230   -3.0053 H   0  0  0  0  0  0  0  0  0  0  0  0
   -4.2582   -5.3889   -1.8185 H   0  0  0  0  0  0  0  0  0  0  0  0
   -0.1594   -5.9305   -0.7418 H   0  0  0  0  0  0  0  0  0  0  0  0
    0.4173   -3.8974   -1.9283 H   0  0  0  0  0  0  0  0  0  0  0  0
    2.6990   -1.0010   -8.3351 H   0  0  0  0  0  0  0  0  0  0  0  0
    3.9818   -1.0699   -7.0944 H   0  0  0  0  0  0  0  0  0  0  0  0
    3.8801   -2.7639   -9.6420 H   0  0  0  0  0  0  0  0  0  0  0  0
    4.9350   -1.3662   -9.3754 H   0  0  0  0  0  0  0  0  0  0  0  0
    5.1453   -2.8393   -8.4143 H   0  0  0  0  0  0  0  0  0  0  0  0
   -1.0101   -8.1115   -0.5473 H   0  0  0  0  0  0  0  0  0  0  0  0
   -1.2925   -7.1377    0.9224 H   0  0  0  0  0  0  0  0  0  0  0  0
   -3.0346   -9.4689   -0.0260 H   0  0  0  0  0  0  0  0  0  0  0  0
   -1.8764   -9.5260    1.3132 H   0  0  0  0  0  0  0  0  0  0  0  0
   -3.3188   -8.5038    1.4231 H   0  0  0  0  0  0  0  0  0  0  0  0
   -5.2459    0.9680   -4.8529 H   0  0  0  0  0  0  0  0  0  0  0  0
   -3.8454    1.5109   -2.8760 H   0  0  0  0  0  0  0  0  0  0  0  0
   -2.0739   -3.5200   -5.5177 H   0  0  0  0  0  0  0  0  0  0  0  0
   -5.6993   -0.4010   -6.7663 H   0  0  0  0  0  0  0  0  0  0  0  0
   -2.4137   -4.7928   -7.5151 H   0  0  0  0  0  0  0  0  0  0  0  0
   -3.5428   -5.1101   -9.7022 H   0  0  0  0  0  0  0  0  0  0  0  0
   -7.0513   -3.0644   -7.0448 H   0  0  0  0  0  0  0  0  0  0  0  0
   -9.2684   -3.2585   -6.0089 H   0  0  0  0  0  0  0  0  0  0  0  0
  -10.8533   -0.5249   -8.8840 H   0  0  0  0  0  0  0  0  0  0  0  0
   -8.6574   -0.3235   -9.8973 H   0  0  0  0  0  0  0  0  0  0  0  0
   -4.4172   -0.6315  -10.8979 H   0  0  0  0  0  0  0  0  0  0  0  0
   -3.5711    1.6097  -11.1959 H   0  0  0  0  0  0  0  0  0  0  0  0
   -6.3680    3.0583   -8.3069 H   0  0  0  0  0  0  0  0  0  0  0  0
   -7.2391    0.7834   -8.0121 H   0  0  0  0  0  0  0  0  0  0  0  0
   -7.8859   -1.3020  -11.9610 H   0  0  0  0  0  0  0  0  0  0  0  0
  -12.3838   -0.3310   -7.1135 H   0  0  0  0  0  0  0  0  0  0  0  0
  -12.7656   -1.6986   -8.1966 H   0  0  0  0  0  0  0  0  0  0  0  0
  -13.4733   -1.5383   -5.2228 H   0  0  0  0  0  0  0  0  0  0  0  0
  -14.6072   -1.3115   -6.5648 H   0  0  0  0  0  0  0  0  0  0  0  0
  -13.8498   -2.8895   -6.2929 H   0  0  0  0  0  0  0  0  0  0  0  0
   -2.5507    3.5880  -10.4499 H   0  0  0  0  0  0  0  0  0  0  0  0
   -3.7359    3.8919  -11.7495 H   0  0  0  0  0  0  0  0  0  0  0  0
   -2.9460    5.8820   -9.5614 H   0  0  0  0  0  0  0  0  0  0  0  0
   -2.4216    5.9464  -11.2522 H   0  0  0  0  0  0  0  0  0  0  0  0
   -4.1270    6.1831  -10.8368 H   0  0  0  0  0  0  0  0  0  0  0  0
   -8.2975   -2.6893  -14.1996 H   0  0  0  0  0  0  0  0  0  0  0  0
   -3.3744   -5.6884  -16.7388 H   0  0  0  0  0  0  0  0  0  0  0  0
   -7.9766   -5.5902  -18.6603 H   0  0  0  0  0  0  0  0  0  0  0  0
   -7.2287   -7.1440  -20.4342 H   0  0  0  0  0  0  0  0  0  0  0  0
   -5.4576   -8.5060  -21.4709 H   0  0  0  0  0  0  0  0  0  0  0  0
   -3.1941   -8.5460  -20.5001 H   0  0  0  0  0  0  0  0  0  0  0  0
   -2.6834   -7.2235  -18.4860 H   0  0  0  0  0  0  0  0  0  0  0  0
  1103  1  0  0  0  0
  1  2  2  0  0  0  0
  2  3  1  0  0  0  0
  3  8  2  0  0  0  0
  3  4  1  0  0  0  0
  4 13  2  0  0  0  0
  5 16  2  0  0  0  0
  5  4  1  0  0  0  0
  6  2  1  0  0  0  0
  6  5  1  0  0  0  0
  7  6  2  0  0  0  0
  8  9  1  0  0  0  0
  9 10  3  0  0  0  0
 11  8  1  0  0  0  0
 12 11  3  0  0  0  0
 13 14  1  0  0  0  0
 13104  1  0  0  0  0
 14 20  2  0  0  0  0
 15 17  2  0  0  0  0
 15 14  1  0  0  0  0
 16 15  1  0  0  0  0
 17 18  1  0  0  0  0
 18107  1  0  0  0  0
 18 19  2  0  0  0  0
 19108  1  0  0  0  0
 20 19  1  0  0  0  0
 20109  1  0  0  0  0
 21  1  1  0  0  0  0
 22110  1  0  0  0  0
 22 21  2  0  0  0  0
 23 24  2  0  0  0  0
 23 22  1  0  0  0  0
 24 25  1  0  0  0  0
 25 21  1  0  0  0  0
 26 30  1  0  0  0  0
 26 23  1  0  0  0  0
 27 26  1  0  0  0  0
 27 28  2  0  0  0  0
 28 24  1  0  0  0  0
 29 26  1  0  0  0  0
 30 36  2  0  0  0  0
 30 40  1  0  0  0  0
 31111  1  0  0  0  0
 31 29  2  0  0  0  0
 32 31  1  0  0  0  0
 33 32  2  0  0  0  0
 33 34  1  0  0  0  0
 34 35  2  0  0  0  0
 35114  1  0  0  0  0
 35 29  1  0  0  0  0
 36 37  1  0  0  0  0
 37116  1  0  0  0  0
 37 38  2  0  0  0  0
 38 44  1  0  0  0  0
 39 38  1  0  0  0  0
 39117  1  0  0  0  0
 40 39  2  0  0  0  0
 41 33  1  0  0  0  0
 42 41  1  0  0  0  0
 42120  1  0  0  0  0
 43123  1  0  0  0  0
 43 42  1  0  0  0  0
 44 45  1  0  0  0  0
 45 46  1  0  0  0  0
 45125  1  0  0  0  0
 46127  1  0  0  0  0
 46128  1  0  0  0  0
 47 27  1  0  0  0  0
 48 47  1  0  0  0  0
 48 49  1  0  0  0  0
 49 50  2  0  0  0  0
 50 28  1  0  0  0  0
 50130  1  0  0  0  0
 51131  1  0  0  0  0
 51 47  2  0  0  0  0
 52 51  1  0  0  0  0
 53 52  1  0  0  0  0
 53 54  1  0  0  0  0
 54 48  2  0  0  0  0
 55133  1  0  0  0  0
 55 52  2  0  0  0  0
 56 55  1  0  0  0  0
 57 56  2  0  0  0  0
 57 58  1  0  0  0  0
 58 53  2  0  0  0  0
 59 60  2  0  0  0  0
 59 57  1  0  0  0  0
 60 61  1  0  0  0  0
 61 58  1  0  0  0  0
 61 62  1  0  0  0  0
 62 63  1  0  0  0  0
 63135  1  0  0  0  0
 63 64  2  0  0  0  0
 64136  1  0  0  0  0
 65 64  1  0  0  0  0
 65 77  1  0  0  0  0
 66 65  2  0  0  0  0
 67 62  2  0  0  0  0
 67 66  1  0  0  0  0
 68 61  1  0  0  0  0
 68 73  2  0  0  0  0
 69 68  1  0  0  0  0
 70 69  2  0  0  0  0
 70 71  1  0  0  0  0
 71 72  2  0  0  0  0
 72 73  1  0  0  0  0
 72141  1  0  0  0  0
 73142  1  0  0  0  0
 74 59  1  0  0  0  0
 75 74  1  0  0  0  0
 75 76  2  0  0  0  0
 76 60  1  0  0  0  0
 78144  1  0  0  0  0
 78 77  1  0  0  0  0
 78 79  1  0  0  0  0
 79146  1  0  0  0  0
 80 71  1  0  0  0  0
 81 82  1  0  0  0  0
 81149  1  0  0  0  0
 81 80  1  0  0  0  0
 82151  1  0  0  0  0
 83 75  1  0  0  0  0
 84 83  1  1  0  0  0
 85 84  1  0  0  0  0
 85 90  2  0  0  0  0
 86 85  1  0  0  0  0
 87 86  1  0  0  0  0
 87 88  1  0  0  0  0
 88 84  1  0  0  0  0
 89 88  2  0  0  0  0
 90 91  1  0  0  0  0
 91 92  3  0  0  0  0
 93 90  1  0  0  0  0
 94 93  3  0  0  0  0
 95155  1  0  0  0  0
 95 86  2  0  0  0  0
 96 95  1  0  0  0  0
 97 96  1  0  0  0  0
 97 98  1  0  0  0  0
 98 87  2  0  0  0  0
 99 97  2  0  0  0  0
100101  2  0  0  0  0
100 99  1  0  0  0  0
101102  1  0  0  0  0
102160  1  0  0  0  0
102 96  2  0  0  0  0
105 16  1  0  0  0  0
106 17  1  0  0  0  0
112 32  1  0  0  0  0
113 34  1  0  0  0  0
115 36  1  0  0  0  0
118 40  1  0  0  0  0
119 42  1  0  0  0  0
121 43  1  0  0  0  0
122 43  1  0  0  0  0
124 45  1  0  0  0  0
126 46  1  0  0  0  0
129 49  1  0  0  0  0
132 54  1  0  0  0  0
134 56  1  0  0  0  0
137 66  1  0  0  0  0
138 67  1  0  0  0  0
139 69  1  0  0  0  0
140 70  1  0  0  0  0
143 76  1  0  0  0  0
145 78  1  0  0  0  0
147 79  1  0  0  0  0
148 79  1  0  0  0  0
150 81  1  0  0  0  0
152 82  1  0  0  0  0
153 82  1  0  0  0  0
154 83  1  0  0  0  0
156 98  1  0  0  0  0
157 99  1  0  0  0  0
158100  1  0  0  0  0
159101  1  0  0  0  0
M  RAD  2  83   2  84   2
M  END
