SCF done       -183.679223603332          0.000668394156
 OpenBabel12282109493D

 94104  0  0  1  0  0  0  0  0999 V2000
   -9.3914  -12.5052  -24.2467 C   0  0  0  0  0  0  0  0  0  0  0  0
   -8.6897  -12.1338  -23.3221 O   0  0  0  0  0  0  0  0  0  0  0  0
   -9.0150  -13.4949  -25.2778 C   0  0  0  0  0  0  0  0  0  0  0  0
   -7.8202  -14.1707  -25.4228 C   0  0  0  0  0  0  0  0  0  0  0  0
   -7.7065  -15.0530  -26.4851 C   0  0  0  0  0  0  0  0  0  0  0  0
   -6.5648  -15.7280  -26.6665 F   0  0  0  0  0  0  0  0  0  0  0  0
   -8.7700  -15.2428  -27.3674 C   0  0  0  0  0  0  0  0  0  0  0  0
   -8.6326  -16.0999  -28.3849 F   0  0  0  0  0  0  0  0  0  0  0  0
   -9.9710  -14.5640  -27.2196 C   0  0  0  0  0  0  0  0  0  0  0  0
  -10.0923  -13.6784  -26.1606 C   0  0  0  0  0  0  0  0  0  0  0  0
  -11.1995  -12.8183  -25.7367 C   0  0  0  0  0  0  0  0  0  0  0  0
  -12.4226  -12.7517  -26.3537 C   0  0  0  0  0  0  0  0  0  0  0  0
  -13.5037  -11.9361  -25.9590 C   0  0  0  0  0  0  0  0  0  0  0  0
  -14.4265  -11.3004  -25.7044 N   0  0  0  0  0  0  0  0  0  0  0  0
  -12.7769  -13.5100  -27.4901 C   0  0  0  0  0  0  0  0  0  0  0  0
  -13.1285  -14.0960  -28.4121 N   0  0  0  0  0  0  0  0  0  0  0  0
  -10.7540  -12.0850  -24.5698 C   0  0  0  0  0  0  0  0  0  0  0  0
  -11.4903  -11.1312  -23.9039 C   0  0  0  0  0  0  0  0  0  0  0  0
  -11.1805  -10.3393  -22.7977 C   0  0  0  0  0  0  0  0  0  0  0  0
   -9.6759  -10.4253  -21.8775 S   0  0  0  0  0  0  0  0  0  0  0  0
  -10.2156   -9.1510  -20.8516 C   0  0  0  0  0  0  0  0  0  0  0  0
  -11.4916   -8.6836  -21.2194 C   0  0  0  0  0  0  0  0  0  0  0  0
  -12.0517   -9.3519  -22.2976 C   0  0  0  0  0  0  0  0  0  0  0  0
  -13.3827   -8.9914  -22.8705 C   0  0  0  0  0  0  0  0  0  0  0  0
  -13.2264   -8.0165  -24.0413 C   0  0  0  0  0  0  0  0  0  0  0  0
  -12.0593   -7.3430  -20.2411 S   0  0  0  0  0  0  0  0  0  0  0  0
  -10.5793   -7.4122  -19.3518 C   0  0  0  0  0  0  0  0  0  0  0  0
   -9.7102   -8.4274  -19.7685 C   0  0  0  0  0  0  0  0  0  0  0  0
   -8.5658   -8.4117  -19.0128 N   0  0  0  0  0  0  0  0  0  0  0  0
   -7.3925   -9.0342  -19.5920 C   0  0  0  0  0  0  0  0  0  0  0  0
   -8.6736   -7.3621  -18.1083 C   0  0  0  0  0  0  0  0  0  0  0  0
   -9.9251   -6.7099  -18.3336 C   0  0  0  0  0  0  0  0  0  0  0  0
  -10.2848   -5.5116  -17.6786 C   0  0  0  0  0  0  0  0  0  0  0  0
  -11.3818   -4.7848  -17.8255 N   0  0  0  0  0  0  0  0  0  0  0  0
  -11.2415   -3.4589  -16.9077 S   0  0  0  0  0  0  0  0  0  0  0  0
   -9.7796   -3.7638  -16.2871 N   0  0  0  0  0  0  0  0  0  0  0  0
   -9.3482   -4.9156  -16.7754 C   0  0  0  0  0  0  0  0  0  0  0  0
   -8.1681   -5.6252  -16.4624 C   0  0  0  0  0  0  0  0  0  0  0  0
   -7.8503   -6.8818  -17.0517 C   0  0  0  0  0  0  0  0  0  0  0  0
   -6.7483   -7.3976  -16.3941 N   0  0  0  0  0  0  0  0  0  0  0  0
   -6.2015   -8.7287  -16.4892 C   0  0  0  0  0  0  0  0  0  0  0  0
   -4.8933   -8.7622  -17.2830 C   0  0  0  0  0  0  0  0  0  0  0  0
   -6.3442   -6.4917  -15.4317 C   0  0  0  0  0  0  0  0  0  0  0  0
   -7.1968   -5.3706  -15.4887 C   0  0  0  0  0  0  0  0  0  0  0  0
   -6.8181   -4.1422  -14.3693 S   0  0  0  0  0  0  0  0  0  0  0  0
   -5.4888   -5.1379  -13.7693 C   0  0  1  0  0  0  0  0  0  0  0  0
   -5.3803   -6.3866  -14.4270 C   0  0  0  0  0  0  0  0  0  0  0  0
   -4.5054   -3.5747  -12.0361 C   0  0  0  0  0  0  0  0  0  0  0  0
   -3.4789   -3.3088  -11.0494 C   0  0  0  0  0  0  0  0  0  0  0  0
   -2.4712   -4.1447  -10.6372 C   0  0  0  0  0  0  0  0  0  0  0  0
   -1.5056   -3.8024   -9.6667 C   0  0  0  0  0  0  0  0  0  0  0  0
   -0.6876   -3.5927   -8.8892 N   0  0  0  0  0  0  0  0  0  0  0  0
   -2.2362   -5.4551  -11.1015 C   0  0  0  0  0  0  0  0  0  0  0  0
   -1.9677   -6.5253  -11.4246 N   0  0  0  0  0  0  0  0  0  0  0  0
   -3.6930   -1.9498  -10.5479 C   0  0  0  0  0  0  0  0  0  0  0  0
   -2.9968   -1.1936   -9.6181 C   0  0  0  0  0  0  0  0  0  0  0  0
   -3.4459    0.0927   -9.3568 C   0  0  0  0  0  0  0  0  0  0  0  0
   -2.7845    0.8392   -8.4646 F   0  0  0  0  0  0  0  0  0  0  0  0
   -4.5633    0.6246   -9.9998 C   0  0  0  0  0  0  0  0  0  0  0  0
   -4.9596    1.8718   -9.7175 F   0  0  0  0  0  0  0  0  0  0  0  0
   -5.2657   -0.1255  -10.9295 C   0  0  0  0  0  0  0  0  0  0  0  0
   -4.8168   -1.4044  -11.1896 C   0  0  0  0  0  0  0  0  0  0  0  0
   -5.3728   -2.3974  -12.1356 C   0  0  0  0  0  0  0  0  0  0  0  0
   -6.3504   -2.2409  -12.8402 O   0  0  0  0  0  0  0  0  0  0  0  0
   -6.6403   -8.0474  -20.4824 C   0  0  0  0  0  0  0  0  0  0  0  0
   -4.4164   -7.4410  -13.9730 C   0  0  0  0  0  0  0  0  0  0  0  0
   -4.9652   -8.1812  -12.7481 C   0  0  0  0  0  0  0  0  0  0  0  0
   -4.6056   -4.7400  -12.7611 C   0  0  0  0  0  0  0  0  0  0  0  0
   -7.0007  -14.0202  -24.7384 H   0  0  0  0  0  0  0  0  0  0  0  0
  -10.7603  -14.7473  -27.9298 H   0  0  0  0  0  0  0  0  0  0  0  0
  -12.4750  -10.9351  -24.3052 H   0  0  0  0  0  0  0  0  0  0  0  0
  -13.9193   -9.8794  -23.2075 H   0  0  0  0  0  0  0  0  0  0  0  0
  -13.9723   -8.5124  -22.0865 H   0  0  0  0  0  0  0  0  0  0  0  0
  -12.6390   -8.4633  -24.8400 H   0  0  0  0  0  0  0  0  0  0  0  0
  -14.2045   -7.7585  -24.4364 H   0  0  0  0  0  0  0  0  0  0  0  0
  -12.7308   -7.1063  -23.7120 H   0  0  0  0  0  0  0  0  0  0  0  0
   -7.7498   -9.8711  -20.1971 H   0  0  0  0  0  0  0  0  0  0  0  0
   -6.7364   -9.4370  -18.8286 H   0  0  0  0  0  0  0  0  0  0  0  0
   -6.0219   -9.0924  -15.4735 H   0  0  0  0  0  0  0  0  0  0  0  0
   -6.9586   -9.3811  -16.9278 H   0  0  0  0  0  0  0  0  0  0  0  0
   -4.1268   -8.1766  -16.7824 H   0  0  0  0  0  0  0  0  0  0  0  0
   -4.5408   -9.7865  -17.3742 H   0  0  0  0  0  0  0  0  0  0  0  0
   -5.0188   -8.3413  -18.2757 H   0  0  0  0  0  0  0  0  0  0  0  0
   -2.1276   -1.5549   -9.0938 H   0  0  0  0  0  0  0  0  0  0  0  0
   -6.1298    0.2807  -11.4306 H   0  0  0  0  0  0  0  0  0  0  0  0
   -7.2814   -7.7097  -21.2933 H   0  0  0  0  0  0  0  0  0  0  0  0
   -6.3234   -7.1759  -19.9122 H   0  0  0  0  0  0  0  0  0  0  0  0
   -5.7663   -8.5285  -20.9123 H   0  0  0  0  0  0  0  0  0  0  0  0
   -4.2320   -8.1620  -14.7647 H   0  0  0  0  0  0  0  0  0  0  0  0
   -3.4523   -6.9994  -13.7163 H   0  0  0  0  0  0  0  0  0  0  0  0
   -5.9152   -8.6599  -12.9786 H   0  0  0  0  0  0  0  0  0  0  0  0
   -4.2571   -8.9411  -12.4294 H   0  0  0  0  0  0  0  0  0  0  0  0
   -5.1242   -7.4933  -11.9220 H   0  0  0  0  0  0  0  0  0  0  0  0
   -3.8543   -5.4794  -12.5249 H   0  0  0  0  0  0  0  0  0  0  0  0
  1  2  2  0  0  0  0
  3  1  1  0  0  0  0
  4  3  1  0  0  0  0
  4 69  1  0  0  0  0
  5  4  2  0  0  0  0
  6  5  1  0  0  0  0
  7  9  2  0  0  0  0
  7  5  1  0  0  0  0
  8  7  1  0  0  0  0
  9 10  1  0  0  0  0
 10 11  1  0  0  0  0
 10  3  2  0  0  0  0
 11 17  1  0  0  0  0
 12 13  1  0  0  0  0
 12 11  2  0  0  0  0
 13 14  3  0  0  0  0
 15 12  1  0  0  0  0
 16 15  3  0  0  0  0
 17  1  1  0  0  0  0
 17 18  2  0  0  0  0
 18 19  1  0  0  0  0
 19 23  2  0  0  0  0
 19 20  1  0  0  0  0
 20 21  1  0  0  0  0
 21 28  1  0  0  0  0
 22 21  2  0  0  0  0
 22 26  1  0  0  0  0
 23 22  1  0  0  0  0
 24 23  1  0  0  0  0
 24 73  1  0  0  0  0
 25 76  1  0  0  0  0
 25 24  1  0  0  0  0
 26 27  1  0  0  0  0
 27 32  1  0  0  0  0
 28 27  2  0  0  0  0
 28 29  1  0  0  0  0
 29 31  1  0  0  0  0
 30 29  1  0  0  0  0
 30 78  1  0  0  0  0
 31 39  2  0  0  0  0
 32 31  1  0  0  0  0
 32 33  2  0  0  0  0
 33 37  1  0  0  0  0
 34 33  1  0  0  0  0
 34 35  1  0  0  0  0
 35 36  1  0  0  0  0
 37 38  1  0  0  0  0
 37 36  2  0  0  0  0
 38 44  2  0  0  0  0
 39 38  1  0  0  0  0
 39 40  1  0  0  0  0
 40 43  1  0  0  0  0
 41 40  1  0  0  0  0
 41 79  1  0  0  0  0
 42 81  1  0  0  0  0
 42 41  1  0  0  0  0
 43 47  2  0  0  0  0
 44 43  1  0  0  0  0
 44 45  1  0  0  0  0
 45 46  1  0  0  0  0
 46 68  1  6  0  0  0
 47 66  1  0  0  0  0
 47 46  1  0  0  0  0
 48 49  1  0  0  0  0
 49 50  2  0  0  0  0
 49 55  1  0  0  0  0
 50 51  1  0  0  0  0
 51 52  3  0  0  0  0
 53 50  1  0  0  0  0
 54 53  3  0  0  0  0
 55 56  2  0  0  0  0
 56 57  1  0  0  0  0
 56 84  1  0  0  0  0
 57 58  1  0  0  0  0
 59 60  1  0  0  0  0
 59 57  2  0  0  0  0
 61 59  1  0  0  0  0
 62 61  2  0  0  0  0
 62 55  1  0  0  0  0
 63 48  1  0  0  0  0
 63 62  1  0  0  0  0
 64 63  2  0  0  0  0
 65 87  1  0  0  0  0
 65 30  1  0  0  0  0
 66 90  1  0  0  0  0
 66 67  1  0  0  0  0
 67 92  1  0  0  0  0
 67 93  1  0  0  0  0
 68 94  1  0  0  0  0
 68 48  2  0  0  0  0
 70  9  1  0  0  0  0
 71 18  1  0  0  0  0
 72 24  1  0  0  0  0
 74 25  1  0  0  0  0
 75 25  1  0  0  0  0
 77 30  1  0  0  0  0
 80 41  1  0  0  0  0
 82 42  1  0  0  0  0
 83 42  1  0  0  0  0
 85 61  1  0  0  0  0
 86 65  1  0  0  0  0
 88 65  1  0  0  0  0
 89 66  1  0  0  0  0
 91 67  1  0  0  0  0
M  RAD  2  34   2  46   2
M  END
