SCF done       -221.285393588311          0.000484411139
 OpenBabel12282109493D

121132  0  0  0  0  0  0  0  0999 V2000
    5.2357   -7.2123   -3.5081 C   0  0  0  0  0  0  0  0  0  0  0  0
    4.2285   -7.4630   -2.8758 O   0  0  0  0  0  0  0  0  0  0  0  0
    5.3600   -7.3167   -4.9782 C   0  0  0  0  0  0  0  0  0  0  0  0
    4.3893   -7.6683   -5.8930 C   0  0  0  0  0  0  0  0  0  0  0  0
    4.7313   -7.6891   -7.2391 C   0  0  0  0  0  0  0  0  0  0  0  0
    6.0300   -7.3594   -7.6397 C   0  0  0  0  0  0  0  0  0  0  0  0
    7.0055   -7.0094   -6.7120 C   0  0  0  0  0  0  0  0  0  0  0  0
    6.6675   -6.9891   -5.3689 C   0  0  0  0  0  0  0  0  0  0  0  0
    7.4466   -6.6757   -4.1719 C   0  0  0  0  0  0  0  0  0  0  0  0
    8.7932   -6.4146   -4.1687 C   0  0  0  0  0  0  0  0  0  0  0  0
    9.6033   -6.1851   -3.0362 C   0  0  0  0  0  0  0  0  0  0  0  0
   10.3494   -6.0046   -2.1811 N   0  0  0  0  0  0  0  0  0  0  0  0
    9.5910   -6.3710   -5.3322 C   0  0  0  0  0  0  0  0  0  0  0  0
   10.3020   -6.3151   -6.2316 N   0  0  0  0  0  0  0  0  0  0  0  0
    6.5529   -6.7520   -3.0294 C   0  0  0  0  0  0  0  0  0  0  0  0
    6.4400   -7.3826   -9.3079 Cl  0  0  0  0  0  0  0  0  0  0  0  0
    6.9236   -6.3735   -1.7590 C   0  0  0  0  0  0  0  0  0  0  0  0
    3.5528   -8.1192   -8.4123 Cl  0  0  0  0  0  0  0  0  0  0  0  0
   -0.4869    1.7981   17.3356 C   0  0  0  0  0  0  0  0  0  0  0  0
   -0.9304    0.7086   17.0312 O   0  0  0  0  0  0  0  0  0  0  0  0
   -1.1269    2.7401   18.2800 C   0  0  0  0  0  0  0  0  0  0  0  0
   -2.3239    2.5946   18.9499 C   0  0  0  0  0  0  0  0  0  0  0  0
   -2.7398    3.6244   19.7842 C   0  0  0  0  0  0  0  0  0  0  0  0
   -1.9541    4.7720   19.9300 C   0  0  0  0  0  0  0  0  0  0  0  0
   -0.7457    4.9108   19.2554 C   0  0  0  0  0  0  0  0  0  0  0  0
   -0.3279    3.8848   18.4239 C   0  0  0  0  0  0  0  0  0  0  0  0
    0.8669    3.7262   17.5961 C   0  0  0  0  0  0  0  0  0  0  0  0
    1.9175    4.6080   17.5716 C   0  0  0  0  0  0  0  0  0  0  0  0
    3.1221    4.4617   16.8511 C   0  0  0  0  0  0  0  0  0  0  0  0
    4.1406    4.4284   16.3203 N   0  0  0  0  0  0  0  0  0  0  0  0
    1.9564    5.8093   18.3113 C   0  0  0  0  0  0  0  0  0  0  0  0
    2.0571    6.8029   18.8774 N   0  0  0  0  0  0  0  0  0  0  0  0
    0.7432    2.4709   16.8766 C   0  0  0  0  0  0  0  0  0  0  0  0
   -2.4823    6.0427   20.9586 Cl  0  0  0  0  0  0  0  0  0  0  0  0
    1.6185    2.0819   15.8883 C   0  0  0  0  0  0  0  0  0  0  0  0
   -4.2252    3.4855   20.6355 Cl  0  0  0  0  0  0  0  0  0  0  0  0
    1.6773    0.9355   15.0875 C   0  0  0  0  0  0  0  0  0  0  0  0
    2.9361    0.9293   13.8395 S   0  0  0  0  0  0  0  0  0  0  0  0
    2.4249   -0.6093   13.3151 C   0  0  0  0  0  0  0  0  0  0  0  0
    1.3465   -1.1070   14.0679 C   0  0  0  0  0  0  0  0  0  0  0  0
    0.9330   -0.2466   15.0601 C   0  0  0  0  0  0  0  0  0  0  0  0
    2.7485   -1.5403   12.3078 C   0  0  0  0  0  0  0  0  0  0  0  0
    1.8844   -2.6363   12.4074 C   0  0  0  0  0  0  0  0  0  0  0  0
    0.9430   -2.4786   13.5768 C   0  0  0  0  0  0  0  0  0  0  0  0
    3.8235   -1.6548   10.9735 S   0  0  0  0  0  0  0  0  0  0  0  0
    3.1108   -3.1898   10.5339 C   0  0  0  0  0  0  0  0  0  0  0  0
    2.0866   -3.5609   11.3944 C   0  0  0  0  0  0  0  0  0  0  0  0
    3.5822   -3.8786    9.3685 C   0  0  0  0  0  0  0  0  0  0  0  0
    3.2250   -5.1799    9.0213 C   0  0  0  0  0  0  0  0  0  0  0  0
    3.6421   -5.7932    7.8019 C   0  0  0  0  0  0  0  0  0  0  0  0
    4.3893   -5.0995    6.8503 C   0  0  0  0  0  0  0  0  0  0  0  0
    4.8848   -3.8328    7.2482 C   0  0  0  0  0  0  0  0  0  0  0  0
    4.4833   -3.2292    8.4831 C   0  0  0  0  0  0  0  0  0  0  0  0
    5.7065   -3.0496    6.5547 N   0  0  0  0  0  0  0  0  0  0  0  0
    5.9648   -1.6945    7.3827 S   0  0  0  0  0  0  0  0  0  0  0  0
    5.0332   -2.0319    8.6520 N   0  0  0  0  0  0  0  0  0  0  0  0
    4.5801   -5.5239    5.4871 C   0  0  0  0  0  0  0  0  0  0  0  0
    6.0439   -5.1310    4.6256 S   0  0  0  0  0  0  0  0  0  0  0  0
    5.3928   -5.8389    3.2006 C   0  0  0  0  0  0  0  0  0  0  0  0
    4.0965   -6.3219    3.3825 C   0  0  0  0  0  0  0  0  0  0  0  0
    3.6393   -6.1448    4.6826 C   0  0  0  0  0  0  0  0  0  0  0  0
    5.7700   -6.0392    1.8560 C   0  0  0  0  0  0  0  0  0  0  0  0
    4.7087   -6.6585    1.1703 C   0  0  0  0  0  0  0  0  0  0  0  0
    3.5554   -6.9254    2.1081 C   0  0  0  0  0  0  0  0  0  0  0  0
    7.1038   -5.7093    0.8492 S   0  0  0  0  0  0  0  0  0  0  0  0
    6.2346   -6.3829   -0.5408 C   0  0  0  0  0  0  0  0  0  0  0  0
    4.9667   -6.8373   -0.1712 C   0  0  0  0  0  0  0  0  0  0  0  0
    2.4193   -5.9264    9.8439 O   0  0  0  0  0  0  0  0  0  0  0  0
    3.2352   -7.0811    7.6696 O   0  0  0  0  0  0  0  0  0  0  0  0
   -0.5314   -2.5269   13.1476 C   0  0  0  0  0  0  0  0  0  0  0  0
    1.2450   -3.4953   14.7009 C   0  0  0  0  0  0  0  0  0  0  0  0
    3.1160   -6.8174   10.7107 C   0  0  0  0  0  0  0  0  0  0  0  0
    4.0718   -8.0321    7.0272 C   0  0  0  0  0  0  0  0  0  0  0  0
    2.2644   -6.2362    1.6394 C   0  0  0  0  0  0  0  0  0  0  0  0
    3.3450   -8.4375    2.3468 C   0  0  0  0  0  0  0  0  0  0  0  0
   -0.8784   -1.4581   12.1180 C   0  0  0  0  0  0  0  0  0  0  0  0
    1.1075   -4.9565   14.2951 C   0  0  0  0  0  0  0  0  0  0  0  0
    2.9334   -9.2313    1.1145 C   0  0  0  0  0  0  0  0  0  0  0  0
    2.4075   -4.7214    1.5482 C   0  0  0  0  0  0  0  0  0  0  0  0
    3.9398   -9.3570    7.7661 C   0  0  0  0  0  0  0  0  0  0  0  0
    2.1074   -7.7817   11.3086 C   0  0  0  0  0  0  0  0  0  0  0  0
    3.3919   -7.9188   -5.5681 H   0  0  0  0  0  0  0  0  0  0  0  0
    7.9936   -6.7604   -7.0616 H   0  0  0  0  0  0  0  0  0  0  0  0
    7.9286   -5.9788   -1.6680 H   0  0  0  0  0  0  0  0  0  0  0  0
   -2.9193    1.7040   18.8255 H   0  0  0  0  0  0  0  0  0  0  0  0
   -0.1707    5.8113   19.3933 H   0  0  0  0  0  0  0  0  0  0  0  0
    2.4023    2.7936   15.6573 H   0  0  0  0  0  0  0  0  0  0  0  0
    0.1239   -0.4216   15.7445 H   0  0  0  0  0  0  0  0  0  0  0  0
    1.5075   -4.4510   11.2376 H   0  0  0  0  0  0  0  0  0  0  0  0
    2.6521   -6.3888    5.0329 H   0  0  0  0  0  0  0  0  0  0  0  0
    4.2896   -7.2559   -0.8924 H   0  0  0  0  0  0  0  0  0  0  0  0
   -0.7424   -3.5094   12.7242 H   0  0  0  0  0  0  0  0  0  0  0  0
   -1.1536   -2.3929   14.0342 H   0  0  0  0  0  0  0  0  0  0  0  0
    2.2666   -3.3209   15.0480 H   0  0  0  0  0  0  0  0  0  0  0  0
    0.5711   -3.2812   15.5326 H   0  0  0  0  0  0  0  0  0  0  0  0
    3.8809   -7.3661   10.1497 H   0  0  0  0  0  0  0  0  0  0  0  0
    3.6192   -6.2365   11.4991 H   0  0  0  0  0  0  0  0  0  0  0  0
    3.7592   -8.1621    5.9838 H   0  0  0  0  0  0  0  0  0  0  0  0
    5.1120   -7.6855    7.0316 H   0  0  0  0  0  0  0  0  0  0  0  0
    1.9989   -6.6264    0.6569 H   0  0  0  0  0  0  0  0  0  0  0  0
    1.4629   -6.4858    2.3376 H   0  0  0  0  0  0  0  0  0  0  0  0
    4.2794   -8.8488    2.7384 H   0  0  0  0  0  0  0  0  0  0  0  0
    2.5820   -8.5495    3.1209 H   0  0  0  0  0  0  0  0  0  0  0  0
   -0.2690   -1.5715   11.2240 H   0  0  0  0  0  0  0  0  0  0  0  0
   -1.9242   -1.5427   11.8331 H   0  0  0  0  0  0  0  0  0  0  0  0
   -0.7144   -0.4625   12.5235 H   0  0  0  0  0  0  0  0  0  0  0  0
    1.8029   -5.2007   13.4968 H   0  0  0  0  0  0  0  0  0  0  0  0
    1.3336   -5.5912   15.1491 H   0  0  0  0  0  0  0  0  0  0  0  0
    0.0973   -5.1829   13.9655 H   0  0  0  0  0  0  0  0  0  0  0  0
    3.6840   -9.1545    0.3337 H   0  0  0  0  0  0  0  0  0  0  0  0
    2.8270  -10.2804    1.3815 H   0  0  0  0  0  0  0  0  0  0  0  0
    1.9820   -8.8860    0.7206 H   0  0  0  0  0  0  0  0  0  0  0  0
    3.1962   -4.4518    0.8497 H   0  0  0  0  0  0  0  0  0  0  0  0
    1.4768   -4.2812    1.1989 H   0  0  0  0  0  0  0  0  0  0  0  0
    2.6462   -4.2929    2.5192 H   0  0  0  0  0  0  0  0  0  0  0  0
    2.8937   -9.6461    7.8131 H   0  0  0  0  0  0  0  0  0  0  0  0
    4.4985  -10.1246    7.2383 H   0  0  0  0  0  0  0  0  0  0  0  0
    4.3229   -9.2762    8.7800 H   0  0  0  0  0  0  0  0  0  0  0  0
    1.6175   -8.3362   10.5133 H   0  0  0  0  0  0  0  0  0  0  0  0
    2.6111   -8.4762   11.9750 H   0  0  0  0  0  0  0  0  0  0  0  0
    1.3516   -7.2378   11.8684 H   0  0  0  0  0  0  0  0  0  0  0  0
  1 15  1  0  0  0  0
  1  2  2  0  0  0  0
  3  1  1  0  0  0  0
  4 82  1  0  0  0  0
  4  3  2  0  0  0  0
  5  4  1  0  0  0  0
  6  5  2  0  0  0  0
  6  7  1  0  0  0  0
  7  8  2  0  0  0  0
  8  3  1  0  0  0  0
  8  9  1  0  0  0  0
  9 10  2  0  0  0  0
  9 15  1  0  0  0  0
 10 11  1  0  0  0  0
 11 12  3  0  0  0  0
 13 10  1  0  0  0  0
 14 13  3  0  0  0  0
 15 17  2  0  0  0  0
 16  6  1  0  0  0  0
 17 84  1  0  0  0  0
 17 66  1  0  0  0  0
 18  5  1  0  0  0  0
 19 21  1  0  0  0  0
 20 19  2  0  0  0  0
 21 26  2  0  0  0  0
 21 22  1  0  0  0  0
 22 23  2  0  0  0  0
 23 24  1  0  0  0  0
 23 36  1  0  0  0  0
 24 34  1  0  0  0  0
 25 86  1  0  0  0  0
 25 24  2  0  0  0  0
 26 25  1  0  0  0  0
 27 26  1  0  0  0  0
 28 27  2  0  0  0  0
 28 31  1  0  0  0  0
 29 28  1  0  0  0  0
 30 29  3  0  0  0  0
 31 32  3  0  0  0  0
 33 19  1  0  0  0  0
 33 27  1  0  0  0  0
 35 33  2  0  0  0  0
 37 35  1  0  0  0  0
 38 37  1  0  0  0  0
 39 38  1  0  0  0  0
 39 40  2  0  0  0  0
 40 41  1  0  0  0  0
 41 37  2  0  0  0  0
 41 88  1  0  0  0  0
 42 43  2  0  0  0  0
 42 39  1  0  0  0  0
 43 44  1  0  0  0  0
 44 40  1  0  0  0  0
 44 71  1  0  0  0  0
 45 42  1  0  0  0  0
 46 45  1  0  0  0  0
 46 47  2  0  0  0  0
 47 43  1  0  0  0  0
 48 46  1  0  0  0  0
 49 48  2  0  0  0  0
 49 68  1  0  0  0  0
 50 49  1  0  0  0  0
 51 52  1  0  0  0  0
 51 50  2  0  0  0  0
 52 53  1  0  0  0  0
 53 56  2  0  0  0  0
 53 48  1  0  0  0  0
 54 52  2  0  0  0  0
 54 55  1  0  0  0  0
 55 56  1  0  0  0  0
 57 51  1  0  0  0  0
 58 57  1  0  0  0  0
 59 60  2  0  0  0  0
 59 58  1  0  0  0  0
 60 61  1  0  0  0  0
 61 90  1  0  0  0  0
 61 57  2  0  0  0  0
 62 59  1  0  0  0  0
 63 62  2  0  0  0  0
 63 64  1  0  0  0  0
 64 75  1  0  0  0  0
 64 60  1  0  0  0  0
 65 62  1  0  0  0  0
 66 67  2  0  0  0  0
 66 65  1  0  0  0  0
 67 63  1  0  0  0  0
 68 72  1  0  0  0  0
 69 50  1  0  0  0  0
 70 44  1  0  0  0  0
 70 93  1  0  0  0  0
 71 94  1  0  0  0  0
 71 95  1  0  0  0  0
 72 81  1  0  0  0  0
 72 97  1  0  0  0  0
 73 99  1  0  0  0  0
 73 69  1  0  0  0  0
 73 80  1  0  0  0  0
 74 64  1  0  0  0  0
 74101  1  0  0  0  0
 75102  1  0  0  0  0
 75103  1  0  0  0  0
 76106  1  0  0  0  0
 76 70  1  0  0  0  0
 77 71  1  0  0  0  0
 77108  1  0  0  0  0
 78111  1  0  0  0  0
 78 75  1  0  0  0  0
 79 74  1  0  0  0  0
 79115  1  0  0  0  0
 80116  1  0  0  0  0
 80118  1  0  0  0  0
 81121  1  0  0  0  0
 81120  1  0  0  0  0
 83  7  1  0  0  0  0
 85 22  1  0  0  0  0
 87 35  1  0  0  0  0
 89 47  1  0  0  0  0
 91 67  1  0  0  0  0
 92 70  1  0  0  0  0
 96 72  1  0  0  0  0
 98 73  1  0  0  0  0
100 74  1  0  0  0  0
104 76  1  0  0  0  0
105 76  1  0  0  0  0
107 77  1  0  0  0  0
109 77  1  0  0  0  0
110 78  1  0  0  0  0
112 78  1  0  0  0  0
113 79  1  0  0  0  0
114 79  1  0  0  0  0
117 80  1  0  0  0  0
119 81  1  0  0  0  0
M  END
