SCF done       -233.128564566485          0.000880221058
 OpenBabel12282109493D

138152  0  0  0  0  0  0  0  0999 V2000
   -0.5412   -0.7497   -0.7022 C   0  0  0  0  0  0  0  0  0  0  0  0
   -0.9215    0.3951    0.0586 C   0  0  0  0  0  0  0  0  0  0  0  0
   -0.1235    0.7937    1.1337 C   0  0  0  0  0  0  0  0  0  0  0  0
    0.9575    0.0172    1.4778 C   0  0  0  0  0  0  0  0  0  0  0  0
    1.3370   -1.1279    0.7174 C   0  0  0  0  0  0  0  0  0  0  0  0
    0.5894   -1.4749   -0.4104 C   0  0  0  0  0  0  0  0  0  0  0  0
    2.0051    0.2392    3.0439 Se  0  0  0  0  0  0  0  0  0  0  0  0
    2.8441   -1.3503    2.5234 C   0  0  0  0  0  0  0  0  0  0  0  0
    2.4009   -1.8449    1.3080 C   0  0  0  0  0  0  0  0  0  0  0  0
    3.7388   -2.2866    3.0958 C   0  0  0  0  0  0  0  0  0  0  0  0
    3.8537   -3.3971    2.2462 C   0  0  0  0  0  0  0  0  0  0  0  0
    3.0702   -3.1608    0.9740 C   0  0  0  0  0  0  0  0  0  0  0  0
    1.9768   -4.1826    0.7177 C   0  0  0  0  0  0  0  0  0  0  0  0
    4.0663   -3.0560   -0.1685 C   0  0  0  0  0  0  0  0  0  0  0  0
    1.1392   -4.5513    1.7625 C   0  0  0  0  0  0  0  0  0  0  0  0
    0.0426   -5.3594    1.5315 C   0  0  0  0  0  0  0  0  0  0  0  0
   -0.2478   -5.8177    0.2529 C   0  0  0  0  0  0  0  0  0  0  0  0
    0.6094   -5.4708   -0.7823 C   0  0  0  0  0  0  0  0  0  0  0  0
    1.7075   -4.6614   -0.5572 C   0  0  0  0  0  0  0  0  0  0  0  0
    4.8099   -4.1771   -0.5211 C   0  0  0  0  0  0  0  0  0  0  0  0
    5.7396   -4.1090   -1.5397 C   0  0  0  0  0  0  0  0  0  0  0  0
    5.9538   -2.9240   -2.2333 C   0  0  0  0  0  0  0  0  0  0  0  0
    5.2102   -1.8086   -1.8753 C   0  0  0  0  0  0  0  0  0  0  0  0
    4.2774   -1.8697   -0.8548 C   0  0  0  0  0  0  0  0  0  0  0  0
   -1.4991   -6.5978   -0.0245 C   0  0  0  0  0  0  0  0  0  0  0  0
   -2.6284   -5.6423   -0.4184 C   0  0  0  0  0  0  0  0  0  0  0  0
    6.9986   -2.8396   -3.3078 C   0  0  0  0  0  0  0  0  0  0  0  0
    8.3441   -2.4225   -2.7102 C   0  0  0  0  0  0  0  0  0  0  0  0
    4.6099   -2.4764    4.5486 S   0  0  0  0  0  0  0  0  0  0  0  0
    5.1300   -4.0903    4.0374 C   0  0  0  0  0  0  0  0  0  0  0  0
    4.6352   -4.4045    2.7722 C   0  0  0  0  0  0  0  0  0  0  0  0
    5.9041   -4.8048    4.9634 C   0  0  0  0  0  0  0  0  0  0  0  0
    6.4274   -6.0748    4.9391 C   0  0  0  0  0  0  0  0  0  0  0  0
    6.3541   -7.0871    3.8632 C   0  0  0  0  0  0  0  0  0  0  0  0
    7.0472   -8.2794    4.3864 C   0  0  0  0  0  0  0  0  0  0  0  0
    7.5283   -8.0223    5.6794 C   0  0  0  0  0  0  0  0  0  0  0  0
    7.1662   -6.6528    6.0494 C   0  0  0  0  0  0  0  0  0  0  0  0
    5.8506   -7.0017    2.7602 O   0  0  0  0  0  0  0  0  0  0  0  0
    7.4848   -6.0654    7.2465 C   0  0  0  0  0  0  0  0  0  0  0  0
    7.1639   -4.7550    7.6618 C   0  0  0  0  0  0  0  0  0  0  0  0
    8.2099   -6.7052    8.2755 C   0  0  0  0  0  0  0  0  0  0  0  0
    6.9528   -3.7142    8.1003 N   0  0  0  0  0  0  0  0  0  0  0  0
    8.7884   -7.1532    9.1601 N   0  0  0  0  0  0  0  0  0  0  0  0
    7.2373   -9.5013    3.7692 C   0  0  0  0  0  0  0  0  0  0  0  0
    7.9204  -10.4912    4.4561 C   0  0  0  0  0  0  0  0  0  0  0  0
    8.3965  -10.2370    5.7374 C   0  0  0  0  0  0  0  0  0  0  0  0
    8.2126   -9.0101    6.3679 C   0  0  0  0  0  0  0  0  0  0  0  0
   -1.8212   -1.2130   -2.0235 Se  0  0  0  0  0  0  0  0  0  0  0  0
   -2.8218    0.2088   -1.3324 C   0  0  0  0  0  0  0  0  0  0  0  0
   -2.1737    0.9175   -0.3344 C   0  0  0  0  0  0  0  0  0  0  0  0
   -4.1458    0.6964   -1.4491 C   0  0  0  0  0  0  0  0  0  0  0  0
   -4.3511    1.7133   -0.5051 C   0  0  0  0  0  0  0  0  0  0  0  0
   -3.0605    2.0085    0.2274 C   0  0  0  0  0  0  0  0  0  0  0  0
   -3.1390    1.8090    1.7303 C   0  0  0  0  0  0  0  0  0  0  0  0
   -2.6157    3.4069   -0.1659 C   0  0  0  0  0  0  0  0  0  0  0  0
   -3.7476    0.6637    2.2274 C   0  0  0  0  0  0  0  0  0  0  0  0
   -3.6984    0.3721    3.5770 C   0  0  0  0  0  0  0  0  0  0  0  0
   -3.0392    1.2135    4.4639 C   0  0  0  0  0  0  0  0  0  0  0  0
   -2.4601    2.3728    3.9664 C   0  0  0  0  0  0  0  0  0  0  0  0
   -2.5051    2.6690    2.6166 C   0  0  0  0  0  0  0  0  0  0  0  0
   -3.3924    4.4953    0.2164 C   0  0  0  0  0  0  0  0  0  0  0  0
   -3.0309    5.7768   -0.1495 C   0  0  0  0  0  0  0  0  0  0  0  0
   -1.8905    6.0079   -0.9096 C   0  0  0  0  0  0  0  0  0  0  0  0
   -1.1180    4.9181   -1.2845 C   0  0  0  0  0  0  0  0  0  0  0  0
   -1.4749    3.6310   -0.9218 C   0  0  0  0  0  0  0  0  0  0  0  0
   -2.8797    0.8434    5.9092 C   0  0  0  0  0  0  0  0  0  0  0  0
   -1.5627    0.0887    6.1077 C   0  0  0  0  0  0  0  0  0  0  0  0
   -1.4785    7.4054   -1.2713 C   0  0  0  0  0  0  0  0  0  0  0  0
   -0.5868    7.9996   -0.1789 C   0  0  0  0  0  0  0  0  0  0  0  0
   -5.5581    0.3142   -2.3233 S   0  0  0  0  0  0  0  0  0  0  0  0
   -6.4700    1.5124   -1.3920 C   0  0  0  0  0  0  0  0  0  0  0  0
   -5.6514    2.1735   -0.4772 C   0  0  0  0  0  0  0  0  0  0  0  0
   -7.8406    1.5940   -1.6795 C   0  0  0  0  0  0  0  0  0  0  0  0
   -8.8594    2.3074   -1.0976 C   0  0  0  0  0  0  0  0  0  0  0  0
   -8.8090    3.2096    0.0736 C   0  0  0  0  0  0  0  0  0  0  0  0
  -10.2129    3.5451    0.3799 C   0  0  0  0  0  0  0  0  0  0  0  0
  -11.0633    2.9402   -0.5589 C   0  0  0  0  0  0  0  0  0  0  0  0
  -10.2451    2.2041   -1.5237 C   0  0  0  0  0  0  0  0  0  0  0  0
   -7.8424    3.6210    0.6847 O   0  0  0  0  0  0  0  0  0  0  0  0
  -10.7350    1.5762   -2.6391 C   0  0  0  0  0  0  0  0  0  0  0  0
   -9.9813    0.9119   -3.6309 C   0  0  0  0  0  0  0  0  0  0  0  0
  -12.1038    1.5229   -2.9811 C   0  0  0  0  0  0  0  0  0  0  0  0
   -9.4606    0.3645   -4.4965 N   0  0  0  0  0  0  0  0  0  0  0  0
  -13.1955    1.4353   -3.3253 N   0  0  0  0  0  0  0  0  0  0  0  0
  -10.7061    4.3182    1.4140 C   0  0  0  0  0  0  0  0  0  0  0  0
  -12.0769    4.4865    1.5200 C   0  0  0  0  0  0  0  0  0  0  0  0
  -12.9193    3.8810    0.5942 C   0  0  0  0  0  0  0  0  0  0  0  0
  -12.4343    3.1051   -0.4543 C   0  0  0  0  0  0  0  0  0  0  0  0
    9.2432  -11.4794    6.5784 Cl  0  0  0  0  0  0  0  0  0  0  0  0
  -14.6221    4.0947    0.7454 Cl  0  0  0  0  0  0  0  0  0  0  0  0
   -0.3982    1.6583    1.7179 H   0  0  0  0  0  0  0  0  0  0  0  0
    0.8654   -2.3385   -0.9957 H   0  0  0  0  0  0  0  0  0  0  0  0
    1.3390   -4.1896    2.7615 H   0  0  0  0  0  0  0  0  0  0  0  0
   -0.6049   -5.6269    2.3542 H   0  0  0  0  0  0  0  0  0  0  0  0
    0.4084   -5.8257   -1.7831 H   0  0  0  0  0  0  0  0  0  0  0  0
    2.3495   -4.3939   -1.3840 H   0  0  0  0  0  0  0  0  0  0  0  0
    4.6515   -5.1104   -0.0029 H   0  0  0  0  0  0  0  0  0  0  0  0
    6.3071   -4.9906   -1.8007 H   0  0  0  0  0  0  0  0  0  0  0  0
    5.3587   -0.8767   -2.4018 H   0  0  0  0  0  0  0  0  0  0  0  0
    3.7130   -0.9850   -0.5998 H   0  0  0  0  0  0  0  0  0  0  0  0
   -1.3254   -7.3046   -0.8381 H   0  0  0  0  0  0  0  0  0  0  0  0
   -1.7945   -7.1611    0.8625 H   0  0  0  0  0  0  0  0  0  0  0  0
   -2.3524   -5.0733   -1.3041 H   0  0  0  0  0  0  0  0  0  0  0  0
   -3.5398   -6.1957   -0.6309 H   0  0  0  0  0  0  0  0  0  0  0  0
   -2.8273   -4.9397    0.3881 H   0  0  0  0  0  0  0  0  0  0  0  0
    7.1075   -3.8103   -3.7956 H   0  0  0  0  0  0  0  0  0  0  0  0
    6.6975   -2.1091   -4.0615 H   0  0  0  0  0  0  0  0  0  0  0  0
    8.6670   -3.1451   -1.9640 H   0  0  0  0  0  0  0  0  0  0  0  0
    9.1028   -2.3618   -3.4868 H   0  0  0  0  0  0  0  0  0  0  0  0
    8.2596   -1.4501   -2.2299 H   0  0  0  0  0  0  0  0  0  0  0  0
    4.8447   -5.3488    2.3060 H   0  0  0  0  0  0  0  0  0  0  0  0
    6.0970   -4.2392    5.8671 H   0  0  0  0  0  0  0  0  0  0  0  0
    6.8550   -9.6695    2.7743 H   0  0  0  0  0  0  0  0  0  0  0  0
    8.0866  -11.4582    4.0085 H   0  0  0  0  0  0  0  0  0  0  0  0
    8.5996   -8.8595    7.3617 H   0  0  0  0  0  0  0  0  0  0  0  0
   -4.2492   -0.0126    1.5494 H   0  0  0  0  0  0  0  0  0  0  0  0
   -4.1670   -0.5295    3.9447 H   0  0  0  0  0  0  0  0  0  0  0  0
   -1.9524    3.0474    4.6410 H   0  0  0  0  0  0  0  0  0  0  0  0
   -2.0313    3.5696    2.2532 H   0  0  0  0  0  0  0  0  0  0  0  0
   -4.2788    4.3383    0.8118 H   0  0  0  0  0  0  0  0  0  0  0  0
   -3.6472    6.6103    0.1552 H   0  0  0  0  0  0  0  0  0  0  0  0
   -0.2254    5.0739   -1.8736 H   0  0  0  0  0  0  0  0  0  0  0  0
   -0.8558    2.8024   -1.2322 H   0  0  0  0  0  0  0  0  0  0  0  0
   -2.8757    1.7435    6.5269 H   0  0  0  0  0  0  0  0  0  0  0  0
   -3.7104    0.2115    6.2286 H   0  0  0  0  0  0  0  0  0  0  0  0
   -0.7212    0.7056    5.7979 H   0  0  0  0  0  0  0  0  0  0  0  0
   -1.4305   -0.1798    7.1529 H   0  0  0  0  0  0  0  0  0  0  0  0
   -1.5547   -0.8207    5.5104 H   0  0  0  0  0  0  0  0  0  0  0  0
   -0.9325    7.3975   -2.2167 H   0  0  0  0  0  0  0  0  0  0  0  0
   -2.3642    8.0320   -1.3927 H   0  0  0  0  0  0  0  0  0  0  0  0
    0.3072    7.3937   -0.0489 H   0  0  0  0  0  0  0  0  0  0  0  0
   -0.2859    9.0108   -0.4421 H   0  0  0  0  0  0  0  0  0  0  0  0
   -1.1195    8.0314    0.7689 H   0  0  0  0  0  0  0  0  0  0  0  0
   -6.0385    2.9309    0.1782 H   0  0  0  0  0  0  0  0  0  0  0  0
   -8.1354    0.9369   -2.4893 H   0  0  0  0  0  0  0  0  0  0  0  0
  -10.0285    4.7729    2.1198 H   0  0  0  0  0  0  0  0  0  0  0  0
  -12.4991    5.0807    2.3148 H   0  0  0  0  0  0  0  0  0  0  0  0
  -13.1245    2.6540   -1.1473 H   0  0  0  0  0  0  0  0  0  0  0  0
  1  6  2  0  0  0  0
  1  2  1  0  0  0  0
  2  3  2  0  0  0  0
  3  4  1  0  0  0  0
  3 91  1  0  0  0  0
  4  7  1  0  0  0  0
  5  9  1  0  0  0  0
  5  4  2  0  0  0  0
  6  5  1  0  0  0  0
  8  7  1  0  0  0  0
  8 10  1  0  0  0  0
  9  8  2  0  0  0  0
 10 29  1  0  0  0  0
 11 31  1  0  0  0  0
 11 10  2  0  0  0  0
 12  9  1  0  0  0  0
 12 11  1  0  0  0  0
 13 12  1  0  0  0  0
 13 15  2  0  0  0  0
 14 12  1  0  0  0  0
 15 93  1  0  0  0  0
 16 15  1  0  0  0  0
 16 94  1  0  0  0  0
 17 16  2  0  0  0  0
 18 19  2  0  0  0  0
 18 17  1  0  0  0  0
 19 13  1  0  0  0  0
 20 14  1  0  0  0  0
 20 97  1  0  0  0  0
 21 20  2  0  0  0  0
 22 23  2  0  0  0  0
 22 21  1  0  0  0  0
 23 24  1  0  0  0  0
 24100  1  0  0  0  0
 24 14  2  0  0  0  0
 25 17  1  0  0  0  0
 25102  1  0  0  0  0
 26 25  1  0  0  0  0
 26105  1  0  0  0  0
 27 28  1  0  0  0  0
 27 22  1  0  0  0  0
 28110  1  0  0  0  0
 28108  1  0  0  0  0
 30 29  1  0  0  0  0
 30 32  1  0  0  0  0
 31 30  2  0  0  0  0
 32112  1  0  0  0  0
 33 32  1  0  0  0  0
 33 37  2  0  0  0  0
 34 35  1  0  0  0  0
 34 33  1  0  0  0  0
 35 36  1  0  0  0  0
 36 37  1  0  0  0  0
 36 47  2  0  0  0  0
 37 39  1  0  0  0  0
 38 34  2  0  0  0  0
 39 40  1  0  0  0  0
 39 41  1  0  0  0  0
 40 42  3  0  0  0  0
 41 43  3  0  0  0  0
 44 35  2  0  0  0  0
 44 45  1  0  0  0  0
 45 46  2  0  0  0  0
 46 47  1  0  0  0  0
 46 89  1  0  0  0  0
 47115  1  0  0  0  0
 48 49  1  0  0  0  0
 48  1  1  0  0  0  0
 49 50  2  0  0  0  0
 50  2  1  0  0  0  0
 50 53  1  0  0  0  0
 51 49  1  0  0  0  0
 51 52  2  0  0  0  0
 52 72  1  0  0  0  0
 52 53  1  0  0  0  0
 53 54  1  0  0  0  0
 54 56  2  0  0  0  0
 54 60  1  0  0  0  0
 55 61  2  0  0  0  0
 55 53  1  0  0  0  0
 56 57  1  0  0  0  0
 57117  1  0  0  0  0
 57 58  2  0  0  0  0
 58 66  1  0  0  0  0
 59 58  1  0  0  0  0
 59118  1  0  0  0  0
 60 59  2  0  0  0  0
 61120  1  0  0  0  0
 62121  1  0  0  0  0
 62 61  1  0  0  0  0
 63 62  2  0  0  0  0
 64 65  2  0  0  0  0
 64 63  1  0  0  0  0
 65 55  1  0  0  0  0
 66 67  1  0  0  0  0
 66125  1  0  0  0  0
 66124  1  0  0  0  0
 67127  1  0  0  0  0
 68 63  1  0  0  0  0
 68 69  1  0  0  0  0
 69131  1  0  0  0  0
 69133  1  0  0  0  0
 70 51  1  0  0  0  0
 70 71  1  0  0  0  0
 71 72  2  0  0  0  0
 72134  1  0  0  0  0
 73 71  1  0  0  0  0
 73 74  2  0  0  0  0
 74 75  1  0  0  0  0
 75 76  1  0  0  0  0
 75 79  2  0  0  0  0
 76 85  2  0  0  0  0
 77 88  2  0  0  0  0
 77 76  1  0  0  0  0
 78 74  1  0  0  0  0
 78 77  1  0  0  0  0
 80 78  2  0  0  0  0
 81 80  1  0  0  0  0
 82 80  1  0  0  0  0
 83 81  3  0  0  0  0
 84 82  3  0  0  0  0
 85 86  1  0  0  0  0
 85136  1  0  0  0  0
 86137  1  0  0  0  0
 87 90  1  0  0  0  0
 87 86  2  0  0  0  0
 88 87  1  0  0  0  0
 92  6  1  0  0  0  0
 95 18  1  0  0  0  0
 96 19  1  0  0  0  0
 98 21  1  0  0  0  0
 99 23  1  0  0  0  0
101 25  1  0  0  0  0
103 26  1  0  0  0  0
104 26  1  0  0  0  0
106 27  1  0  0  0  0
107 27  1  0  0  0  0
109 28  1  0  0  0  0
111 31  1  0  0  0  0
113 44  1  0  0  0  0
114 45  1  0  0  0  0
116 56  1  0  0  0  0
119 60  1  0  0  0  0
122 64  1  0  0  0  0
123 65  1  0  0  0  0
126 67  1  0  0  0  0
128 67  1  0  0  0  0
129 68  1  0  0  0  0
130 68  1  0  0  0  0
132 69  1  0  0  0  0
135 73  1  0  0  0  0
138 88  1  0  0  0  0
M  RAD  2  32   2  39   2
M  END
