BDTS-4Cl.sdf
  xtb     12202113333D
 energy: -244.939195522553 gnorm: 0.000642350124 xtb: 6.4.1 (unknown)
138152  0     0  0            999 V2000
  -14.6434   -3.3099   -5.0543 C   0  0  0  0  0  0  0  0  0  0  0  0
  -14.2382   -3.4013   -6.3824 C   0  0  0  0  0  0  0  0  0  0  0  0
  -12.8909   -3.2941   -6.7396 C   0  0  0  0  0  0  0  0  0  0  0  0
  -11.9224   -3.0921   -5.7637 C   0  0  0  0  0  0  0  0  0  0  0  0
  -12.3299   -3.0018   -4.4494 C   0  0  0  0  0  0  0  0  0  0  0  0
  -13.6813   -3.1084   -4.0792 C   0  0  0  0  0  0  0  0  0  0  0  0
  -11.5075   -2.7883   -3.2398 C   0  0  0  0  0  0  0  0  0  0  0  0
  -12.4447   -2.7692   -2.1153 C   0  0  0  0  0  0  0  0  0  0  0  0
  -13.7838   -2.9701   -2.6255 C   0  0  0  0  0  0  0  0  0  0  0  0
  -12.1099   -2.5853   -0.7921 C   0  0  0  0  0  0  0  0  0  0  0  0
  -10.8698   -2.3781   -0.1856 C   0  0  0  0  0  0  0  0  0  0  0  0
  -10.7395   -2.2012    1.2025 C   0  0  0  0  0  0  0  0  0  0  0  0
   -9.4473   -2.0018    1.6256 C   0  0  0  0  0  0  0  0  0  0  0  0
   -8.5502   -2.0256    0.5424 C   0  0  0  0  0  0  0  0  0  0  0  0
   -9.3032   -2.2920   -0.9726 S   0  0  0  0  0  0  0  0  0  0  0  0
   -8.4890   -1.6847    3.2254 Si  0  0  0  0  0  4  0  0  0  0  0  0
   -6.8907   -1.6109    2.2144 C   0  0  0  0  0  0  0  0  0  0  0  0
   -7.1948   -1.8186    0.8704 C   0  0  0  0  0  0  0  0  0  0  0  0
   -5.5306   -1.3999    2.4121 C   0  0  0  0  0  0  0  0  0  0  0  0
   -4.7929   -1.4417    1.2432 C   0  0  0  0  0  0  0  0  0  0  0  0
   -5.8012   -1.7585   -0.1441 S   0  0  0  0  0  0  0  0  0  0  0  0
   -3.3962   -1.2316    1.0897 C   0  0  0  0  0  0  0  0  0  0  0  0
   -8.9066   -0.0091    4.0338 C   0  0  0  0  0  0  0  0  0  0  0  0
   -8.5497   -3.1630    4.4275 C   0  0  0  0  0  0  0  0  0  0  0  0
   -7.6244   -2.9793    5.6266 C   0  0  0  0  0  0  0  0  0  0  0  0
  -10.2747   -0.0116    4.7092 C   0  0  0  0  0  0  0  0  0  0  0  0
  -10.2969   -2.6581   -3.2103 O   0  0  0  0  0  0  0  0  0  0  0  0
  -15.4266   -3.6502   -7.5981 Cl  0  0  0  0  0  0  0  0  0  0  0  0
  -12.4265   -3.4112   -8.3893 Cl  0  0  0  0  0  0  0  0  0  0  0  0
  -14.9552   -3.0280   -1.9123 C   0  0  0  0  0  0  0  0  0  0  0  0
  -15.0804   -2.8988   -0.5138 C   0  0  0  0  0  0  0  0  0  0  0  0
  -16.2249   -3.2309   -2.4924 C   0  0  0  0  0  0  0  0  0  0  0  0
  -17.2882   -3.3891   -2.8956 N   0  0  0  0  0  0  0  0  0  0  0  0
  -15.2749   -2.8081    0.6152 N   0  0  0  0  0  0  0  0  0  0  0  0
    4.5952    0.9058   -0.2958 C   0  0  0  0  0  0  0  0  0  0  0  0
    5.5082    1.5386    1.0490 S   0  0  0  0  0  0  0  0  0  0  0  0
    6.8090    1.9376   -0.0114 C   0  0  0  0  0  0  0  0  0  0  0  0
    6.5537    1.5861   -1.3351 C   0  0  0  0  0  0  0  0  0  0  0  0
    5.2995    1.0023   -1.4819 C   0  0  0  0  0  0  0  0  0  0  0  0
    8.0378    2.5785    0.2482 C   0  0  0  0  0  0  0  0  0  0  0  0
    8.8678    2.7955   -0.8621 C   0  0  0  0  0  0  0  0  0  0  0  0
    8.0322    2.0937   -2.4117 Si  0  0  0  0  0  4  0  0  0  0  0  0
    8.7026    3.1850    1.7019 S   0  0  0  0  0  0  0  0  0  0  0  0
   10.1211    3.7766    0.8314 C   0  0  0  0  0  0  0  0  0  0  0  0
   10.0272    3.4646   -0.5250 C   0  0  0  0  0  0  0  0  0  0  0  0
   11.0882    4.4345    1.6017 C   0  0  0  0  0  0  0  0  0  0  0  0
   12.2391    5.1039    1.2546 C   0  0  0  0  0  0  0  0  0  0  0  0
   13.1224    5.7195    2.2285 C   0  0  0  0  0  0  0  0  0  0  0  0
   14.1054    6.5168    1.4968 C   0  0  0  0  0  0  0  0  0  0  0  0
   13.8923    6.3369    0.1214 C   0  0  0  0  0  0  0  0  0  0  0  0
   12.7446    5.4272   -0.0930 C   0  0  0  0  0  0  0  0  0  0  0  0
   15.1251    7.3487    1.9289 C   0  0  0  0  0  0  0  0  0  0  0  0
   15.9155    7.9838    0.9768 C   0  0  0  0  0  0  0  0  0  0  0  0
   15.6992    7.7924   -0.3913 C   0  0  0  0  0  0  0  0  0  0  0  0
   14.6760    6.9600   -0.8273 C   0  0  0  0  0  0  0  0  0  0  0  0
   16.6975    8.5900   -1.5395 Cl  0  0  0  0  0  0  0  0  0  0  0  0
   17.1782    9.0229    1.5039 Cl  0  0  0  0  0  0  0  0  0  0  0  0
   12.3371    5.0626   -1.1777 O   0  0  0  0  0  0  0  0  0  0  0  0
   13.1072    5.5611    3.5911 C   0  0  0  0  0  0  0  0  0  0  0  0
   12.2349    4.7325    4.3285 C   0  0  0  0  0  0  0  0  0  0  0  0
   14.0107    6.1968    4.4691 C   0  0  0  0  0  0  0  0  0  0  0  0
    8.9577    0.5920   -3.1295 C   0  0  0  0  0  0  0  0  0  0  0  0
    7.5757    3.4399   -3.6784 C   0  0  0  0  0  0  0  0  0  0  0  0
    6.8361    4.6155   -3.0470 C   0  0  0  0  0  0  0  0  0  0  0  0
    9.2695   -0.4668   -2.0761 C   0  0  0  0  0  0  0  0  0  0  0  0
   11.5874    4.0767    5.0148 N   0  0  0  0  0  0  0  0  0  0  0  0
   14.7070    6.6795    5.2438 N   0  0  0  0  0  0  0  0  0  0  0  0
   -2.3978   -0.8714    2.4836 S   0  0  0  0  0  0  0  0  0  0  0  0
   -0.9962   -0.6737    1.4667 C   0  0  0  0  0  0  0  0  0  0  0  0
   -1.3055   -0.9332    0.1081 C   0  0  0  0  0  0  0  0  0  0  0  0
   -2.6756   -1.2326   -0.0708 C   0  0  0  0  0  0  0  0  0  0  0  0
    0.2737   -0.3212    1.9064 C   0  0  0  0  0  0  0  0  0  0  0  0
    1.2504   -0.1357    0.9052 C   0  0  0  0  0  0  0  0  0  0  0  0
    0.9444   -0.4073   -0.4508 C   0  0  0  0  0  0  0  0  0  0  0  0
   -0.3041   -0.8417   -0.8813 C   0  0  0  0  0  0  0  0  0  0  0  0
    2.5709    0.3450    1.0638 C   0  0  0  0  0  0  0  0  0  0  0  0
    3.2764    0.4135   -0.1039 C   0  0  0  0  0  0  0  0  0  0  0  0
    2.3295   -0.1330   -1.4747 S   0  0  0  0  0  0  0  0  0  0  0  0
   -0.5480   -1.1922   -2.2649 C   0  0  0  0  0  0  0  0  0  0  0  0
   -0.0674   -0.5881   -3.3933 C   0  0  0  0  0  0  0  0  0  0  0  0
   -0.4578   -1.2343   -4.5821 C   0  0  0  0  0  0  0  0  0  0  0  0
   -1.2264   -2.3382   -4.3744 C   0  0  0  0  0  0  0  0  0  0  0  0
   -1.4921   -2.5974   -2.6831 S   0  0  0  0  0  0  0  0  0  0  0  0
   -1.7824   -3.2879   -5.3780 C   0  0  0  0  0  0  0  0  0  0  0  0
   -1.0253   -4.6177   -5.3616 C   0  0  0  0  0  0  0  0  0  0  0  0
    0.6078   -0.1667    3.3059 C   0  0  0  0  0  0  0  0  0  0  0  0
    1.7450   -0.5804    3.9440 C   0  0  0  0  0  0  0  0  0  0  0  0
    1.7486   -0.2897    5.3216 C   0  0  0  0  0  0  0  0  0  0  0  0
    0.6251    0.3537    5.7420 C   0  0  0  0  0  0  0  0  0  0  0  0
   -0.4793    0.5995    4.4294 S   0  0  0  0  0  0  0  0  0  0  0  0
    0.2645    0.7874    7.1204 C   0  0  0  0  0  0  0  0  0  0  0  0
   -0.8143   -0.1177    7.7191 C   0  0  0  0  0  0  0  0  0  0  0  0
  -15.6914   -3.3975   -4.8201 H   0  0  0  0  0  0  0  0  0  0  0  0
  -10.8792   -3.0072   -6.0240 H   0  0  0  0  0  0  0  0  0  0  0  0
  -12.9285   -2.5954   -0.0826 H   0  0  0  0  0  0  0  0  0  0  0  0
  -11.5972   -2.2250    1.8522 H   0  0  0  0  0  0  0  0  0  0  0  0
   -5.0733   -1.2122    3.3676 H   0  0  0  0  0  0  0  0  0  0  0  0
   -8.8796    0.7831    3.2840 H   0  0  0  0  0  0  0  0  0  0  0  0
   -8.1433    0.2370    4.7727 H   0  0  0  0  0  0  0  0  0  0  0  0
   -9.5721   -3.2969    4.7822 H   0  0  0  0  0  0  0  0  0  0  0  0
   -8.2799   -4.0815    3.9043 H   0  0  0  0  0  0  0  0  0  0  0  0
   -6.5927   -2.8695    5.3017 H   0  0  0  0  0  0  0  0  0  0  0  0
   -7.6826   -3.8389    6.2914 H   0  0  0  0  0  0  0  0  0  0  0  0
   -7.8993   -2.0933    6.1935 H   0  0  0  0  0  0  0  0  0  0  0  0
  -10.3178   -0.7655    5.4914 H   0  0  0  0  0  0  0  0  0  0  0  0
  -10.4817    0.9570    5.1600 H   0  0  0  0  0  0  0  0  0  0  0  0
  -11.0586   -0.2251    3.9870 H   0  0  0  0  0  0  0  0  0  0  0  0
    4.8912    0.6595   -2.4162 H   0  0  0  0  0  0  0  0  0  0  0  0
   10.7960    3.7389   -1.2231 H   0  0  0  0  0  0  0  0  0  0  0  0
   10.8578    4.4278    2.6607 H   0  0  0  0  0  0  0  0  0  0  0  0
   15.3223    7.5237    2.9736 H   0  0  0  0  0  0  0  0  0  0  0  0
   14.4953    6.8038   -1.8791 H   0  0  0  0  0  0  0  0  0  0  0  0
    9.8879    0.9280   -3.5871 H   0  0  0  0  0  0  0  0  0  0  0  0
    8.3641    0.1435   -3.9260 H   0  0  0  0  0  0  0  0  0  0  0  0
    8.4830    3.8041   -4.1596 H   0  0  0  0  0  0  0  0  0  0  0  0
    6.9586    3.0068   -4.4657 H   0  0  0  0  0  0  0  0  0  0  0  0
    7.4508    5.0888   -2.2853 H   0  0  0  0  0  0  0  0  0  0  0  0
    5.9125    4.2822   -2.5794 H   0  0  0  0  0  0  0  0  0  0  0  0
    6.5889    5.3621   -3.7987 H   0  0  0  0  0  0  0  0  0  0  0  0
    9.7996   -1.3065   -2.5206 H   0  0  0  0  0  0  0  0  0  0  0  0
    9.8906   -0.0504   -1.2867 H   0  0  0  0  0  0  0  0  0  0  0  0
    8.3534   -0.8410   -1.6251 H   0  0  0  0  0  0  0  0  0  0  0  0
   -3.1324   -1.4172   -1.0260 H   0  0  0  0  0  0  0  0  0  0  0  0
    2.9791    0.6686    2.0043 H   0  0  0  0  0  0  0  0  0  0  0  0
    0.5162    0.3144   -3.3775 H   0  0  0  0  0  0  0  0  0  0  0  0
   -0.1790   -0.8877   -5.5615 H   0  0  0  0  0  0  0  0  0  0  0  0
   -2.8375   -3.4747   -5.1637 H   0  0  0  0  0  0  0  0  0  0  0  0
   -1.7086   -2.8344   -6.3687 H   0  0  0  0  0  0  0  0  0  0  0  0
   -1.4376   -5.2952   -6.1048 H   0  0  0  0  0  0  0  0  0  0  0  0
   -1.1055   -5.0845   -4.3824 H   0  0  0  0  0  0  0  0  0  0  0  0
    0.0275   -4.4566   -5.5825 H   0  0  0  0  0  0  0  0  0  0  0  0
    2.5345   -1.1181    3.4498 H   0  0  0  0  0  0  0  0  0  0  0  0
    2.5603   -0.5485    5.9784 H   0  0  0  0  0  0  0  0  0  0  0  0
    1.1600    0.7562    7.7443 H   0  0  0  0  0  0  0  0  0  0  0  0
   -0.1032    1.8162    7.0987 H   0  0  0  0  0  0  0  0  0  0  0  0
   -0.4634   -1.1462    7.7627 H   0  0  0  0  0  0  0  0  0  0  0  0
   -1.0639    0.2082    8.7256 H   0  0  0  0  0  0  0  0  0  0  0  0
   -1.7136   -0.0852    7.1080 H   0  0  0  0  0  0  0  0  0  0  0  0
  1  2  2  0  0  0  0
  2  3  1  0  0  0  0
  3  4  2  0  0  0  0
  4  5  1  0  0  0  0
  5  6  2  0  0  0  0
  6  1  1  0  0  0  0
  5  7  1  0  0  0  0
  7  8  1  0  0  0  0
  8  9  1  0  0  0  0
  9  6  1  0  0  0  0
  8 10  2  0  0  0  0
 10 11  1  0  0  0  0
 11 12  2  0  0  0  0
 12 13  1  0  0  0  0
 13 14  2  0  0  0  0
 14 15  1  0  0  0  0
 15 11  1  0  0  0  0
 13 16  1  0  0  0  0
 16 17  1  0  0  0  0
 17 18  2  0  0  0  0
 18 14  1  0  0  0  0
 17 19  1  0  0  0  0
 19 20  2  0  0  0  0
 20 21  1  0  0  0  0
 21 18  1  0  0  0  0
 20 22  1  0  0  0  0
 16 23  1  0  0  0  0
 16 24  1  0  0  0  0
 24 25  1  0  0  0  0
 23 26  1  0  0  0  0
  7 27  2  0  0  0  0
  2 28  1  0  0  0  0
  3 29  1  0  0  0  0
  9 30  2  0  0  0  0
 30 31  1  0  0  0  0
 30 32  1  0  0  0  0
 32 33  3  0  0  0  0
 31 34  3  0  0  0  0
 35 36  1  0  0  0  0
 36 37  1  0  0  0  0
 37 38  2  0  0  0  0
 38 39  1  0  0  0  0
 39 35  2  0  0  0  0
 37 40  1  0  0  0  0
 40 41  2  0  0  0  0
 41 42  1  0  0  0  0
 42 38  1  0  0  0  0
 40 43  1  0  0  0  0
 43 44  1  0  0  0  0
 44 45  2  0  0  0  0
 45 41  1  0  0  0  0
 44 46  1  0  0  0  0
 46 47  2  0  0  0  0
 47 48  1  0  0  0  0
 48 49  1  0  0  0  0
 49 50  2  0  0  0  0
 50 51  1  0  0  0  0
 51 47  1  0  0  0  0
 49 52  1  0  0  0  0
 52 53  2  0  0  0  0
 53 54  1  0  0  0  0
 54 55  2  0  0  0  0
 55 50  1  0  0  0  0
 54 56  1  0  0  0  0
 53 57  1  0  0  0  0
 51 58  2  0  0  0  0
 48 59  2  0  0  0  0
 59 60  1  0  0  0  0
 59 61  1  0  0  0  0
 42 62  1  0  0  0  0
 42 63  1  0  0  0  0
 63 64  1  0  0  0  0
 62 65  1  0  0  0  0
 60 66  3  0  0  0  0
 61 67  3  0  0  0  0
 22 68  1  0  0  0  0
 68 69  1  0  0  0  0
 69 70  2  0  0  0  0
 70 71  1  0  0  0  0
 71 22  2  0  0  0  0
 69 72  1  0  0  0  0
 72 73  2  0  0  0  0
 73 74  1  0  0  0  0
 74 75  2  0  0  0  0
 75 70  1  0  0  0  0
 73 76  1  0  0  0  0
 76 77  2  0  0  0  0
 77 78  1  0  0  0  0
 78 74  1  0  0  0  0
 77 35  1  0  0  0  0
 75 79  1  0  0  0  0
 79 80  2  0  0  0  0
 80 81  1  0  0  0  0
 81 82  2  0  0  0  0
 82 83  1  0  0  0  0
 83 79  1  0  0  0  0
 82 84  1  0  0  0  0
 84 85  1  0  0  0  0
 72 86  1  0  0  0  0
 86 87  2  0  0  0  0
 87 88  1  0  0  0  0
 88 89  2  0  0  0  0
 89 90  1  0  0  0  0
 90 86  1  0  0  0  0
 89 91  1  0  0  0  0
 91 92  1  0  0  0  0
  1 93  1  0  0  0  0
  4 94  1  0  0  0  0
 10 95  1  0  0  0  0
 12 96  1  0  0  0  0
 19 97  1  0  0  0  0
 23 98  1  0  0  0  0
 23 99  1  0  0  0  0
 24100  1  0  0  0  0
 24101  1  0  0  0  0
 25102  1  0  0  0  0
 25103  1  0  0  0  0
 25104  1  0  0  0  0
 26105  1  0  0  0  0
 26106  1  0  0  0  0
 26107  1  0  0  0  0
 39108  1  0  0  0  0
 45109  1  0  0  0  0
 46110  1  0  0  0  0
 52111  1  0  0  0  0
 55112  1  0  0  0  0
 62113  1  0  0  0  0
 62114  1  0  0  0  0
 63115  1  0  0  0  0
 63116  1  0  0  0  0
 64117  1  0  0  0  0
 64118  1  0  0  0  0
 64119  1  0  0  0  0
 65120  1  0  0  0  0
 65121  1  0  0  0  0
 65122  1  0  0  0  0
 71123  1  0  0  0  0
 76124  1  0  0  0  0
 80125  1  0  0  0  0
 81126  1  0  0  0  0
 84127  1  0  0  0  0
 84128  1  0  0  0  0
 85129  1  0  0  0  0
 85130  1  0  0  0  0
 85131  1  0  0  0  0
 87132  1  0  0  0  0
 88133  1  0  0  0  0
 91134  1  0  0  0  0
 91135  1  0  0  0  0
 92136  1  0  0  0  0
 92137  1  0  0  0  0
 92138  1  0  0  0  0
M  END
