SCF done       -388.224896370136          0.000757290507
 OpenBabel12282109493D

233256  0  0  1  0  0  0  0  0999 V2000
    4.3012    2.0889    4.7591 C   0  0  0  0  0  0  0  0  0  0  0  0
    4.9805    1.2852    5.7069 C   0  0  0  0  0  0  0  0  0  0  0  0
    4.2959    0.6687    6.7267 C   0  0  0  0  0  0  0  0  0  0  0  0
    2.9162    0.8618    6.7754 C   0  0  0  0  0  0  0  0  0  0  0  0
    2.2314    1.6249    5.7986 C   0  0  0  0  0  0  0  0  0  0  0  0
    2.9195    2.2585    4.7907 C   0  0  0  0  0  0  0  0  0  0  0  0
    1.9419    0.4263    7.7219 C   0  0  0  0  0  0  0  0  0  0  0  0
    0.6724    0.8931    7.3744 C   0  0  0  0  0  0  0  0  0  0  0  0
    0.7362    1.6368    6.0651 C   0  0  0  0  0  0  0  0  0  0  0  0
    5.2888    2.6066    3.8665 C   0  0  0  0  0  0  0  0  0  0  0  0
    6.5455    2.1101    4.1830 C   0  0  0  0  0  0  0  0  0  0  0  0
    6.4710    1.2394    5.4111 C   0  0  0  0  0  0  0  0  0  0  0  0
    1.9361   -0.4612    9.1771 S   0  0  0  0  0  0  0  0  0  0  0  0
    0.1909   -0.2035    9.3428 C   0  0  0  0  0  0  0  0  0  0  0  0
   -0.3128    0.5366    8.2738 C   0  0  0  0  0  0  0  0  0  0  0  0
    5.3215    3.7017    2.5483 S   0  0  0  0  0  0  0  0  0  0  0  0
    7.0498    3.4654    2.3980 C   0  0  0  0  0  0  0  0  0  0  0  0
    7.5470    2.5841    3.3437 C   0  0  0  0  0  0  0  0  0  0  0  0
    0.2446    3.0686    6.1251 C   0  0  0  0  0  0  0  0  0  0  0  0
   -0.0554    0.8137    5.0592 C   0  0  0  0  0  0  0  0  0  0  0  0
    6.8700   -0.2047    5.1768 C   0  0  0  0  0  0  0  0  0  0  0  0
    7.3263    1.8987    6.4794 C   0  0  0  0  0  0  0  0  0  0  0  0
   -0.3966   -0.7430   10.4954 C   0  0  0  0  0  0  0  0  0  0  0  0
   -1.6904   -0.7358   10.9604 C   0  0  0  0  0  0  0  0  0  0  0  0
   -2.8972   -0.1735   10.3220 C   0  0  0  0  0  0  0  0  0  0  0  0
   -4.0173   -0.4983   11.2318 C   0  0  0  0  0  0  0  0  0  0  0  0
   -3.5351   -1.1943   12.3507 C   0  0  0  0  0  0  0  0  0  0  0  0
   -2.0864   -1.3445   12.2193 C   0  0  0  0  0  0  0  0  0  0  0  0
   -5.3549   -0.1994   11.0752 C   0  0  0  0  0  0  0  0  0  0  0  0
   -6.2399   -0.6081   12.0644 C   0  0  0  0  0  0  0  0  0  0  0  0
   -5.7705   -1.3032   13.1835 C   0  0  0  0  0  0  0  0  0  0  0  0
   -4.4205   -1.6005   13.3360 C   0  0  0  0  0  0  0  0  0  0  0  0
   -3.0059    0.4315    9.2748 O   0  0  0  0  0  0  0  0  0  0  0  0
   -1.2823   -1.9410   13.1570 C   0  0  0  0  0  0  0  0  0  0  0  0
    0.1212   -2.0804   13.1060 C   0  0  0  0  0  0  0  0  0  0  0  0
   -1.7581   -2.5100   14.3580 C   0  0  0  0  0  0  0  0  0  0  0  0
   -2.0671   -2.9950   15.3517 N   0  0  0  0  0  0  0  0  0  0  0  0
    1.2576   -2.2383   13.1695 N   0  0  0  0  0  0  0  0  0  0  0  0
    7.7657    4.1885    1.3933 C   0  0  0  0  0  0  0  0  0  0  0  0
    7.2238    5.3645    0.8067 C   0  0  0  0  0  0  0  0  0  0  0  0
    7.9529    6.1571   -0.1496 C   0  0  0  0  0  0  0  0  0  0  0  0
    9.2441    5.7915   -0.6188 C   0  0  0  0  0  0  0  0  0  0  0  0
    9.7193    4.6164   -0.0571 C   0  0  0  0  0  0  0  0  0  0  0  0
    9.0242    3.8643    0.9100 C   0  0  0  0  0  0  0  0  0  0  0  0
    6.0686    5.9632    1.0073 N   0  0  0  0  0  0  0  0  0  0  0  0
    6.0681    7.0454    0.2339 O   0  0  0  0  0  0  0  0  0  0  0  0
    7.1891    7.1808   -0.4687 N   0  0  0  0  0  0  0  0  0  0  0  0
   11.2278    9.5877   -3.6777 C   0  0  0  0  0  0  0  0  0  0  0  0
   12.2592    9.0639   -4.4945 C   0  0  0  0  0  0  0  0  0  0  0  0
   12.9521    9.8753   -5.3608 C   0  0  0  0  0  0  0  0  0  0  0  0
   12.5898   11.2209   -5.4008 C   0  0  0  0  0  0  0  0  0  0  0  0
   11.5658   11.7453   -4.5759 C   0  0  0  0  0  0  0  0  0  0  0  0
   10.8783   10.9345   -3.7033 C   0  0  0  0  0  0  0  0  0  0  0  0
   13.0869   12.3047   -6.1845 C   0  0  0  0  0  0  0  0  0  0  0  0
   12.4401   13.4937   -5.8498 C   0  0  0  0  0  0  0  0  0  0  0  0
   11.3992   13.2389   -4.7902 C   0  0  1  0  0  0  0  0  0  0  0  0
   10.7221    8.5041   -2.8969 C   0  0  0  0  0  0  0  0  0  0  0  0
   11.4340    7.3404   -3.1510 C   0  0  0  0  0  0  0  0  0  0  0  0
   12.4533    7.5781   -4.2366 C   0  0  0  0  0  0  0  0  0  0  0  0
   14.2369   12.5121   -7.4284 S   0  0  0  0  0  0  0  0  0  0  0  0
   13.8853   14.2340   -7.4880 C   0  0  0  0  0  0  0  0  0  0  0  0
   12.8898   14.5806   -6.5755 C   0  0  0  0  0  0  0  0  0  0  0  0
    9.4752    8.2817   -1.7431 S   0  0  0  0  0  0  0  0  0  0  0  0
    9.9462    6.6045   -1.5625 C   0  0  0  0  0  0  0  0  0  0  0  0
   11.0046    6.2611   -2.3869 C   0  0  0  0  0  0  0  0  0  0  0  0
   10.0439   13.6401   -5.3436 C   0  0  0  0  0  0  0  0  0  0  0  0
   11.6960   13.9348   -3.4716 C   0  0  0  0  0  0  0  0  0  0  0  0
   13.8887    7.3463   -3.8074 C   0  0  0  0  0  0  0  0  0  0  0  0
   12.0616    6.7002   -5.4130 C   0  0  0  0  0  0  0  0  0  0  0  0
   14.5346   15.0276   -8.4496 C   0  0  0  0  0  0  0  0  0  0  0  0
   14.6126   16.3916   -8.5310 C   0  0  1  0  0  0  0  0  0  0  0  0
   14.8963   17.0272   -9.8409 C   0  0  0  0  0  0  0  0  0  0  0  0
   14.5574   18.4578   -9.6546 C   0  0  0  0  0  0  0  0  0  0  0  0
   14.2149   18.6864   -8.3096 C   0  0  0  0  0  0  0  0  0  0  0  0
   14.3803   17.4386   -7.5661 C   0  0  0  0  0  0  0  0  0  0  0  0
   14.5384   19.4735  -10.5875 C   0  0  0  0  0  0  0  0  0  0  0  0
   14.1579   20.7441  -10.1713 C   0  0  0  0  0  0  0  0  0  0  0  0
   13.8060   20.9757   -8.8375 C   0  0  0  0  0  0  0  0  0  0  0  0
   13.8370   19.9519   -7.8964 C   0  0  0  0  0  0  0  0  0  0  0  0
   15.2789   16.4826  -10.8508 O   0  0  0  0  0  0  0  0  0  0  0  0
   14.5532   17.3450   -6.2077 C   0  0  0  0  0  0  0  0  0  0  0  0
   15.0309   16.1810   -5.5761 C   0  0  0  0  0  0  0  0  0  0  0  0
   14.3653   18.4108   -5.3068 C   0  0  0  0  0  0  0  0  0  0  0  0
   14.1948   19.2335   -4.5243 N   0  0  0  0  0  0  0  0  0  0  0  0
   15.4701   15.2711   -5.0307 N   0  0  0  0  0  0  0  0  0  0  0  0
   -7.9142   -0.2578   11.9097 Cl  0  0  0  0  0  0  0  0  0  0  0  0
   -6.8743   -1.8051   14.4006 Cl  0  0  0  0  0  0  0  0  0  0  0  0
   13.3262   22.5486   -8.3419 Cl  0  0  0  0  0  0  0  0  0  0  0  0
   14.1199   22.0342  -11.3047 Cl  0  0  0  0  0  0  0  0  0  0  0  0
   12.9920   14.2998   -3.1361 C   0  0  0  0  0  0  0  0  0  0  0  0
   13.2557   14.9094   -1.9238 C   0  0  0  0  0  0  0  0  0  0  0  0
   12.2398   15.1515   -1.0091 C   0  0  0  0  0  0  0  0  0  0  0  0
   10.9486   14.7615   -1.3404 C   0  0  0  0  0  0  0  0  0  0  0  0
   10.6774   14.1572   -2.5536 C   0  0  0  0  0  0  0  0  0  0  0  0
    9.1588   12.7038   -5.8527 C   0  0  0  0  0  0  0  0  0  0  0  0
    7.9283   13.0867   -6.3720 C   0  0  0  0  0  0  0  0  0  0  0  0
    7.5973   14.4337   -6.3908 C   0  0  0  0  0  0  0  0  0  0  0  0
    8.4844   15.3787   -5.9045 C   0  0  0  0  0  0  0  0  0  0  0  0
    9.7025   14.9873   -5.3828 C   0  0  0  0  0  0  0  0  0  0  0  0
   11.3130    7.1873   -6.4743 C   0  0  0  0  0  0  0  0  0  0  0  0
   10.9263    6.3465   -7.5026 C   0  0  0  0  0  0  0  0  0  0  0  0
   11.2648    5.0007   -7.4921 C   0  0  0  0  0  0  0  0  0  0  0  0
   12.0067    4.5161   -6.4218 C   0  0  0  0  0  0  0  0  0  0  0  0
   12.3965    5.3514   -5.3932 C   0  0  0  0  0  0  0  0  0  0  0  0
   14.8759    7.1354   -4.7618 C   0  0  0  0  0  0  0  0  0  0  0  0
   16.1935    6.9664   -4.3816 C   0  0  0  0  0  0  0  0  0  0  0  0
   16.5609    7.0067   -3.0427 C   0  0  0  0  0  0  0  0  0  0  0  0
   15.5720    7.2300   -2.0944 C   0  0  0  0  0  0  0  0  0  0  0  0
   14.2523    7.4015   -2.4695 C   0  0  0  0  0  0  0  0  0  0  0  0
    6.8613   -0.7538    3.9026 C   0  0  0  0  0  0  0  0  0  0  0  0
    7.1891   -2.0834    3.7102 C   0  0  0  0  0  0  0  0  0  0  0  0
    7.5204   -2.9000    4.7826 C   0  0  0  0  0  0  0  0  0  0  0  0
    7.5174   -2.3478    6.0573 C   0  0  0  0  0  0  0  0  0  0  0  0
    7.1945   -1.0192    6.2548 C   0  0  0  0  0  0  0  0  0  0  0  0
    6.7823    2.7542    7.4262 C   0  0  0  0  0  0  0  0  0  0  0  0
    7.5967    3.3811    8.3522 C   0  0  0  0  0  0  0  0  0  0  0  0
    8.9702    3.1820    8.3484 C   0  0  0  0  0  0  0  0  0  0  0  0
    9.5107    2.3344    7.3894 C   0  0  0  0  0  0  0  0  0  0  0  0
    8.7023    1.7043    6.4635 C   0  0  0  0  0  0  0  0  0  0  0  0
    0.2173    3.7696    7.3219 C   0  0  0  0  0  0  0  0  0  0  0  0
   -0.1967    5.0888    7.3517 C   0  0  0  0  0  0  0  0  0  0  0  0
   -0.5855    5.7419    6.1903 C   0  0  0  0  0  0  0  0  0  0  0  0
   -0.5420    5.0397    4.9926 C   0  0  0  0  0  0  0  0  0  0  0  0
   -0.1323    3.7209    4.9576 C   0  0  0  0  0  0  0  0  0  0  0  0
   -1.4439    0.8690    5.0928 C   0  0  0  0  0  0  0  0  0  0  0  0
   -2.1965    0.0952    4.2316 C   0  0  0  0  0  0  0  0  0  0  0  0
   -1.5860   -0.7593    3.3216 C   0  0  0  0  0  0  0  0  0  0  0  0
   -0.1997   -0.8138    3.2972 C   0  0  0  0  0  0  0  0  0  0  0  0
    0.5604   -0.0424    4.1587 C   0  0  0  0  0  0  0  0  0  0  0  0
   12.5247   15.8631    0.2815 C   0  0  0  0  0  0  0  0  0  0  0  0
   12.4350   17.3778    0.0837 C   0  0  0  0  0  0  0  0  0  0  0  0
    6.9600   12.0424   -6.8483 C   0  0  0  0  0  0  0  0  0  0  0  0
    6.1802   11.4620   -5.6666 C   0  0  0  0  0  0  0  0  0  0  0  0
   10.8797    4.1014   -8.6310 C   0  0  0  0  0  0  0  0  0  0  0  0
   11.9698    4.1019   -9.7047 C   0  0  0  0  0  0  0  0  0  0  0  0
   17.9994    6.8658   -2.6372 C   0  0  0  0  0  0  0  0  0  0  0  0
   18.6918    8.2302   -2.6480 C   0  0  0  0  0  0  0  0  0  0  0  0
   -0.9948    7.1861    6.2162 C   0  0  0  0  0  0  0  0  0  0  0  0
    0.2104    8.0878    5.9409 C   0  0  0  0  0  0  0  0  0  0  0  0
   -2.4044   -1.5689    2.3576 C   0  0  0  0  0  0  0  0  0  0  0  0
   -2.6452   -0.7817    1.0679 C   0  0  0  0  0  0  0  0  0  0  0  0
    9.8437    3.8280    9.3845 C   0  0  0  0  0  0  0  0  0  0  0  0
    9.9714    2.9244   10.6126 C   0  0  0  0  0  0  0  0  0  0  0  0
    7.9232   -4.3301    4.5672 C   0  0  0  0  0  0  0  0  0  0  0  0
    9.4396   -4.4362    4.3923 C   0  0  0  0  0  0  0  0  0  0  0  0
   10.9291    4.1470   -0.4099 F   0  0  0  0  0  0  0  0  0  0  0  0
    9.6521    2.7646    1.3628 F   0  0  0  0  0  0  0  0  0  0  0  0
    4.7949    0.0672    7.4705 H   0  0  0  0  0  0  0  0  0  0  0  0
    2.4202    2.8650    4.0513 H   0  0  0  0  0  0  0  0  0  0  0  0
   -1.3525    0.7931    8.1964 H   0  0  0  0  0  0  0  0  0  0  0  0
    8.5861    2.3252    3.4232 H   0  0  0  0  0  0  0  0  0  0  0  0
    0.3203   -1.2539   11.1270 H   0  0  0  0  0  0  0  0  0  0  0  0
   -5.6996    0.3380   10.2059 H   0  0  0  0  0  0  0  0  0  0  0  0
   -4.1008   -2.1382   14.2129 H   0  0  0  0  0  0  0  0  0  0  0  0
   13.7445    9.4978   -5.9883 H   0  0  0  0  0  0  0  0  0  0  0  0
   10.0988   11.3164   -3.0624 H   0  0  0  0  0  0  0  0  0  0  0  0
   12.4924   15.5762   -6.4968 H   0  0  0  0  0  0  0  0  0  0  0  0
   11.4242    5.2737   -2.4300 H   0  0  0  0  0  0  0  0  0  0  0  0
   14.9656   14.4981   -9.2938 H   0  0  0  0  0  0  0  0  0  0  0  0
   14.8132   19.2850  -11.6132 H   0  0  0  0  0  0  0  0  0  0  0  0
   13.5593   20.1622   -6.8761 H   0  0  0  0  0  0  0  0  0  0  0  0
   13.8054   14.1209   -3.8232 H   0  0  0  0  0  0  0  0  0  0  0  0
   14.2696   15.1987   -1.6892 H   0  0  0  0  0  0  0  0  0  0  0  0
   10.1431   14.9325   -0.6402 H   0  0  0  0  0  0  0  0  0  0  0  0
    9.6635   13.8700   -2.7931 H   0  0  0  0  0  0  0  0  0  0  0  0
    9.4199   11.6552   -5.8437 H   0  0  0  0  0  0  0  0  0  0  0  0
    6.6428   14.7452   -6.7897 H   0  0  0  0  0  0  0  0  0  0  0  0
    8.2229   16.4264   -5.9282 H   0  0  0  0  0  0  0  0  0  0  0  0
   10.3860   15.7248   -4.9877 H   0  0  0  0  0  0  0  0  0  0  0  0
   11.0291    8.2292   -6.5030 H   0  0  0  0  0  0  0  0  0  0  0  0
   10.3469    6.7440   -8.3239 H   0  0  0  0  0  0  0  0  0  0  0  0
   12.2779    3.4705   -6.3913 H   0  0  0  0  0  0  0  0  0  0  0  0
   12.9743    4.9573   -4.5699 H   0  0  0  0  0  0  0  0  0  0  0  0
   14.6097    7.0885   -5.8081 H   0  0  0  0  0  0  0  0  0  0  0  0
   16.9481    6.7969   -5.1364 H   0  0  0  0  0  0  0  0  0  0  0  0
   15.8361    7.2682   -1.0472 H   0  0  0  0  0  0  0  0  0  0  0  0
   13.5005    7.5753   -1.7136 H   0  0  0  0  0  0  0  0  0  0  0  0
    6.6020   -0.1394    3.0528 H   0  0  0  0  0  0  0  0  0  0  0  0
    7.1845   -2.4925    2.7098 H   0  0  0  0  0  0  0  0  0  0  0  0
    7.7698   -2.9665    6.9066 H   0  0  0  0  0  0  0  0  0  0  0  0
    7.2086   -0.6069    7.2534 H   0  0  0  0  0  0  0  0  0  0  0  0
    5.7174    2.9349    7.4448 H   0  0  0  0  0  0  0  0  0  0  0  0
    7.1555    4.0404    9.0860 H   0  0  0  0  0  0  0  0  0  0  0  0
   10.5785    2.1698    7.3643 H   0  0  0  0  0  0  0  0  0  0  0  0
    9.1403    1.0479    5.7255 H   0  0  0  0  0  0  0  0  0  0  0  0
    0.5148    3.2830    8.2395 H   0  0  0  0  0  0  0  0  0  0  0  0
   -0.2208    5.6170    8.2943 H   0  0  0  0  0  0  0  0  0  0  0  0
   -0.8375    5.5303    4.0761 H   0  0  0  0  0  0  0  0  0  0  0  0
   -0.1191    3.1879    4.0176 H   0  0  0  0  0  0  0  0  0  0  0  0
   -1.9361    1.5254    5.7950 H   0  0  0  0  0  0  0  0  0  0  0  0
   -3.2748    0.1499    4.2716 H   0  0  0  0  0  0  0  0  0  0  0  0
    0.2964   -1.4739    2.5998 H   0  0  0  0  0  0  0  0  0  0  0  0
    1.6379   -0.1127    4.1244 H   0  0  0  0  0  0  0  0  0  0  0  0
   11.8054   15.5549    1.0431 H   0  0  0  0  0  0  0  0  0  0  0  0
   13.5263   15.6055    0.6316 H   0  0  0  0  0  0  0  0  0  0  0  0
   11.4377   17.6572   -0.2489 H   0  0  0  0  0  0  0  0  0  0  0  0
   12.6489   17.8966    1.0152 H   0  0  0  0  0  0  0  0  0  0  0  0
   13.1493   17.7042   -0.6687 H   0  0  0  0  0  0  0  0  0  0  0  0
    6.2608   12.4819   -7.5619 H   0  0  0  0  0  0  0  0  0  0  0  0
    7.5016   11.2378   -7.3507 H   0  0  0  0  0  0  0  0  0  0  0  0
    5.6276   12.2478   -5.1564 H   0  0  0  0  0  0  0  0  0  0  0  0
    5.4752   10.7082   -6.0090 H   0  0  0  0  0  0  0  0  0  0  0  0
    6.8595   11.0021   -4.9522 H   0  0  0  0  0  0  0  0  0  0  0  0
   10.7353    3.0826   -8.2658 H   0  0  0  0  0  0  0  0  0  0  0  0
    9.9410    4.4432   -9.0716 H   0  0  0  0  0  0  0  0  0  0  0  0
   12.9114    3.7514   -9.2879 H   0  0  0  0  0  0  0  0  0  0  0  0
   11.6913    3.4508  -10.5300 H   0  0  0  0  0  0  0  0  0  0  0  0
   12.1200    5.1077  -10.0907 H   0  0  0  0  0  0  0  0  0  0  0  0
   18.0616    6.4383   -1.6345 H   0  0  0  0  0  0  0  0  0  0  0  0
   18.5152    6.1952   -3.3275 H   0  0  0  0  0  0  0  0  0  0  0  0
   18.1982    8.9102   -1.9573 H   0  0  0  0  0  0  0  0  0  0  0  0
   19.7339    8.1306   -2.3535 H   0  0  0  0  0  0  0  0  0  0  0  0
   18.6518    8.6672   -3.6432 H   0  0  0  0  0  0  0  0  0  0  0  0
   -1.7594    7.3673    5.4580 H   0  0  0  0  0  0  0  0  0  0  0  0
   -1.4155    7.4348    7.1923 H   0  0  0  0  0  0  0  0  0  0  0  0
    0.6369    7.8631    4.9659 H   0  0  0  0  0  0  0  0  0  0  0  0
   -0.0854    9.1341    5.9584 H   0  0  0  0  0  0  0  0  0  0  0  0
    0.9795    7.9311    6.6940 H   0  0  0  0  0  0  0  0  0  0  0  0
   -1.8833   -2.4985    2.1196 H   0  0  0  0  0  0  0  0  0  0  0  0
   -3.3654   -1.8216    2.8097 H   0  0  0  0  0  0  0  0  0  0  0  0
   -1.6980   -0.5298    0.5962 H   0  0  0  0  0  0  0  0  0  0  0  0
   -3.2366   -1.3683    0.3686 H   0  0  0  0  0  0  0  0  0  0  0  0
   -3.1768    0.1426    1.2829 H   0  0  0  0  0  0  0  0  0  0  0  0
   10.8364    4.0133    8.9692 H   0  0  0  0  0  0  0  0  0  0  0  0
    9.4145    4.7858    9.6856 H   0  0  0  0  0  0  0  0  0  0  0  0
   10.4117    1.9692   10.3352 H   0  0  0  0  0  0  0  0  0  0  0  0
   10.6014    3.3920   11.3655 H   0  0  0  0  0  0  0  0  0  0  0  0
    8.9920    2.7361   11.0468 H   0  0  0  0  0  0  0  0  0  0  0  0
    7.6170   -4.9340    5.4238 H   0  0  0  0  0  0  0  0  0  0  0  0
    7.4297   -4.7242    3.6766 H   0  0  0  0  0  0  0  0  0  0  0  0
    9.9495   -4.0604    5.2765 H   0  0  0  0  0  0  0  0  0  0  0  0
    9.7333   -5.4714    4.2353 H   0  0  0  0  0  0  0  0  0  0  0  0
    9.7634   -3.8491    3.5357 H   0  0  0  0  0  0  0  0  0  0  0  0
  1  6  2  0  0  0  0
  1  2  1  0  0  0  0
  2  3  2  0  0  0  0
  3  4  1  0  0  0  0
  3148  1  0  0  0  0
  4  7  1  0  0  0  0
  5  9  1  0  0  0  0
  5  4  2  0  0  0  0
  6  5  1  0  0  0  0
  7 13  1  0  0  0  0
  8  7  2  0  0  0  0
  8 15  1  0  0  0  0
  9 19  1  0  0  0  0
  9  8  1  0  0  0  0
 10 11  2  0  0  0  0
 10  1  1  0  0  0  0
 11 12  1  0  0  0  0
 12  2  1  0  0  0  0
 12 22  1  0  0  0  0
 13 14  1  0  0  0  0
 14 23  1  0  0  0  0
 15 14  2  0  0  0  0
 16 10  1  0  0  0  0
 17 16  1  0  0  0  0
 17 18  2  0  0  0  0
 18151  1  0  0  0  0
 18 11  1  0  0  0  0
 19120  2  0  0  0  0
 20125  1  0  0  0  0
 20  9  1  0  0  0  0
 21 12  1  0  0  0  0
 21114  2  0  0  0  0
 22115  1  0  0  0  0
 23 24  1  0  0  0  0
 23152  1  0  0  0  0
 24 28  2  0  0  0  0
 25 24  1  0  0  0  0
 25 26  1  0  0  0  0
 26 27  1  0  0  0  0
 27 32  2  0  0  0  0
 28 27  1  0  0  0  0
 28 34  1  0  0  0  0
 29 26  2  0  0  0  0
 29 30  1  0  0  0  0
 30 31  2  0  0  0  0
 31 32  1  0  0  0  0
 31 87  1  0  0  0  0
 32154  1  0  0  0  0
 33 25  2  0  0  0  0
 34 36  1  0  0  0  0
 35 34  1  0  0  0  0
 35 38  3  0  0  0  0
 36 37  3  0  0  0  0
 39 17  1  0  0  0  0
 40 45  2  0  0  0  0
 40 39  1  0  0  0  0
 41 40  1  0  0  0  0
 42 41  1  0  0  0  0
 42 43  2  0  0  0  0
 43 44  1  0  0  0  0
 44147  1  0  0  0  0
 44 39  2  0  0  0  0
 46 45  1  0  0  0  0
 47 41  2  0  0  0  0
 47 46  1  0  0  0  0
 48 57  1  0  0  0  0
 49 59  1  0  0  0  0
 49 48  2  0  0  0  0
 50 49  1  0  0  0  0
 51 50  2  0  0  0  0
 51 52  1  0  0  0  0
 52 53  2  0  0  0  0
 53 48  1  0  0  0  0
 53156  1  0  0  0  0
 54 55  2  0  0  0  0
 54 51  1  0  0  0  0
 55 56  1  0  0  0  0
 56 66  1  6  0  0  0
 56 52  1  0  0  0  0
 56 67  1  0  0  0  0
 57 63  1  0  0  0  0
 58 57  2  0  0  0  0
 58 65  1  0  0  0  0
 59 68  1  0  0  0  0
 59 58  1  0  0  0  0
 60 54  1  0  0  0  0
 61 60  1  0  0  0  0
 61 62  2  0  0  0  0
 62157  1  0  0  0  0
 62 55  1  0  0  0  0
 63 64  1  0  0  0  0
 64 42  1  0  0  0  0
 65 64  2  0  0  0  0
 67 90  2  0  0  0  0
 67 94  1  0  0  0  0
 68109  2  0  0  0  0
 69104  1  0  0  0  0
 69 59  1  0  0  0  0
 70 61  1  0  0  0  0
 71 70  1  6  0  0  0
 71 75  1  0  0  0  0
 72 73  1  0  0  0  0
 72 71  1  0  0  0  0
 73 74  2  0  0  0  0
 74 79  1  0  0  0  0
 74 75  1  0  0  0  0
 75 81  2  0  0  0  0
 76 77  2  0  0  0  0
 76 73  1  0  0  0  0
 77 78  1  0  0  0  0
 78 88  1  0  0  0  0
 78 79  2  0  0  0  0
 79161  1  0  0  0  0
 80 72  2  0  0  0  0
 81 82  1  0  0  0  0
 81 83  1  0  0  0  0
 82 85  3  0  0  0  0
 83 84  3  0  0  0  0
 86 30  1  0  0  0  0
 89 77  1  0  0  0  0
 90 91  1  0  0  0  0
 91163  1  0  0  0  0
 91 92  2  0  0  0  0
 92130  1  0  0  0  0
 93 92  1  0  0  0  0
 93164  1  0  0  0  0
 94 93  2  0  0  0  0
 95166  1  0  0  0  0
 95 66  2  0  0  0  0
 96 95  1  0  0  0  0
 97 96  2  0  0  0  0
 97 98  1  0  0  0  0
 98 99  2  0  0  0  0
 99 66  1  0  0  0  0
 99169  1  0  0  0  0
100 69  2  0  0  0  0
101102  2  0  0  0  0
101100  1  0  0  0  0
102103  1  0  0  0  0
103172  1  0  0  0  0
103104  2  0  0  0  0
104173  1  0  0  0  0
105106  2  0  0  0  0
105 68  1  0  0  0  0
106107  1  0  0  0  0
107136  1  0  0  0  0
107108  2  0  0  0  0
108176  1  0  0  0  0
109108  1  0  0  0  0
109177  1  0  0  0  0
110 21  1  0  0  0  0
111110  2  0  0  0  0
111112  1  0  0  0  0
112113  2  0  0  0  0
113114  1  0  0  0  0
113180  1  0  0  0  0
114181  1  0  0  0  0
115182  1  0  0  0  0
115116  2  0  0  0  0
116183  1  0  0  0  0
117116  1  0  0  0  0
117142  1  0  0  0  0
118117  2  0  0  0  0
119 22  2  0  0  0  0
119118  1  0  0  0  0
120121  1  0  0  0  0
120186  1  0  0  0  0
121187  1  0  0  0  0
122138  1  0  0  0  0
122121  2  0  0  0  0
123122  1  0  0  0  0
124123  2  0  0  0  0
124 19  1  0  0  0  0
125190  1  0  0  0  0
126191  1  0  0  0  0
126125  2  0  0  0  0
127126  1  0  0  0  0
128127  2  0  0  0  0
128129  1  0  0  0  0
129 20  2  0  0  0  0
130195  1  0  0  0  0
130194  1  0  0  0  0
131130  1  0  0  0  0
131197  1  0  0  0  0
132 96  1  0  0  0  0
132133  1  0  0  0  0
133201  1  0  0  0  0
133203  1  0  0  0  0
134204  1  0  0  0  0
134102  1  0  0  0  0
135206  1  0  0  0  0
135134  1  0  0  0  0
136209  1  0  0  0  0
137136  1  0  0  0  0
137212  1  0  0  0  0
137211  1  0  0  0  0
138215  1  0  0  0  0
139217  1  0  0  0  0
139138  1  0  0  0  0
139218  1  0  0  0  0
140220  1  0  0  0  0
140127  1  0  0  0  0
141223  1  0  0  0  0
141140  1  0  0  0  0
142225  1  0  0  0  0
142143  1  0  0  0  0
143228  1  0  0  0  0
143227  1  0  0  0  0
144112  1  0  0  0  0
144229  1  0  0  0  0
145144  1  0  0  0  0
145231  1  0  0  0  0
146 43  1  0  0  0  0
149  6  1  0  0  0  0
150 15  1  0  0  0  0
153 29  1  0  0  0  0
155 50  1  0  0  0  0
158 65  1  0  0  0  0
159 70  1  0  0  0  0
160 76  1  0  0  0  0
162 90  1  0  0  0  0
165 94  1  0  0  0  0
167 97  1  0  0  0  0
168 98  1  0  0  0  0
170100  1  0  0  0  0
171101  1  0  0  0  0
174105  1  0  0  0  0
175106  1  0  0  0  0
178110  1  0  0  0  0
179111  1  0  0  0  0
184118  1  0  0  0  0
185119  1  0  0  0  0
188123  1  0  0  0  0
189124  1  0  0  0  0
192128  1  0  0  0  0
193129  1  0  0  0  0
196131  1  0  0  0  0
198131  1  0  0  0  0
199132  1  0  0  0  0
200132  1  0  0  0  0
202133  1  0  0  0  0
205134  1  0  0  0  0
207135  1  0  0  0  0
208135  1  0  0  0  0
210136  1  0  0  0  0
213137  1  0  0  0  0
214138  1  0  0  0  0
216139  1  0  0  0  0
219140  1  0  0  0  0
221141  1  0  0  0  0
222141  1  0  0  0  0
224142  1  0  0  0  0
226143  1  0  0  0  0
230144  1  0  0  0  0
232145  1  0  0  0  0
233145  1  0  0  0  0
M  RAD  4  23   2  34   2  70   2  71   2
M  END
