SCF done       -198.734887180358          0.000862188662
 OpenBabel12282109493D

100112  0  0  1  0  0  0  0  0999 V2000
    0.1911    1.0011    0.3594 C   0  0  0  0  0  0  0  0  0  0  0  0
    0.3442    1.9612   -0.6519 C   0  0  0  0  0  0  0  0  0  0  0  0
   -0.9700    1.9513   -1.8083 S   0  0  0  0  0  0  0  0  0  0  0  0
   -1.6417    0.5767   -1.0011 C   0  0  0  0  0  0  0  0  0  0  0  0
   -0.9438    0.2121    0.1593 C   0  0  0  0  0  0  0  0  0  0  0  0
   -1.4379   -0.9650    0.6494 N   0  0  0  0  0  0  0  0  0  0  0  0
   -0.7379   -1.6752    1.6925 C   0  0  0  0  0  0  0  0  0  0  0  0
   -2.4142   -1.4062   -0.2177 C   0  0  0  0  0  0  0  0  0  0  0  0
   -2.5621   -0.4488   -1.2625 C   0  0  0  0  0  0  0  0  0  0  0  0
   -3.3243   -0.7385   -2.4181 C   0  0  0  0  0  0  0  0  0  0  0  0
   -3.5850    0.0420   -3.4538 N   0  0  0  0  0  0  0  0  0  0  0  0
   -4.3566   -0.8314   -4.5765 S   0  0  0  0  0  0  0  0  0  0  0  0
   -4.3804   -2.2441   -3.7890 N   0  0  0  0  0  0  0  0  0  0  0  0
   -3.7952   -2.0819   -2.6135 C   0  0  0  0  0  0  0  0  0  0  0  0
   -3.6059   -3.0305   -1.5832 C   0  0  0  0  0  0  0  0  0  0  0  0
   -3.0645   -2.6585   -0.3282 C   0  0  0  0  0  0  0  0  0  0  0  0
   -3.0812   -3.7556    0.5294 N   0  0  0  0  0  0  0  0  0  0  0  0
   -3.3505   -3.6397    1.9543 C   0  0  0  0  0  0  0  0  0  0  0  0
   -2.4981   -4.5473    2.8344 C   0  0  0  0  0  0  0  0  0  0  0  0
   -3.5065   -4.8372   -0.2159 C   0  0  0  0  0  0  0  0  0  0  0  0
   -3.8275   -4.4154   -1.5161 C   0  0  0  0  0  0  0  0  0  0  0  0
   -4.1799   -5.6940   -2.6181 S   0  0  0  0  0  0  0  0  0  0  0  0
   -3.8352   -6.8321   -1.3471 C   0  0  0  0  0  0  0  0  0  0  0  0
   -3.5407   -6.2326   -0.1108 C   0  0  0  0  0  0  0  0  0  0  0  0
   -1.0192   -1.0859    3.0724 C   0  0  0  0  0  0  0  0  0  0  0  0
   -2.5118  -11.8810   -1.5949 C   0  0  0  0  0  0  0  0  0  0  0  0
   -2.3009  -12.5254   -2.7921 C   0  0  0  0  0  0  0  0  0  0  0  0
   -1.6210  -13.7941   -2.9491 C   0  0  0  0  0  0  0  0  0  0  0  0
   -1.1857  -14.6405   -1.9612 C   0  0  0  0  0  0  0  0  0  0  0  0
   -0.5209  -15.8615   -2.2022 C   0  0  0  0  0  0  0  0  0  0  0  0
    0.0251  -16.8634   -2.3276 N   0  0  0  0  0  0  0  0  0  0  0  0
   -1.3332  -14.4318   -0.5742 C   0  0  0  0  0  0  0  0  0  0  0  0
   -1.4102  -14.3340    0.5683 N   0  0  0  0  0  0  0  0  0  0  0  0
   -1.4548  -14.0242   -4.3860 C   0  0  0  0  0  0  0  0  0  0  0  0
   -0.8213  -15.0391   -5.0854 C   0  0  0  0  0  0  0  0  0  0  0  0
   -0.8075  -14.9652   -6.4708 C   0  0  0  0  0  0  0  0  0  0  0  0
   -0.1935  -15.9312   -7.1634 F   0  0  0  0  0  0  0  0  0  0  0  0
   -1.4106  -13.9105   -7.1559 C   0  0  0  0  0  0  0  0  0  0  0  0
   -2.0483  -12.8928   -6.4643 C   0  0  0  0  0  0  0  0  0  0  0  0
   -2.0575  -12.9656   -5.0860 C   0  0  0  0  0  0  0  0  0  0  0  0
   -2.6339  -12.0070   -4.1196 C   0  0  0  0  0  0  0  0  0  0  0  0
   -3.2590  -10.9994   -4.3939 O   0  0  0  0  0  0  0  0  0  0  0  0
   -3.1542   -7.4109    1.1163 S   0  0  0  0  0  0  0  0  0  0  0  0
   -3.2588   -8.6865   -0.0711 C   0  0  0  0  0  0  0  0  0  0  0  0
   -3.6455   -8.2161   -1.3363 C   0  0  0  0  0  0  0  0  0  0  0  0
   -2.9136  -10.0271   -0.0343 C   0  0  0  0  0  0  0  0  0  0  0  0
   -2.9897  -10.5974   -1.3209 C   0  0  0  0  0  0  0  0  0  0  0  0
   -3.5791   -9.4492   -2.5305 S   0  0  0  0  0  0  0  0  0  0  0  0
   -1.3688  -13.8785   -8.4933 F   0  0  0  0  0  0  0  0  0  0  0  0
    4.5307    1.7833   -1.7295 C   0  0  0  0  0  0  0  0  0  0  0  0
    3.4869    1.5023   -2.2779 O   0  0  0  0  0  0  0  0  0  0  0  0
    5.8898    1.5510   -2.2695 C   0  0  0  0  0  0  0  0  0  0  0  0
    6.2369    1.0024   -3.4880 C   0  0  0  0  0  0  0  0  0  0  0  0
    7.5866    0.8554   -3.7650 C   0  0  0  0  0  0  0  0  0  0  0  0
    8.5502    1.2481   -2.8355 C   0  0  0  0  0  0  0  0  0  0  0  0
    9.8454    1.0836   -3.1258 F   0  0  0  0  0  0  0  0  0  0  0  0
    8.2010    1.7992   -1.6111 C   0  0  0  0  0  0  0  0  0  0  0  0
    6.8527    1.9506   -1.3281 C   0  0  0  0  0  0  0  0  0  0  0  0
    6.1644    2.4677   -0.1469 C   0  0  0  0  0  0  0  0  0  0  0  0
    6.7541    3.0590    0.9383 C   0  0  0  0  0  0  0  0  0  0  0  0
    6.0349    3.6251    2.0127 C   0  0  0  0  0  0  0  0  0  0  0  0
    5.5028    4.1187    2.9020 N   0  0  0  0  0  0  0  0  0  0  0  0
    8.1480    3.2017    1.0977 C   0  0  0  0  0  0  0  0  0  0  0  0
    9.2741    3.3315    1.2772 N   0  0  0  0  0  0  0  0  0  0  0  0
    4.7429    2.3015   -0.3604 C   0  0  2  0  0  0  0  0  0  0  0  0
    3.7771    2.2876    0.6127 C   0  0  0  0  0  0  0  0  0  0  0  0
    7.9693    0.3261   -4.9330 F   0  0  0  0  0  0  0  0  0  0  0  0
    1.5891    2.6019   -0.6536 C   0  0  2  0  0  0  0  0  0  0  0  0
    2.3979    2.1221    0.3696 C   0  0  1  0  0  0  0  0  0  0  0  0
    1.5486    0.9798    1.4196 S   0  0  0  0  0  0  0  0  0  0  0  0
    1.9429    3.7213   -1.5721 C   0  0  0  0  0  0  0  0  0  0  0  0
    0.9620    4.8848   -1.4258 C   0  0  0  0  0  0  0  0  0  0  0  0
   -2.5229  -10.7360    1.2211 C   0  0  0  0  0  0  0  0  0  0  0  0
   -3.6877  -11.5704    1.7609 C   0  0  0  0  0  0  0  0  0  0  0  0
   -1.0097   -2.7259    1.6399 H   0  0  0  0  0  0  0  0  0  0  0  0
    0.3356   -1.5930    1.4890 H   0  0  0  0  0  0  0  0  0  0  0  0
   -3.2071   -2.5940    2.2253 H   0  0  0  0  0  0  0  0  0  0  0  0
   -4.4077   -3.8800    2.1251 H   0  0  0  0  0  0  0  0  0  0  0  0
   -2.8131   -5.5815    2.7425 H   0  0  0  0  0  0  0  0  0  0  0  0
   -1.4442   -4.4934    2.5755 H   0  0  0  0  0  0  0  0  0  0  0  0
   -2.6155   -4.2473    3.8722 H   0  0  0  0  0  0  0  0  0  0  0  0
   -2.0833   -1.0856    3.2967 H   0  0  0  0  0  0  0  0  0  0  0  0
   -0.5032   -1.6670    3.8309 H   0  0  0  0  0  0  0  0  0  0  0  0
   -0.6602   -0.0611    3.1206 H   0  0  0  0  0  0  0  0  0  0  0  0
   -2.1891  -12.4150   -0.7117 H   0  0  0  0  0  0  0  0  0  0  0  0
   -0.3377  -15.8743   -4.6062 H   0  0  0  0  0  0  0  0  0  0  0  0
   -2.5133  -12.0733   -6.9884 H   0  0  0  0  0  0  0  0  0  0  0  0
    5.4884    0.6951   -4.2008 H   0  0  0  0  0  0  0  0  0  0  0  0
    8.9820    2.0789   -0.9231 H   0  0  0  0  0  0  0  0  0  0  0  0
    4.0872    2.2571    1.6510 H   0  0  0  0  0  0  0  0  0  0  0  0
    2.9557    4.0650   -1.3592 H   0  0  0  0  0  0  0  0  0  0  0  0
    1.9180    3.3469   -2.5984 H   0  0  0  0  0  0  0  0  0  0  0  0
    0.9665    5.2586   -0.4041 H   0  0  0  0  0  0  0  0  0  0  0  0
    1.2517    5.6942   -2.0904 H   0  0  0  0  0  0  0  0  0  0  0  0
   -0.0480    4.5749   -1.6801 H   0  0  0  0  0  0  0  0  0  0  0  0
   -2.2423   -9.9866    1.9648 H   0  0  0  0  0  0  0  0  0  0  0  0
   -1.6622  -11.3856    1.0537 H   0  0  0  0  0  0  0  0  0  0  0  0
   -3.3902  -12.0639    2.6815 H   0  0  0  0  0  0  0  0  0  0  0  0
   -4.5470  -10.9357    1.9651 H   0  0  0  0  0  0  0  0  0  0  0  0
   -3.9811  -12.3314    1.0425 H   0  0  0  0  0  0  0  0  0  0  0  0
  1 70  1  0  0  0  0
  2  1  2  0  0  0  0
  3  4  1  0  0  0  0
  3  2  1  0  0  0  0
  4  5  2  0  0  0  0
  5  1  1  0  0  0  0
  5  6  1  0  0  0  0
  6  7  1  0  0  0  0
  7 25  1  0  0  0  0
  8  6  1  0  0  0  0
  9  4  1  0  0  0  0
  9  8  2  0  0  0  0
 10  9  1  0  0  0  0
 11 10  2  0  0  0  0
 12 13  1  0  0  0  0
 12 11  1  0  0  0  0
 13 14  2  0  0  0  0
 14 10  1  0  0  0  0
 14 15  1  0  0  0  0
 15 21  1  0  0  0  0
 15 16  2  0  0  0  0
 16  8  1  0  0  0  0
 16 17  1  0  0  0  0
 17 18  1  0  0  0  0
 18 78  1  0  0  0  0
 18 77  1  0  0  0  0
 18 19  1  0  0  0  0
 19 81  1  0  0  0  0
 20 24  1  0  0  0  0
 20 17  1  0  0  0  0
 21 20  2  0  0  0  0
 22 21  1  0  0  0  0
 22 23  1  0  0  0  0
 23 45  1  0  0  0  0
 23 24  2  0  0  0  0
 24 43  1  0  0  0  0
 25 84  1  0  0  0  0
 25 82  1  0  0  0  0
 25 83  1  0  0  0  0
 26 47  1  0  0  0  0
 26 85  1  0  0  0  0
 27 26  2  0  0  0  0
 28 27  1  0  0  0  0
 28 29  2  0  0  0  0
 29 32  1  0  0  0  0
 30 29  1  0  0  0  0
 31 30  3  0  0  0  0
 32 33  3  0  0  0  0
 34 28  1  0  0  0  0
 35 86  1  0  0  0  0
 35 34  2  0  0  0  0
 36 35  1  0  0  0  0
 37 36  1  0  0  0  0
 38 36  2  0  0  0  0
 38 39  1  0  0  0  0
 39 40  2  0  0  0  0
 40 34  1  0  0  0  0
 40 41  1  0  0  0  0
 41 27  1  0  0  0  0
 42 41  2  0  0  0  0
 44 46  1  0  0  0  0
 44 43  1  0  0  0  0
 45 44  2  0  0  0  0
 46 73  1  0  0  0  0
 47 46  2  0  0  0  0
 48 45  1  0  0  0  0
 48 47  1  0  0  0  0
 49 38  1  0  0  0  0
 50 65  1  0  0  0  0
 51 50  2  0  0  0  0
 52 50  1  0  0  0  0
 52 58  2  0  0  0  0
 53 52  1  0  0  0  0
 54 53  2  0  0  0  0
 54 55  1  0  0  0  0
 55 57  2  0  0  0  0
 56 55  1  0  0  0  0
 57 58  1  0  0  0  0
 57 89  1  0  0  0  0
 58 59  1  0  0  0  0
 59 60  2  0  0  0  0
 60 63  1  0  0  0  0
 60 61  1  0  0  0  0
 61 62  3  0  0  0  0
 63 64  3  0  0  0  0
 65 59  1  0  0  0  0
 65 66  1  1  0  0  0
 66 90  1  0  0  0  0
 67 54  1  0  0  0  0
 68 71  1  1  0  0  0
 68  2  1  0  0  0  0
 68 69  1  0  0  0  0
 69 66  1  6  0  0  0
 69 70  1  0  0  0  0
 71 72  1  0  0  0  0
 71 91  1  0  0  0  0
 72 93  1  0  0  0  0
 73 74  1  0  0  0  0
 73 96  1  0  0  0  0
 74 99  1  0  0  0  0
 74 98  1  0  0  0  0
 75  7  1  0  0  0  0
 76  7  1  0  0  0  0
 79 19  1  0  0  0  0
 80 19  1  0  0  0  0
 87 39  1  0  0  0  0
 88 53  1  0  0  0  0
 92 71  1  0  0  0  0
 94 72  1  0  0  0  0
 95 72  1  0  0  0  0
 97 73  1  0  0  0  0
100 74  1  0  0  0  0
M  RAD  4  65   2  66   2  68   2  69   2
M  END
