BPF-4F.sdf
  xtb     12202113373D
 energy: -180.181238261157 gnorm: 0.000531550358 xtb: 6.4.1 (unknown)
 85 96  0     0  0            999 V2000
   -5.7440   -7.3866   -0.5620 C   0  0  0  0  0  0  0  0  0  0  0  0
   -6.4142   -6.8187    0.2733 O   0  0  0  0  0  0  0  0  0  0  0  0
   -6.0414   -8.7135   -1.1463 C   0  0  0  0  0  0  0  0  0  0  0  0
   -7.1089   -9.5440   -0.8683 C   0  0  0  0  0  0  0  0  0  0  0  0
   -7.1791  -10.7495   -1.5471 C   0  0  0  0  0  0  0  0  0  0  0  0
   -8.1960  -11.5864   -1.3113 F   0  0  0  0  0  0  0  0  0  0  0  0
   -6.1978  -11.0988   -2.4756 C   0  0  0  0  0  0  0  0  0  0  0  0
   -6.2890  -12.2687   -3.1171 F   0  0  0  0  0  0  0  0  0  0  0  0
   -5.1262  -10.2637   -2.7540 C   0  0  0  0  0  0  0  0  0  0  0  0
   -5.0495   -9.0547   -2.0791 C   0  0  0  0  0  0  0  0  0  0  0  0
   -4.0716   -7.9682   -2.1449 C   0  0  0  0  0  0  0  0  0  0  0  0
   -2.9737   -7.9574   -2.9656 C   0  0  0  0  0  0  0  0  0  0  0  0
   -2.6353   -9.0062   -3.8488 C   0  0  0  0  0  0  0  0  0  0  0  0
   -2.2986   -9.8145   -4.5906 N   0  0  0  0  0  0  0  0  0  0  0  0
   -2.0158   -6.9265   -3.0757 C   0  0  0  0  0  0  0  0  0  0  0  0
   -1.1905   -6.1448   -3.2417 N   0  0  0  0  0  0  0  0  0  0  0  0
   -4.4925   -6.9401   -1.2086 C   0  0  0  0  0  0  0  0  0  0  0  0
   -3.8086   -5.7722   -0.9952 C   0  0  0  0  0  0  0  0  0  0  0  0
   -4.0689   -4.6768   -0.1560 C   0  0  0  0  0  0  0  0  0  0  0  0
   -3.1289   -3.6650   -0.2401 O   0  0  0  0  0  0  0  0  0  0  0  0
   -3.5266   -2.7057    0.5961 C   0  0  0  0  0  0  0  0  0  0  0  0
   -4.7272   -3.0718    1.2405 C   0  0  0  0  0  0  0  0  0  0  0  0
   -5.0674   -4.3310    0.7576 C   0  0  0  0  0  0  0  0  0  0  0  0
   -5.3200   -1.8541    2.3381 S   0  0  0  0  0  0  0  0  0  0  0  0
   -3.9598   -0.8629    1.9157 C   0  0  0  0  0  0  0  0  0  0  0  0
   -3.0815   -1.4453    0.9890 C   0  0  0  0  0  0  0  0  0  0  0  0
   -2.0432   -0.5936    0.7109 N   0  0  0  0  0  0  0  0  0  0  0  0
   -1.3343   -0.7627   -0.5428 C   0  0  0  0  0  0  0  0  0  0  0  0
   -2.2524    0.5585    1.4478 C   0  0  0  0  0  0  0  0  0  0  0  0
   -3.4615    0.4187    2.1892 C   0  0  0  0  0  0  0  0  0  0  0  0
   -4.0094    1.4982    2.9204 C   0  0  0  0  0  0  0  0  0  0  0  0
   -5.1272    1.5303    3.6282 N   0  0  0  0  0  0  0  0  0  0  0  0
   -5.3458    3.0353    4.1780 S   0  0  0  0  0  0  0  0  0  0  0  0
   -4.0217    3.7068    3.5358 N   0  0  0  0  0  0  0  0  0  0  0  0
   -3.3581    2.7755    2.8696 C   0  0  0  0  0  0  0  0  0  0  0  0
   -2.1133    2.8837    2.2078 C   0  0  0  0  0  0  0  0  0  0  0  0
   -1.5060    1.7569    1.5780 C   0  0  0  0  0  0  0  0  0  0  0  0
   -0.2366    2.1063    1.1723 N   0  0  0  0  0  0  0  0  0  0  0  0
    0.9063    1.2638    0.8872 C   0  0  0  0  0  0  0  0  0  0  0  0
    1.4252    1.4514   -0.5365 C   0  0  0  0  0  0  0  0  0  0  0  0
   -0.0547    3.4290    1.4755 C   0  0  0  0  0  0  0  0  0  0  0  0
   -1.2003    3.9412    2.1063 C   0  0  0  0  0  0  0  0  0  0  0  0
   -1.0885    5.6143    2.5562 S   0  0  0  0  0  0  0  0  0  0  0  0
    0.5261    5.6437    1.9010 C   0  0  0  0  0  0  0  0  0  0  0  0
    0.9386    4.4011    1.3678 C   0  0  0  0  0  0  0  0  0  0  0  0
    2.1747    4.4827    0.8808 O   0  0  0  0  0  0  0  0  0  0  0  0
    2.5949    5.7662    1.0814 C   0  0  0  0  0  0  0  0  0  0  0  0
    1.5909    6.5149    1.7121 C   0  0  0  0  0  0  0  0  0  0  0  0
    3.8577    6.2442    0.6966 C   0  0  0  0  0  0  0  0  0  0  0  0
    4.9158    5.5941    0.1157 C   0  0  0  0  0  0  0  0  0  0  0  0
    6.1763    6.2271   -0.2297 C   0  0  0  0  0  0  0  0  0  0  0  0
    6.4880    7.5601   -0.1650 C   0  0  0  0  0  0  0  0  0  0  0  0
    5.6279    8.5986    0.2518 C   0  0  0  0  0  0  0  0  0  0  0  0
    4.9993    9.5064    0.5683 N   0  0  0  0  0  0  0  0  0  0  0  0
    7.7398    8.0982   -0.5358 C   0  0  0  0  0  0  0  0  0  0  0  0
    8.7307    8.6027   -0.8192 N   0  0  0  0  0  0  0  0  0  0  0  0
    7.0811    5.1817   -0.7081 C   0  0  0  0  0  0  0  0  0  0  0  0
    8.4048    5.2304   -1.1191 C   0  0  0  0  0  0  0  0  0  0  0  0
    9.0056    4.0479   -1.5237 C   0  0  0  0  0  0  0  0  0  0  0  0
   10.2828    4.0733   -1.9191 F   0  0  0  0  0  0  0  0  0  0  0  0
    8.3131    2.8364   -1.5265 C   0  0  0  0  0  0  0  0  0  0  0  0
    8.9318    1.7190   -1.9260 F   0  0  0  0  0  0  0  0  0  0  0  0
    6.9912    2.7801   -1.1166 C   0  0  0  0  0  0  0  0  0  0  0  0
    6.3951    3.9574   -0.7102 C   0  0  0  0  0  0  0  0  0  0  0  0
    5.0110    4.1547   -0.2188 C   0  0  0  0  0  0  0  0  0  0  0  0
    4.1700    3.2885   -0.1240 O   0  0  0  0  0  0  0  0  0  0  0  0
   -1.9663    0.0857   -1.6436 C   0  0  0  0  0  0  0  0  0  0  0  0
   -7.8637   -9.2678   -0.1494 H   0  0  0  0  0  0  0  0  0  0  0  0
   -4.3971  -10.5830   -3.4801 H   0  0  0  0  0  0  0  0  0  0  0  0
   -2.8973   -5.6270   -1.5624 H   0  0  0  0  0  0  0  0  0  0  0  0
   -5.9125   -4.9369    1.0097 H   0  0  0  0  0  0  0  0  0  0  0  0
   -0.2814   -0.5170   -0.4391 H   0  0  0  0  0  0  0  0  0  0  0  0
   -1.4098   -1.8214   -0.8012 H   0  0  0  0  0  0  0  0  0  0  0  0
    1.7056    1.5416    1.5826 H   0  0  0  0  0  0  0  0  0  0  0  0
    0.6316    0.2303    1.1019 H   0  0  0  0  0  0  0  0  0  0  0  0
    1.9412    2.4034   -0.6186 H   0  0  0  0  0  0  0  0  0  0  0  0
    0.6169    1.4242   -1.2627 H   0  0  0  0  0  0  0  0  0  0  0  0
    2.1394    0.6672   -0.7710 H   0  0  0  0  0  0  0  0  0  0  0  0
    1.6599    7.5486    1.9818 H   0  0  0  0  0  0  0  0  0  0  0  0
    3.9814    7.2951    0.9199 H   0  0  0  0  0  0  0  0  0  0  0  0
    8.9856    6.1377   -1.1351 H   0  0  0  0  0  0  0  0  0  0  0  0
    6.4517    1.8464   -1.1153 H   0  0  0  0  0  0  0  0  0  0  0  0
   -1.9208    1.1425   -1.3880 H   0  0  0  0  0  0  0  0  0  0  0  0
   -3.0097   -0.1886   -1.7826 H   0  0  0  0  0  0  0  0  0  0  0  0
   -1.4390   -0.0738   -2.5799 H   0  0  0  0  0  0  0  0  0  0  0  0
  1  2  2  0  0  0  0
  1  3  1  0  0  0  0
  3  4  2  0  0  0  0
  4  5  1  0  0  0  0
  5  6  1  0  0  0  0
  5  7  2  0  0  0  0
  7  8  1  0  0  0  0
  7  9  1  0  0  0  0
  9 10  2  0  0  0  0
  3 10  1  0  0  0  0
 10 11  1  0  0  0  0
 11 12  2  0  0  0  0
 12 13  1  0  0  0  0
 13 14  3  0  0  0  0
 12 15  1  0  0  0  0
 15 16  3  0  0  0  0
 11 17  1  0  0  0  0
  1 17  1  0  0  0  0
 17 18  2  0  0  0  0
 18 19  1  0  0  0  0
 19 20  1  0  0  0  0
 20 21  1  0  0  0  0
 21 22  2  0  0  0  0
 22 23  1  0  0  0  0
 19 23  2  0  0  0  0
 22 24  1  0  0  0  0
 24 25  1  0  0  0  0
 25 26  2  0  0  0  0
 21 26  1  0  0  0  0
 26 27  1  0  0  0  0
 27 28  1  0  0  0  0
 27 29  1  0  0  0  0
 29 30  2  0  0  0  0
 25 30  1  0  0  0  0
 30 31  1  0  0  0  0
 31 32  2  0  0  0  0
 32 33  1  0  0  0  0
 33 34  1  0  0  0  0
 34 35  2  0  0  0  0
 31 35  1  0  0  0  0
 35 36  1  0  0  0  0
 36 37  2  0  0  0  0
 29 37  1  0  0  0  0
 37 38  1  0  0  0  0
 38 39  1  0  0  0  0
 39 40  1  0  0  0  0
 38 41  1  0  0  0  0
 41 42  2  0  0  0  0
 36 42  1  0  0  0  0
 42 43  1  0  0  0  0
 43 44  1  0  0  0  0
 44 45  2  0  0  0  0
 41 45  1  0  0  0  0
 45 46  1  0  0  0  0
 46 47  1  0  0  0  0
 47 48  2  0  0  0  0
 44 48  1  0  0  0  0
 47 49  1  0  0  0  0
 49 50  2  0  0  0  0
 50 51  1  0  0  0  0
 51 52  2  0  0  0  0
 52 53  1  0  0  0  0
 53 54  3  0  0  0  0
 52 55  1  0  0  0  0
 55 56  3  0  0  0  0
 51 57  1  0  0  0  0
 57 58  2  0  0  0  0
 58 59  1  0  0  0  0
 59 60  1  0  0  0  0
 59 61  2  0  0  0  0
 61 62  1  0  0  0  0
 61 63  1  0  0  0  0
 63 64  2  0  0  0  0
 57 64  1  0  0  0  0
 64 65  1  0  0  0  0
 65 66  2  0  0  0  0
 50 65  1  0  0  0  0
 28 67  1  0  0  0  0
  4 68  1  0  0  0  0
  9 69  1  0  0  0  0
 18 70  1  0  0  0  0
 23 71  1  0  0  0  0
 28 72  1  0  0  0  0
 28 73  1  0  0  0  0
 39 74  1  0  0  0  0
 39 75  1  0  0  0  0
 40 76  1  0  0  0  0
 40 77  1  0  0  0  0
 40 78  1  0  0  0  0
 48 79  1  0  0  0  0
 49 80  1  0  0  0  0
 58 81  1  0  0  0  0
 63 82  1  0  0  0  0
 67 83  1  0  0  0  0
 67 84  1  0  0  0  0
 67 85  1  0  0  0  0
M  END
