SCF done       -245.978062887458          0.000444689567
 OpenBabel12282109493D

152166  0  0  0  0  0  0  0  0999 V2000
   -1.0926   -0.6093   -0.4990 C   0  0  0  0  0  0  0  0  0  0  0  0
   -1.5951    0.4024    0.3581 C   0  0  0  0  0  0  0  0  0  0  0  0
   -0.8545    0.7838    1.4996 C   0  0  0  0  0  0  0  0  0  0  0  0
    0.2996    0.0574    1.7640 C   0  0  0  0  0  0  0  0  0  0  0  0
    0.8164   -0.9494    0.8820 C   0  0  0  0  0  0  0  0  0  0  0  0
    0.1174   -1.2516   -0.3025 C   0  0  0  0  0  0  0  0  0  0  0  0
    0.5005   -2.2151   -1.1981 O   0  0  0  0  0  0  0  0  0  0  0  0
    1.4262   -1.8222   -2.2067 C   0  0  0  0  0  0  0  0  0  0  0  0
   -1.4190    1.7647    2.2394 O   0  0  0  0  0  0  0  0  0  0  0  0
   -0.6521    2.5792    3.1067 C   0  0  0  0  0  0  0  0  0  0  0  0
    1.2329    0.1613    3.2589 S   0  0  0  0  0  0  0  0  0  0  0  0
    2.2424   -1.1227    2.7206 C   0  0  0  0  0  0  0  0  0  0  0  0
    1.9523   -1.5816    1.4476 C   0  0  0  0  0  0  0  0  0  0  0  0
    3.2421   -1.9267    3.3111 C   0  0  0  0  0  0  0  0  0  0  0  0
    3.5998   -2.9320    2.4051 C   0  0  0  0  0  0  0  0  0  0  0  0
    2.8840   -2.7234    1.0825 C   0  0  0  0  0  0  0  0  0  0  0  0
    2.0811   -3.9409    0.6675 C   0  0  0  0  0  0  0  0  0  0  0  0
    3.9910   -2.3000    0.1308 C   0  0  0  0  0  0  0  0  0  0  0  0
    1.1484   -4.4353    1.5722 C   0  0  0  0  0  0  0  0  0  0  0  0
    0.3520   -5.5143    1.2458 C   0  0  0  0  0  0  0  0  0  0  0  0
    0.4655   -6.1314    0.0069 C   0  0  0  0  0  0  0  0  0  0  0  0
    1.4021   -5.6380   -0.8894 C   0  0  0  0  0  0  0  0  0  0  0  0
    2.2014   -4.5566   -0.5678 C   0  0  0  0  0  0  0  0  0  0  0  0
    4.9484   -3.2232   -0.2704 C   0  0  0  0  0  0  0  0  0  0  0  0
    5.9965   -2.8488   -1.0919 C   0  0  0  0  0  0  0  0  0  0  0  0
    6.1323   -1.5373   -1.5262 C   0  0  0  0  0  0  0  0  0  0  0  0
    5.1882   -0.6107   -1.0974 C   0  0  0  0  0  0  0  0  0  0  0  0
    4.1379   -0.9797   -0.2780 C   0  0  0  0  0  0  0  0  0  0  0  0
   -0.4444   -7.2618   -0.3772 C   0  0  0  0  0  0  0  0  0  0  0  0
   -1.7039   -6.7170   -1.0543 C   0  0  0  0  0  0  0  0  0  0  0  0
    7.2592   -1.0685   -2.4084 C   0  0  0  0  0  0  0  0  0  0  0  0
    8.0721   -2.1738   -3.0706 C   0  0  0  0  0  0  0  0  0  0  0  0
    4.0477   -2.0679    4.8071 S   0  0  0  0  0  0  0  0  0  0  0  0
    4.8831   -3.5181    4.2272 C   0  0  0  0  0  0  0  0  0  0  0  0
    4.5230   -3.8213    2.9155 C   0  0  0  0  0  0  0  0  0  0  0  0
    5.7418   -4.1362    5.1492 C   0  0  0  0  0  0  0  0  0  0  0  0
    6.5106   -5.2709    5.0717 C   0  0  0  0  0  0  0  0  0  0  0  0
    6.6696   -6.2090    3.9387 C   0  0  0  0  0  0  0  0  0  0  0  0
    7.5483   -7.2875    4.4307 C   0  0  0  0  0  0  0  0  0  0  0  0
    7.9282   -7.0248    5.7562 C   0  0  0  0  0  0  0  0  0  0  0  0
    7.3160   -5.7647    6.1770 C   0  0  0  0  0  0  0  0  0  0  0  0
    6.2055   -6.1441    2.8170 O   0  0  0  0  0  0  0  0  0  0  0  0
    7.5066   -5.1828    7.4041 C   0  0  0  0  0  0  0  0  0  0  0  0
    6.9621   -3.9632    7.8599 C   0  0  0  0  0  0  0  0  0  0  0  0
    8.3132   -5.7313    8.4245 C   0  0  0  0  0  0  0  0  0  0  0  0
    6.5785   -2.9862    8.3282 N   0  0  0  0  0  0  0  0  0  0  0  0
    8.9487   -6.1078    9.3036 N   0  0  0  0  0  0  0  0  0  0  0  0
    7.9768   -8.4152    3.7582 C   0  0  0  0  0  0  0  0  0  0  0  0
    8.8036   -9.3038    4.4300 C   0  0  0  0  0  0  0  0  0  0  0  0
    9.1827   -9.0541    5.7410 C   0  0  0  0  0  0  0  0  0  0  0  0
    8.7545   -7.9198    6.4184 C   0  0  0  0  0  0  0  0  0  0  0  0
   -2.1744   -0.9938   -1.8188 S   0  0  0  0  0  0  0  0  0  0  0  0
   -3.2824    0.1931   -1.2298 C   0  0  0  0  0  0  0  0  0  0  0  0
   -2.8570    0.8524   -0.0875 C   0  0  0  0  0  0  0  0  0  0  0  0
   -4.5431    0.6900   -1.6311 C   0  0  0  0  0  0  0  0  0  0  0  0
   -4.9221    1.7044   -0.7367 C   0  0  0  0  0  0  0  0  0  0  0  0
   -3.8689    1.8946    0.3402 C   0  0  0  0  0  0  0  0  0  0  0  0
   -4.5072    1.6251    1.6873 C   0  0  0  0  0  0  0  0  0  0  0  0
   -3.2216    3.2673    0.2190 C   0  0  0  0  0  0  0  0  0  0  0  0
   -4.2133    0.4899    2.4273 C   0  0  0  0  0  0  0  0  0  0  0  0
   -4.8322    0.2644    3.6439 C   0  0  0  0  0  0  0  0  0  0  0  0
   -5.7699    1.1542    4.1475 C   0  0  0  0  0  0  0  0  0  0  0  0
   -6.0795    2.2786    3.3927 C   0  0  0  0  0  0  0  0  0  0  0  0
   -5.4624    2.5090    2.1788 C   0  0  0  0  0  0  0  0  0  0  0  0
   -2.7637    3.6741   -1.0298 C   0  0  0  0  0  0  0  0  0  0  0  0
   -2.1446    4.8981   -1.1912 C   0  0  0  0  0  0  0  0  0  0  0  0
   -1.9590    5.7505   -0.1099 C   0  0  0  0  0  0  0  0  0  0  0  0
   -2.4150    5.3389    1.1346 C   0  0  0  0  0  0  0  0  0  0  0  0
   -3.0354    4.1130    1.3011 C   0  0  0  0  0  0  0  0  0  0  0  0
   -6.3982    0.9347    5.4933 C   0  0  0  0  0  0  0  0  0  0  0  0
   -5.5611    1.6023    6.5866 C   0  0  0  0  0  0  0  0  0  0  0  0
   -1.3246    7.0991   -0.2915 C   0  0  0  0  0  0  0  0  0  0  0  0
   -2.3884    8.1489   -0.6188 C   0  0  0  0  0  0  0  0  0  0  0  0
   -5.6842    0.4011   -2.8694 S   0  0  0  0  0  0  0  0  0  0  0  0
   -6.7165    1.6584   -2.1986 C   0  0  0  0  0  0  0  0  0  0  0  0
   -6.1408    2.2490   -1.0608 C   0  0  0  0  0  0  0  0  0  0  0  0
   -7.9690    2.0579   -2.6758 C   0  0  0  0  0  0  0  0  0  0  0  0
   -8.7111    1.5981   -3.7370 C   0  0  0  0  0  0  0  0  0  0  0  0
   -8.3120    0.5320   -4.6609 C   0  0  0  0  0  0  0  0  0  0  0  0
   -9.4332    0.3669   -5.6041 C   0  0  0  0  0  0  0  0  0  0  0  0
  -10.4511    1.2808   -5.2797 C   0  0  0  0  0  0  0  0  0  0  0  0
  -10.0237    2.0718   -4.1240 C   0  0  0  0  0  0  0  0  0  0  0  0
   -7.2686   -0.0984   -4.6626 O   0  0  0  0  0  0  0  0  0  0  0  0
  -10.7566    3.0748   -3.5420 C   0  0  0  0  0  0  0  0  0  0  0  0
  -10.3605    3.8541   -2.4356 C   0  0  0  0  0  0  0  0  0  0  0  0
  -12.0346    3.4803   -3.9802 C   0  0  0  0  0  0  0  0  0  0  0  0
  -10.1195    4.5364   -1.5428 N   0  0  0  0  0  0  0  0  0  0  0  0
  -13.0747    3.8645   -4.2788 N   0  0  0  0  0  0  0  0  0  0  0  0
   -9.5551   -0.5159   -6.6583 C   0  0  0  0  0  0  0  0  0  0  0  0
  -10.7249   -0.4862   -7.4050 C   0  0  0  0  0  0  0  0  0  0  0  0
  -11.7360    0.4094   -7.0907 C   0  0  0  0  0  0  0  0  0  0  0  0
  -11.6149    1.3004   -6.0313 C   0  0  0  0  0  0  0  0  0  0  0  0
    0.4006    3.3951    2.3675 C   0  0  0  0  0  0  0  0  0  0  0  0
    0.9457   -0.6785   -3.0911 C   0  0  0  0  0  0  0  0  0  0  0  0
    2.3856   -1.5531   -1.7496 H   0  0  0  0  0  0  0  0  0  0  0  0
    1.5566   -2.7281   -2.8015 H   0  0  0  0  0  0  0  0  0  0  0  0
   -1.3949    3.2438    3.5538 H   0  0  0  0  0  0  0  0  0  0  0  0
   -0.1968    1.9900    3.9099 H   0  0  0  0  0  0  0  0  0  0  0  0
    1.0424   -3.9658    2.5408 H   0  0  0  0  0  0  0  0  0  0  0  0
   -0.3700   -5.8808    1.9617 H   0  0  0  0  0  0  0  0  0  0  0  0
    1.5069   -6.1033   -1.8594 H   0  0  0  0  0  0  0  0  0  0  0  0
    2.9122   -4.1919   -1.2926 H   0  0  0  0  0  0  0  0  0  0  0  0
    4.8811   -4.2466    0.0648 H   0  0  0  0  0  0  0  0  0  0  0  0
    6.7153   -3.5977   -1.3828 H   0  0  0  0  0  0  0  0  0  0  0  0
    5.2784    0.4211   -1.4075 H   0  0  0  0  0  0  0  0  0  0  0  0
    3.4323   -0.2272    0.0449 H   0  0  0  0  0  0  0  0  0  0  0  0
    0.0709   -7.9363   -1.0642 H   0  0  0  0  0  0  0  0  0  0  0  0
   -0.7285   -7.8297    0.5111 H   0  0  0  0  0  0  0  0  0  0  0  0
   -1.4391   -6.1503   -1.9439 H   0  0  0  0  0  0  0  0  0  0  0  0
   -2.3652   -7.5311   -1.3420 H   0  0  0  0  0  0  0  0  0  0  0  0
   -2.2396   -6.0547   -0.3781 H   0  0  0  0  0  0  0  0  0  0  0  0
    6.8390   -0.4206   -3.1832 H   0  0  0  0  0  0  0  0  0  0  0  0
    7.9285   -0.4467   -1.8045 H   0  0  0  0  0  0  0  0  0  0  0  0
    7.4269   -2.8348   -3.6450 H   0  0  0  0  0  0  0  0  0  0  0  0
    8.8029   -1.7364   -3.7474 H   0  0  0  0  0  0  0  0  0  0  0  0
    8.6098   -2.7619   -2.3309 H   0  0  0  0  0  0  0  0  0  0  0  0
    4.9273   -4.6735    2.4026 H   0  0  0  0  0  0  0  0  0  0  0  0
    5.7785   -3.6127    6.0973 H   0  0  0  0  0  0  0  0  0  0  0  0
    7.6659   -8.5868    2.7390 H   0  0  0  0  0  0  0  0  0  0  0  0
    9.1542  -10.1953    3.9322 H   0  0  0  0  0  0  0  0  0  0  0  0
    9.8256   -9.7558    6.2511 H   0  0  0  0  0  0  0  0  0  0  0  0
    9.0666   -7.7569    7.4365 H   0  0  0  0  0  0  0  0  0  0  0  0
   -3.4969   -0.2286    2.0603 H   0  0  0  0  0  0  0  0  0  0  0  0
   -4.5833   -0.6231    4.2083 H   0  0  0  0  0  0  0  0  0  0  0  0
   -6.8152    2.9810    3.7580 H   0  0  0  0  0  0  0  0  0  0  0  0
   -5.7184    3.3915    1.6117 H   0  0  0  0  0  0  0  0  0  0  0  0
   -2.8928    3.0266   -1.8855 H   0  0  0  0  0  0  0  0  0  0  0  0
   -1.7970    5.1949   -2.1706 H   0  0  0  0  0  0  0  0  0  0  0  0
   -2.2787    5.9847    1.9910 H   0  0  0  0  0  0  0  0  0  0  0  0
   -3.3698    3.8154    2.2820 H   0  0  0  0  0  0  0  0  0  0  0  0
   -7.4060    1.3545    5.5050 H   0  0  0  0  0  0  0  0  0  0  0  0
   -6.4706   -0.1351    5.6987 H   0  0  0  0  0  0  0  0  0  0  0  0
   -5.4897    2.6729    6.4077 H   0  0  0  0  0  0  0  0  0  0  0  0
   -6.0127    1.4428    7.5629 H   0  0  0  0  0  0  0  0  0  0  0  0
   -4.5547    1.1894    6.5972 H   0  0  0  0  0  0  0  0  0  0  0  0
   -0.8020    7.3895    0.6224 H   0  0  0  0  0  0  0  0  0  0  0  0
   -0.5964    7.0596   -1.1043 H   0  0  0  0  0  0  0  0  0  0  0  0
   -3.1171    8.2124    0.1860 H   0  0  0  0  0  0  0  0  0  0  0  0
   -1.9305    9.1263   -0.7513 H   0  0  0  0  0  0  0  0  0  0  0  0
   -2.9127    7.8834   -1.5340 H   0  0  0  0  0  0  0  0  0  0  0  0
   -6.6384    3.0404   -0.5301 H   0  0  0  0  0  0  0  0  0  0  0  0
   -8.4086    2.8539   -2.0869 H   0  0  0  0  0  0  0  0  0  0  0  0
   -8.7550   -1.2045   -6.8826 H   0  0  0  0  0  0  0  0  0  0  0  0
  -10.8505   -1.1649   -8.2352 H   0  0  0  0  0  0  0  0  0  0  0  0
  -12.6407    0.4179   -7.6799 H   0  0  0  0  0  0  0  0  0  0  0  0
  -12.4189    1.9835   -5.8121 H   0  0  0  0  0  0  0  0  0  0  0  0
   -0.0708    3.9716    1.5745 H   0  0  0  0  0  0  0  0  0  0  0  0
    0.8861    4.0739    3.0623 H   0  0  0  0  0  0  0  0  0  0  0  0
    1.1567    2.7490    1.9283 H   0  0  0  0  0  0  0  0  0  0  0  0
    0.0164   -0.9415   -3.5893 H   0  0  0  0  0  0  0  0  0  0  0  0
    0.7863    0.2238   -2.5031 H   0  0  0  0  0  0  0  0  0  0  0  0
    1.7035   -0.4729   -3.8425 H   0  0  0  0  0  0  0  0  0  0  0  0
  1  6  2  0  0  0  0
  1  2  1  0  0  0  0
  2  3  2  0  0  0  0
  3  4  1  0  0  0  0
  3  9  1  0  0  0  0
  4 11  1  0  0  0  0
  5 13  1  0  0  0  0
  5  4  2  0  0  0  0
  6  5  1  0  0  0  0
  7  6  1  0  0  0  0
  8 95  1  0  0  0  0
  8  7  1  0  0  0  0
  9 10  1  0  0  0  0
 10 97  1  0  0  0  0
 10 98  1  0  0  0  0
 12 11  1  0  0  0  0
 12 14  1  0  0  0  0
 13 12  2  0  0  0  0
 14 33  1  0  0  0  0
 15 35  1  0  0  0  0
 15 14  2  0  0  0  0
 16 13  1  0  0  0  0
 16 15  1  0  0  0  0
 17 16  1  0  0  0  0
 17 19  2  0  0  0  0
 18 16  1  0  0  0  0
 19 99  1  0  0  0  0
 20 19  1  0  0  0  0
 20100  1  0  0  0  0
 21 20  2  0  0  0  0
 22 23  2  0  0  0  0
 22 21  1  0  0  0  0
 23 17  1  0  0  0  0
 24103  1  0  0  0  0
 24 18  1  0  0  0  0
 25 24  2  0  0  0  0
 26 27  2  0  0  0  0
 26 25  1  0  0  0  0
 27 28  1  0  0  0  0
 28106  1  0  0  0  0
 28 18  2  0  0  0  0
 29 21  1  0  0  0  0
 29108  1  0  0  0  0
 30111  1  0  0  0  0
 30 29  1  0  0  0  0
 31113  1  0  0  0  0
 31 26  1  0  0  0  0
 32 31  1  0  0  0  0
 32116  1  0  0  0  0
 34 33  1  0  0  0  0
 34 36  1  0  0  0  0
 35 34  2  0  0  0  0
 36118  1  0  0  0  0
 37 36  1  0  0  0  0
 37 41  2  0  0  0  0
 38 39  1  0  0  0  0
 38 37  1  0  0  0  0
 39 40  2  0  0  0  0
 40 41  1  0  0  0  0
 40 51  1  0  0  0  0
 41 43  1  0  0  0  0
 42 38  2  0  0  0  0
 43 44  1  0  0  0  0
 43 45  1  0  0  0  0
 44 46  3  0  0  0  0
 45 47  3  0  0  0  0
 48 49  2  0  0  0  0
 48 39  1  0  0  0  0
 49 50  1  0  0  0  0
 50121  1  0  0  0  0
 50 51  2  0  0  0  0
 51122  1  0  0  0  0
 52 53  1  0  0  0  0
 52  1  1  0  0  0  0
 53 54  2  0  0  0  0
 54 57  1  0  0  0  0
 54  2  1  0  0  0  0
 55 53  1  0  0  0  0
 55 56  2  0  0  0  0
 56 57  1  0  0  0  0
 57 58  1  0  0  0  0
 58 64  2  0  0  0  0
 58 60  1  0  0  0  0
 59 57  1  0  0  0  0
 59 69  2  0  0  0  0
 60 61  2  0  0  0  0
 61 62  1  0  0  0  0
 61124  1  0  0  0  0
 62 70  1  0  0  0  0
 63125  1  0  0  0  0
 63 62  2  0  0  0  0
 64 63  1  0  0  0  0
 65 59  1  0  0  0  0
 66 65  2  0  0  0  0
 66 67  1  0  0  0  0
 67 68  2  0  0  0  0
 68 69  1  0  0  0  0
 68129  1  0  0  0  0
 69130  1  0  0  0  0
 70131  1  0  0  0  0
 70132  1  0  0  0  0
 70 71  1  0  0  0  0
 71135  1  0  0  0  0
 71134  1  0  0  0  0
 72 67  1  0  0  0  0
 72136  1  0  0  0  0
 73 72  1  0  0  0  0
 73138  1  0  0  0  0
 74 75  1  0  0  0  0
 74 55  1  0  0  0  0
 75 76  2  0  0  0  0
 76 56  1  0  0  0  0
 76141  1  0  0  0  0
 77 75  1  0  0  0  0
 77142  1  0  0  0  0
 78 77  1  0  0  0  0
 79 78  1  0  0  0  0
 80 81  1  0  0  0  0
 80 79  1  0  0  0  0
 81 82  1  0  0  0  0
 82 78  2  0  0  0  0
 82 84  1  0  0  0  0
 83 79  2  0  0  0  0
 84 85  1  0  0  0  0
 85 87  3  0  0  0  0
 86 84  1  0  0  0  0
 88 86  3  0  0  0  0
 89 80  2  0  0  0  0
 90 91  2  0  0  0  0
 90 89  1  0  0  0  0
 91 92  1  0  0  0  0
 92146  1  0  0  0  0
 92 81  2  0  0  0  0
 93148  1  0  0  0  0
 93 10  1  0  0  0  0
 94151  1  0  0  0  0
 94  8  1  0  0  0  0
 96  8  1  0  0  0  0
101 22  1  0  0  0  0
102 23  1  0  0  0  0
104 25  1  0  0  0  0
105 27  1  0  0  0  0
107 29  1  0  0  0  0
109 30  1  0  0  0  0
110 30  1  0  0  0  0
112 31  1  0  0  0  0
114 32  1  0  0  0  0
115 32  1  0  0  0  0
117 35  1  0  0  0  0
119 48  1  0  0  0  0
120 49  1  0  0  0  0
123 60  1  0  0  0  0
126 64  1  0  0  0  0
127 65  1  0  0  0  0
128 66  1  0  0  0  0
133 71  1  0  0  0  0
137 72  1  0  0  0  0
139 73  1  0  0  0  0
140 73  1  0  0  0  0
143 89  1  0  0  0  0
144 90  1  0  0  0  0
145 91  1  0  0  0  0
147 93  1  0  0  0  0
149 93  1  0  0  0  0
150 94  1  0  0  0  0
152 94  1  0  0  0  0
M  RAD  4  36   2  43   2  77   2  84   2
M  END
