SCF done       -252.384828002279          0.001346440038
 OpenBabel12282109493D

152166  0  0  1  0  0  0  0  0999 V2000
    2.4550   -2.8386    0.0299 C   0  0  0  0  0  0  0  0  0  0  0  0
    2.6108   -2.1521    1.2587 C   0  0  0  0  0  0  0  0  0  0  0  0
    1.6749   -1.2204    1.7025 C   0  0  0  0  0  0  0  0  0  0  0  0
    0.5479   -1.0493    0.9341 C   0  0  0  0  0  0  0  0  0  0  0  0
    0.3354   -1.8282   -0.2291 C   0  0  0  0  0  0  0  0  0  0  0  0
    1.3064   -2.7021   -0.7131 C   0  0  0  0  0  0  0  0  0  0  0  0
    3.6465   -3.7436   -0.2388 C   0  0  0  0  0  0  0  0  0  0  0  0
    4.3883   -3.6305    1.0689 C   0  0  0  0  0  0  0  0  0  0  0  0
    3.7919   -2.6684    1.8728 C   0  0  0  0  0  0  0  0  0  0  0  0
    5.4847   -4.2406    1.6632 C   0  0  0  0  0  0  0  0  0  0  0  0
    5.7116   -3.7737    2.9478 C   0  0  0  0  0  0  0  0  0  0  0  0
    4.5690   -2.5121    3.3914 S   0  0  0  0  0  0  0  0  0  0  0  0
   -0.6420   -0.1412    1.2016 C   0  0  0  0  0  0  0  0  0  0  0  0
   -1.6124   -0.6348    0.1575 C   0  0  0  0  0  0  0  0  0  0  0  0
   -0.9975   -1.5648   -0.6708 C   0  0  0  0  0  0  0  0  0  0  0  0
   -2.9438   -0.4163   -0.1665 C   0  0  0  0  0  0  0  0  0  0  0  0
   -3.3635   -1.2159   -1.2210 C   0  0  0  0  0  0  0  0  0  0  0  0
   -2.0669   -2.2118   -1.8447 S   0  0  0  0  0  0  0  0  0  0  0  0
    6.6487   -4.2689    3.9011 C   0  0  0  0  0  0  0  0  0  0  0  0
   -4.6907   -1.3598   -1.7287 C   0  0  0  0  0  0  0  0  0  0  0  0
   -1.1071   -0.3258    2.6304 C   0  0  0  0  0  0  0  0  0  0  0  0
   -0.3532    1.3178    0.8870 C   0  0  0  0  0  0  0  0  0  0  0  0
    3.1662   -5.1390   -0.5743 C   0  0  0  0  0  0  0  0  0  0  0  0
    4.5752   -3.1962   -1.3119 C   0  0  0  0  0  0  0  0  0  0  0  0
    6.6443   -3.8586    5.2326 C   0  0  0  0  0  0  0  0  0  0  0  0
    7.4539   -4.4154    6.2120 C   0  0  0  0  0  0  0  0  0  0  0  0
    8.3650   -5.4342    5.9408 C   0  0  0  0  0  0  0  0  0  0  0  0
    8.4581   -5.8315    4.5744 C   0  0  0  0  0  0  0  0  0  0  0  0
    7.6056   -5.2677    3.5634 C   0  0  0  0  0  0  0  0  0  0  0  0
   -5.7562   -0.5589   -1.3264 C   0  0  0  0  0  0  0  0  0  0  0  0
   -7.0597   -0.7773   -1.7536 C   0  0  0  0  0  0  0  0  0  0  0  0
   -7.4131   -1.7924   -2.6364 C   0  0  0  0  0  0  0  0  0  0  0  0
   -6.3639   -2.6483   -3.0556 C   0  0  0  0  0  0  0  0  0  0  0  0
   -5.0144   -2.4162   -2.6216 C   0  0  0  0  0  0  0  0  0  0  0  0
    9.2834   -6.7478    4.0755 N   0  0  0  0  0  0  0  0  0  0  0  0
    9.0227   -6.8839    2.4946 S   0  0  0  0  0  0  0  0  0  0  0  0
    7.8457   -5.7962    2.3651 N   0  0  0  0  0  0  0  0  0  0  0  0
   -6.4625   -3.7528   -3.7925 N   0  0  0  0  0  0  0  0  0  0  0  0
   -5.0025   -4.3939   -3.9718 S   0  0  0  0  0  0  0  0  0  0  0  0
   -4.1744   -3.3336   -3.0931 N   0  0  0  0  0  0  0  0  0  0  0  0
    9.1895   -6.1373    6.8650 C   0  0  0  0  0  0  0  0  0  0  0  0
    9.2642   -6.1554    8.2239 C   0  0  0  0  0  0  0  0  0  0  0  0
   -8.7813   -2.0068   -3.0075 C   0  0  0  0  0  0  0  0  0  0  0  0
   -9.2297   -2.5349   -4.1692 C   0  0  2  0  0  0  0  0  0  0  0  0
   -8.5022   -2.7150   -5.4263 C   0  0  0  0  0  0  0  0  0  0  0  0
   -9.2937   -3.3986   -6.3457 N   0  0  0  0  0  0  0  0  0  0  0  0
  -10.5682   -3.6680   -5.9649 C   0  0  0  0  0  0  0  0  0  0  0  0
  -10.9022   -3.0357   -4.3674 S   0  0  0  0  0  0  0  0  0  0  0  0
    8.5330   -5.4461    9.2674 C   0  0  0  0  0  0  0  0  0  0  0  0
    8.9102   -5.8997   10.5279 N   0  0  0  0  0  0  0  0  0  0  0  0
    9.8715   -6.8578   10.5713 C   0  0  0  0  0  0  0  0  0  0  0  0
   10.4086   -7.2774    8.9654 S   0  0  0  0  0  0  0  0  0  0  0  0
    8.3014   -5.2906   11.6965 C   0  0  0  0  0  0  0  0  0  0  0  0
    7.6922   -4.5810    9.1368 O   0  0  0  0  0  0  0  0  0  0  0  0
   10.4046   -7.4874   11.6691 C   0  0  0  0  0  0  0  0  0  0  0  0
   11.3932   -8.4766   11.4840 C   0  0  0  0  0  0  0  0  0  0  0  0
   10.0679   -7.2662   13.0147 C   0  0  0  0  0  0  0  0  0  0  0  0
    2.8673   -5.4730   -1.8894 C   0  0  0  0  0  0  0  0  0  0  0  0
    2.3861   -6.7299   -2.2020 C   0  0  0  0  0  0  0  0  0  0  0  0
    2.1848   -7.6831   -1.2124 C   0  0  0  0  0  0  0  0  0  0  0  0
    2.4754   -7.3409    0.1014 C   0  0  0  0  0  0  0  0  0  0  0  0
    2.9541   -6.0835    0.4200 C   0  0  0  0  0  0  0  0  0  0  0  0
    5.6332   -3.9852   -1.7484 C   0  0  0  0  0  0  0  0  0  0  0  0
    6.5303   -3.5030   -2.6808 C   0  0  0  0  0  0  0  0  0  0  0  0
    6.4022   -2.2188   -3.1960 C   0  0  0  0  0  0  0  0  0  0  0  0
    5.3461   -1.4347   -2.7541 C   0  0  0  0  0  0  0  0  0  0  0  0
    4.4444   -1.9124   -1.8196 C   0  0  0  0  0  0  0  0  0  0  0  0
   -0.5372    0.4280    3.6495 C   0  0  0  0  0  0  0  0  0  0  0  0
   -0.9186    0.2345    4.9632 C   0  0  0  0  0  0  0  0  0  0  0  0
   -1.8731   -0.7180    5.2964 C   0  0  0  0  0  0  0  0  0  0  0  0
   -2.4328   -1.4745    4.2760 C   0  0  0  0  0  0  0  0  0  0  0  0
   -2.0512   -1.2879    2.9599 C   0  0  0  0  0  0  0  0  0  0  0  0
    0.7814    1.7121    0.1937 C   0  0  0  0  0  0  0  0  0  0  0  0
    0.9869    3.0456   -0.1126 C   0  0  0  0  0  0  0  0  0  0  0  0
    0.0666    4.0156    0.2587 C   0  0  0  0  0  0  0  0  0  0  0  0
   -1.0747    3.6135    0.9415 C   0  0  0  0  0  0  0  0  0  0  0  0
   -1.2843    2.2838    1.2500 C   0  0  0  0  0  0  0  0  0  0  0  0
   -7.4041   -2.2937   -5.7060 O   0  0  0  0  0  0  0  0  0  0  0  0
   -8.7465   -3.6840   -7.6591 C   0  0  0  0  0  0  0  0  0  0  0  0
  -11.5452   -4.3408   -6.6542 C   0  0  0  0  0  0  0  0  0  0  0  0
  -12.8166   -4.5085   -6.0655 C   0  0  0  0  0  0  0  0  0  0  0  0
  -11.4275   -4.9213   -7.9284 C   0  0  0  0  0  0  0  0  0  0  0  0
   12.1979   -9.2827   11.3471 N   0  0  0  0  0  0  0  0  0  0  0  0
    9.8449   -7.1361   14.1341 N   0  0  0  0  0  0  0  0  0  0  0  0
  -11.4015   -5.4199   -8.9630 N   0  0  0  0  0  0  0  0  0  0  0  0
  -13.8547   -4.6498   -5.5992 N   0  0  0  0  0  0  0  0  0  0  0  0
   -2.3222   -0.8880    6.7189 C   0  0  0  0  0  0  0  0  0  0  0  0
    0.2726    5.4556   -0.1132 C   0  0  0  0  0  0  0  0  0  0  0  0
    7.3542   -1.7106   -4.2399 C   0  0  0  0  0  0  0  0  0  0  0  0
    1.7139   -9.0657   -1.5606 C   0  0  0  0  0  0  0  0  0  0  0  0
    2.9084   -9.9875   -1.8132 C   0  0  0  0  0  0  0  0  0  0  0  0
    6.8425   -2.0497   -5.6414 C   0  0  0  0  0  0  0  0  0  0  0  0
   -3.4716    0.0716    7.0342 C   0  0  0  0  0  0  0  0  0  0  0  0
   -0.3589    5.7517   -1.4751 C   0  0  0  0  0  0  0  0  0  0  0  0
   -9.1901   -2.6526   -8.6896 C   0  0  0  0  0  0  0  0  0  0  0  0
    9.1872   -4.1994   12.2853 C   0  0  0  0  0  0  0  0  0  0  0  0
    1.8246   -0.6811    2.6252 H   0  0  0  0  0  0  0  0  0  0  0  0
    1.1427   -3.2638   -1.6197 H   0  0  0  0  0  0  0  0  0  0  0  0
    6.0884   -5.0133    1.2258 H   0  0  0  0  0  0  0  0  0  0  0  0
   -3.5946    0.2565    0.3606 H   0  0  0  0  0  0  0  0  0  0  0  0
    5.9473   -3.0859    5.5236 H   0  0  0  0  0  0  0  0  0  0  0  0
    7.3565   -4.0599    7.2238 H   0  0  0  0  0  0  0  0  0  0  0  0
   -5.5695    0.2613   -0.6515 H   0  0  0  0  0  0  0  0  0  0  0  0
   -7.8357   -0.1136   -1.4004 H   0  0  0  0  0  0  0  0  0  0  0  0
    9.8622   -6.8286    6.3667 H   0  0  0  0  0  0  0  0  0  0  0  0
   -9.5207   -1.7473   -2.2586 H   0  0  0  0  0  0  0  0  0  0  0  0
    7.3604   -4.8549   11.3495 H   0  0  0  0  0  0  0  0  0  0  0  0
    8.0904   -6.0642   12.4362 H   0  0  0  0  0  0  0  0  0  0  0  0
    3.0232   -4.7475   -2.6750 H   0  0  0  0  0  0  0  0  0  0  0  0
    2.1621   -6.9739   -3.2309 H   0  0  0  0  0  0  0  0  0  0  0  0
    2.3210   -8.0662    0.8877 H   0  0  0  0  0  0  0  0  0  0  0  0
    3.1654   -5.8376    1.4506 H   0  0  0  0  0  0  0  0  0  0  0  0
    5.7478   -4.9859   -1.3585 H   0  0  0  0  0  0  0  0  0  0  0  0
    7.3465   -4.1302   -3.0097 H   0  0  0  0  0  0  0  0  0  0  0  0
    5.2280   -0.4324   -3.1412 H   0  0  0  0  0  0  0  0  0  0  0  0
    3.6350   -1.2786   -1.4882 H   0  0  0  0  0  0  0  0  0  0  0  0
    0.2021    1.1794    3.4110 H   0  0  0  0  0  0  0  0  0  0  0  0
   -0.4664    0.8312    5.7427 H   0  0  0  0  0  0  0  0  0  0  0  0
   -3.1739   -2.2246    4.5133 H   0  0  0  0  0  0  0  0  0  0  0  0
   -2.4930   -1.8964    2.1841 H   0  0  0  0  0  0  0  0  0  0  0  0
    1.5141    0.9776   -0.1068 H   0  0  0  0  0  0  0  0  0  0  0  0
    1.8804    3.3358   -0.6471 H   0  0  0  0  0  0  0  0  0  0  0  0
   -1.8064    4.3520    1.2374 H   0  0  0  0  0  0  0  0  0  0  0  0
   -2.1729    1.9906    1.7904 H   0  0  0  0  0  0  0  0  0  0  0  0
   -7.6603   -3.6448   -7.5417 H   0  0  0  0  0  0  0  0  0  0  0  0
   -9.0425   -4.6900   -7.9611 H   0  0  0  0  0  0  0  0  0  0  0  0
   -2.6552   -1.9147    6.8826 H   0  0  0  0  0  0  0  0  0  0  0  0
   -1.4899   -0.6862    7.3961 H   0  0  0  0  0  0  0  0  0  0  0  0
   -0.1805    6.1017    0.6413 H   0  0  0  0  0  0  0  0  0  0  0  0
    1.3408    5.6777   -0.1566 H   0  0  0  0  0  0  0  0  0  0  0  0
    7.4607   -0.6278   -4.1483 H   0  0  0  0  0  0  0  0  0  0  0  0
    8.3370   -2.1640   -4.0965 H   0  0  0  0  0  0  0  0  0  0  0  0
    1.1143   -9.4701   -0.7427 H   0  0  0  0  0  0  0  0  0  0  0  0
    1.0912   -9.0302   -2.4566 H   0  0  0  0  0  0  0  0  0  0  0  0
    3.5322  -10.0499   -0.9245 H   0  0  0  0  0  0  0  0  0  0  0  0
    2.5701  -10.9884   -2.0712 H   0  0  0  0  0  0  0  0  0  0  0  0
    3.5152   -9.6044   -2.6305 H   0  0  0  0  0  0  0  0  0  0  0  0
    5.8690   -1.5944   -5.8089 H   0  0  0  0  0  0  0  0  0  0  0  0
    7.5325   -1.6830   -6.3978 H   0  0  0  0  0  0  0  0  0  0  0  0
    6.7406   -3.1265   -5.7565 H   0  0  0  0  0  0  0  0  0  0  0  0
   -4.3172   -0.1228    6.3781 H   0  0  0  0  0  0  0  0  0  0  0  0
   -3.7968   -0.0490    8.0649 H   0  0  0  0  0  0  0  0  0  0  0  0
   -3.1550    1.1020    6.8879 H   0  0  0  0  0  0  0  0  0  0  0  0
   -1.4273    5.5491   -1.4490 H   0  0  0  0  0  0  0  0  0  0  0  0
   -0.2093    6.7943   -1.7457 H   0  0  0  0  0  0  0  0  0  0  0  0
    0.0884    5.1252   -2.2436 H   0  0  0  0  0  0  0  0  0  0  0  0
   -8.8703   -1.6584   -8.3856 H   0  0  0  0  0  0  0  0  0  0  0  0
   -8.7396   -2.8874   -9.6492 H   0  0  0  0  0  0  0  0  0  0  0  0
  -10.2709   -2.6580   -8.8103 H   0  0  0  0  0  0  0  0  0  0  0  0
    9.3774   -3.4291   11.5412 H   0  0  0  0  0  0  0  0  0  0  0  0
    8.6835   -3.7486   13.1349 H   0  0  0  0  0  0  0  0  0  0  0  0
   10.1357   -4.6062   12.6278 H   0  0  0  0  0  0  0  0  0  0  0  0
  1  2  2  0  0  0  0
  2  3  1  0  0  0  0
  2  9  1  0  0  0  0
  3 97  1  0  0  0  0
  4 13  1  0  0  0  0
  4  3  2  0  0  0  0
  5  4  1  0  0  0  0
  6  5  2  0  0  0  0
  6  1  1  0  0  0  0
  7  1  1  0  0  0  0
  7  8  1  0  0  0  0
  8 10  1  0  0  0  0
  8  9  2  0  0  0  0
  9 12  1  0  0  0  0
 10 11  2  0  0  0  0
 11 12  1  0  0  0  0
 11 19  1  0  0  0  0
 13 21  1  0  0  0  0
 14 13  1  0  0  0  0
 15  5  1  0  0  0  0
 15 14  2  0  0  0  0
 16 14  1  0  0  0  0
 16100  1  0  0  0  0
 17 16  2  0  0  0  0
 18 17  1  0  0  0  0
 18 15  1  0  0  0  0
 19 25  2  0  0  0  0
 20 30  2  0  0  0  0
 20 17  1  0  0  0  0
 21 72  2  0  0  0  0
 21 68  1  0  0  0  0
 22 13  1  0  0  0  0
 22 77  2  0  0  0  0
 23  7  1  0  0  0  0
 23 62  2  0  0  0  0
 24  7  1  0  0  0  0
 25101  1  0  0  0  0
 25 26  1  0  0  0  0
 26102  1  0  0  0  0
 27 26  2  0  0  0  0
 27 41  1  0  0  0  0
 28 27  1  0  0  0  0
 29 19  1  0  0  0  0
 29 28  1  0  0  0  0
 30103  1  0  0  0  0
 31104  1  0  0  0  0
 31 30  1  0  0  0  0
 32 31  2  0  0  0  0
 33 32  1  0  0  0  0
 33 34  1  0  0  0  0
 34 20  1  0  0  0  0
 35 28  2  0  0  0  0
 36 35  1  0  0  0  0
 37 36  1  0  0  0  0
 37 29  2  0  0  0  0
 38 33  2  0  0  0  0
 39 38  1  0  0  0  0
 39 40  1  0  0  0  0
 40 34  2  0  0  0  0
 41 42  2  0  0  0  0
 42 52  1  0  0  0  0
 42 49  1  0  0  0  0
 43 32  1  0  0  0  0
 43106  1  0  0  0  0
 44 43  1  6  0  0  0
 45 44  1  0  0  0  0
 46 47  1  0  0  0  0
 46 45  1  0  0  0  0
 47 48  1  0  0  0  0
 48 44  1  0  0  0  0
 49 50  1  0  0  0  0
 50 51  1  0  0  0  0
 50 53  1  0  0  0  0
 51 55  2  0  0  0  0
 52 51  1  0  0  0  0
 53 96  1  0  0  0  0
 53108  1  0  0  0  0
 54 49  2  0  0  0  0
 55 57  1  0  0  0  0
 56 55  1  0  0  0  0
 57 84  3  0  0  0  0
 58 23  1  0  0  0  0
 59 58  2  0  0  0  0
 59 60  1  0  0  0  0
 60 61  2  0  0  0  0
 61 62  1  0  0  0  0
 61111  1  0  0  0  0
 62112  1  0  0  0  0
 63113  1  0  0  0  0
 63 24  1  0  0  0  0
 64 63  2  0  0  0  0
 65 66  2  0  0  0  0
 65 64  1  0  0  0  0
 66 67  1  0  0  0  0
 67116  1  0  0  0  0
 67 24  2  0  0  0  0
 68 69  2  0  0  0  0
 69 70  1  0  0  0  0
 69118  1  0  0  0  0
 70 87  1  0  0  0  0
 71119  1  0  0  0  0
 71 70  2  0  0  0  0
 72 71  1  0  0  0  0
 73 22  1  0  0  0  0
 74 73  2  0  0  0  0
 74 75  1  0  0  0  0
 75 76  2  0  0  0  0
 76123  1  0  0  0  0
 76 77  1  0  0  0  0
 77124  1  0  0  0  0
 78 45  2  0  0  0  0
 79125  1  0  0  0  0
 79 46  1  0  0  0  0
 80 81  1  0  0  0  0
 80 47  2  0  0  0  0
 81 86  3  0  0  0  0
 82 80  1  0  0  0  0
 83 56  3  0  0  0  0
 85 82  3  0  0  0  0
 87127  1  0  0  0  0
 87 93  1  0  0  0  0
 87128  1  0  0  0  0
 88 75  1  0  0  0  0
 88129  1  0  0  0  0
 89131  1  0  0  0  0
 89132  1  0  0  0  0
 89 65  1  0  0  0  0
 90 60  1  0  0  0  0
 90133  1  0  0  0  0
 91 90  1  0  0  0  0
 91135  1  0  0  0  0
 92 89  1  0  0  0  0
 93142  1  0  0  0  0
 94144  1  0  0  0  0
 94 88  1  0  0  0  0
 95147  1  0  0  0  0
 95 79  1  0  0  0  0
 96152  1  0  0  0  0
 96151  1  0  0  0  0
 98  6  1  0  0  0  0
 99 10  1  0  0  0  0
105 41  1  0  0  0  0
107 53  1  0  0  0  0
109 58  1  0  0  0  0
110 59  1  0  0  0  0
114 64  1  0  0  0  0
115 66  1  0  0  0  0
117 68  1  0  0  0  0
120 72  1  0  0  0  0
121 73  1  0  0  0  0
122 74  1  0  0  0  0
126 79  1  0  0  0  0
130 88  1  0  0  0  0
134 90  1  0  0  0  0
136 91  1  0  0  0  0
137 91  1  0  0  0  0
138 92  1  0  0  0  0
139 92  1  0  0  0  0
140 92  1  0  0  0  0
141 93  1  0  0  0  0
143 93  1  0  0  0  0
145 94  1  0  0  0  0
146 94  1  0  0  0  0
148 95  1  0  0  0  0
149 95  1  0  0  0  0
150 96  1  0  0  0  0
M  RAD  2  43   2  44   2
M  END
