BTA11.sdf
  xtb     12202113523D
 energy: -262.631374264666 gnorm: 0.000173990129 xtb: 6.4.1 (unknown)
164180  0     0  0            999 V2000
    6.0646   -0.4456   -3.8930 C   0  0  0  0  0  0  0  0  0  0  0  0
    5.9491   -1.3983   -2.9044 C   0  0  0  0  0  0  0  0  0  0  0  0
    4.9461   -1.0815   -1.9892 C   0  0  0  0  0  0  0  0  0  0  0  0
    4.2890    0.1295   -2.2594 C   0  0  0  0  0  0  0  0  0  0  0  0
    4.9336    0.8841   -3.6678 S   0  0  0  0  0  0  0  0  0  0  0  0
    3.2377    0.3751   -1.3775 C   0  0  0  0  0  0  0  0  0  0  0  0
    2.2000    1.4416   -1.1476 C   0  0  0  0  0  0  0  0  0  0  0  0
    2.9494    2.6795   -0.6815 C   0  0  0  0  0  0  0  0  0  0  0  0
    3.6375    3.4388   -1.6207 C   0  0  0  0  0  0  0  0  0  0  0  0
    4.3749    4.5386   -1.2291 C   0  0  0  0  0  0  0  0  0  0  0  0
    4.4506    4.9065    0.1086 C   0  0  0  0  0  0  0  0  0  0  0  0
    5.2142    6.1293    0.5283 C   0  0  0  0  0  0  0  0  0  0  0  0
    4.2990    7.3554    0.5311 C   0  0  0  0  0  0  0  0  0  0  0  0
    3.7650    4.1418    1.0420 C   0  0  0  0  0  0  0  0  0  0  0  0
    3.0267    3.0372    0.6561 C   0  0  0  0  0  0  0  0  0  0  0  0
    1.3275    1.7352   -2.3493 C   0  0  0  0  0  0  0  0  0  0  0  0
    0.6565    2.9482   -2.4423 C   0  0  0  0  0  0  0  0  0  0  0  0
   -0.1679    3.2120   -3.5188 C   0  0  0  0  0  0  0  0  0  0  0  0
   -0.3462    2.2745   -4.5283 C   0  0  0  0  0  0  0  0  0  0  0  0
   -1.2728    2.5551   -5.6760 C   0  0  0  0  0  0  0  0  0  0  0  0
   -2.7142    2.2101   -5.2961 C   0  0  0  0  0  0  0  0  0  0  0  0
    0.3146    1.0587   -4.4227 C   0  0  0  0  0  0  0  0  0  0  0  0
    1.1386    0.7884   -3.3455 C   0  0  0  0  0  0  0  0  0  0  0  0
    1.3664    0.7933   -0.0550 C   0  0  0  0  0  0  0  0  0  0  0  0
    1.9509   -0.4226    0.3706 C   0  0  0  0  0  0  0  0  0  0  0  0
    3.1035   -0.6399   -0.4478 C   0  0  0  0  0  0  0  0  0  0  0  0
    4.2713   -1.9086   -0.6146 S   0  0  0  0  0  0  0  0  0  0  0  0
    1.3682   -1.2116    1.3580 C   0  0  0  0  0  0  0  0  0  0  0  0
    0.1692   -0.7828    1.8773 C   0  0  0  0  0  0  0  0  0  0  0  0
   -0.7096   -1.4810    2.9018 C   0  0  0  0  0  0  0  0  0  0  0  0
   -0.1587   -1.4166    4.3165 C   0  0  0  0  0  0  0  0  0  0  0  0
    0.9228   -0.6164    4.6529 C   0  0  0  0  0  0  0  0  0  0  0  0
    1.3711   -0.5617    5.9607 C   0  0  0  0  0  0  0  0  0  0  0  0
    0.7497   -1.2948    6.9618 C   0  0  0  0  0  0  0  0  0  0  0  0
    1.2155   -1.1995    8.3861 C   0  0  0  0  0  0  0  0  0  0  0  0
    0.5001   -0.0550    9.1068 C   0  0  0  0  0  0  0  0  0  0  0  0
   -0.3439   -2.0815    6.6213 C   0  0  0  0  0  0  0  0  0  0  0  0
   -0.7938   -2.1428    5.3172 C   0  0  0  0  0  0  0  0  0  0  0  0
   -0.9523   -2.9107    2.4640 C   0  0  0  0  0  0  0  0  0  0  0  0
   -0.0640   -3.9117    2.8372 C   0  0  0  0  0  0  0  0  0  0  0  0
   -0.2512   -5.2112    2.4075 C   0  0  0  0  0  0  0  0  0  0  0  0
   -1.3252   -5.5460    1.5929 C   0  0  0  0  0  0  0  0  0  0  0  0
   -1.5532   -6.9685    1.1698 C   0  0  0  0  0  0  0  0  0  0  0  0
   -2.4045   -7.7044    2.2065 C   0  0  0  0  0  0  0  0  0  0  0  0
   -2.2056   -4.5409    1.2172 C   0  0  0  0  0  0  0  0  0  0  0  0
   -2.0194   -3.2376    1.6398 C   0  0  0  0  0  0  0  0  0  0  0  0
   -1.9354   -0.6079    2.8602 C   0  0  0  0  0  0  0  0  0  0  0  0
   -1.7232    0.4880    2.0436 C   0  0  0  0  0  0  0  0  0  0  0  0
   -0.4421    0.4051    1.4129 C   0  0  0  0  0  0  0  0  0  0  0  0
    0.1625    1.2169    0.4572 C   0  0  0  0  0  0  0  0  0  0  0  0
   -3.0825    1.5557    1.9282 S   0  0  0  0  0  0  0  0  0  0  0  0
   -3.9809    0.4958    2.9762 C   0  0  0  0  0  0  0  0  0  0  0  0
   -3.2211   -0.6062    3.3993 C   0  0  0  0  0  0  0  0  0  0  0  0
   -4.1605   -1.6659    4.3810 S   0  0  0  0  0  0  0  0  0  0  0  0
   -5.5733   -0.6332    4.1887 C   0  0  0  0  0  0  0  0  0  0  0  0
   -5.3013    0.4802    3.4246 C   0  0  0  0  0  0  0  0  0  0  0  0
   -6.8330   -1.0186    4.7389 C   0  0  0  0  0  0  0  0  0  0  0  0
   -7.0073   -2.1858    5.4790 C   0  0  0  0  0  0  0  0  0  0  0  0
   -8.2406   -2.6038    5.9583 C   0  0  0  0  0  0  0  0  0  0  0  0
   -9.4247   -1.8968    5.7414 C   0  0  0  0  0  0  0  0  0  0  0  0
   -9.2737   -0.6957    5.0107 C   0  0  0  0  0  0  0  0  0  0  0  0
   -8.0069   -0.2578    4.5218 C   0  0  0  0  0  0  0  0  0  0  0  0
  -10.1759    0.2122    4.6305 N   0  0  0  0  0  0  0  0  0  0  0  0
   -9.4943    1.1094    3.9765 N   0  0  0  0  0  0  0  0  0  0  0  0
   -8.2130    0.8985    3.8716 N   0  0  0  0  0  0  0  0  0  0  0  0
    6.9194   -0.4871   -5.0355 C   0  0  0  0  0  0  0  0  0  0  0  0
    6.8950    0.4872   -6.0307 C   0  0  0  0  0  0  0  0  0  0  0  0
    7.6626    0.4198   -7.1861 C   0  0  0  0  0  0  0  0  0  0  0  0
    8.5350   -0.6339   -7.4520 C   0  0  0  0  0  0  0  0  0  0  0  0
    8.6095   -1.6225   -6.4390 C   0  0  0  0  0  0  0  0  0  0  0  0
    7.8188   -1.5582   -5.2550 C   0  0  0  0  0  0  0  0  0  0  0  0
    9.3471   -2.7377   -6.3671 N   0  0  0  0  0  0  0  0  0  0  0  0
    9.0113   -3.2740   -5.2276 N   0  0  0  0  0  0  0  0  0  0  0  0
    8.1171   -2.6409   -4.5206 N   0  0  0  0  0  0  0  0  0  0  0  0
    9.3131   -0.8076   -8.6320 C   0  0  0  0  0  0  0  0  0  0  0  0
    9.3570   -0.0664   -9.7653 C   0  0  0  0  0  0  0  0  0  0  0  0
   10.2110   -0.4580  -10.8892 C   0  0  0  0  0  0  0  0  0  0  0  0
   10.0647    0.4332  -11.9417 N   0  0  0  0  0  0  0  0  0  0  0  0
    9.2050    1.4650  -11.7670 C   0  0  0  0  0  0  0  0  0  0  0  0
    8.4749    1.3906  -10.1668 S   0  0  0  0  0  0  0  0  0  0  0  0
    8.8803    2.6332  -12.8586 S   0  0  0  0  0  0  0  0  0  0  0  0
   10.7815    0.2266  -13.1848 C   0  0  0  0  0  0  0  0  0  0  0  0
    9.9138   -0.4965  -14.2072 C   0  0  0  0  0  0  0  0  0  0  0  0
   10.9514   -1.4150  -10.9271 O   0  0  0  0  0  0  0  0  0  0  0  0
  -10.6634   -2.4060    6.2222 C   0  0  0  0  0  0  0  0  0  0  0  0
  -11.9250   -1.9197    6.1243 C   0  0  0  0  0  0  0  0  0  0  0  0
  -13.0358   -2.6886    6.7032 C   0  0  0  0  0  0  0  0  0  0  0  0
  -14.2365   -2.0347    6.5042 N   0  0  0  0  0  0  0  0  0  0  0  0
  -14.1811   -0.8529    5.8426 C   0  0  0  0  0  0  0  0  0  0  0  0
  -12.5267   -0.4557    5.3897 S   0  0  0  0  0  0  0  0  0  0  0  0
  -15.4618    0.1032    5.5049 S   0  0  0  0  0  0  0  0  0  0  0  0
  -15.4839   -2.6195    6.9554 C   0  0  0  0  0  0  0  0  0  0  0  0
  -16.1790   -3.3704    5.8266 C   0  0  0  0  0  0  0  0  0  0  0  0
  -12.9392   -3.7482    7.2833 O   0  0  0  0  0  0  0  0  0  0  0  0
  -10.1291    2.2633    3.4045 C   0  0  0  0  0  0  0  0  0  0  0  0
  -10.8655    3.0536    4.4785 C   0  0  0  0  0  0  0  0  0  0  0  0
    9.5625   -4.5267   -4.7964 C   0  0  0  0  0  0  0  0  0  0  0  0
    8.6990   -5.6843   -5.2890 C   0  0  0  0  0  0  0  0  0  0  0  0
    6.5603   -2.2807   -2.8791 H   0  0  0  0  0  0  0  0  0  0  0  0
    3.5895    3.1665   -2.6653 H   0  0  0  0  0  0  0  0  0  0  0  0
    4.9039    5.1171   -1.9729 H   0  0  0  0  0  0  0  0  0  0  0  0
    5.6245    5.9845    1.5299 H   0  0  0  0  0  0  0  0  0  0  0  0
    6.0442    6.3015   -0.1597 H   0  0  0  0  0  0  0  0  0  0  0  0
    3.8879    7.5221   -0.4621 H   0  0  0  0  0  0  0  0  0  0  0  0
    4.8512    8.2425    0.8323 H   0  0  0  0  0  0  0  0  0  0  0  0
    3.4725    7.2088    1.2230 H   0  0  0  0  0  0  0  0  0  0  0  0
    3.8121    4.4092    2.0882 H   0  0  0  0  0  0  0  0  0  0  0  0
    2.5079    2.4543    1.4030 H   0  0  0  0  0  0  0  0  0  0  0  0
    0.7910    3.6953   -1.6732 H   0  0  0  0  0  0  0  0  0  0  0  0
   -0.6773    4.1634   -3.5792 H   0  0  0  0  0  0  0  0  0  0  0  0
   -1.2161    3.6116   -5.9467 H   0  0  0  0  0  0  0  0  0  0  0  0
   -0.9772    1.9635   -6.5445 H   0  0  0  0  0  0  0  0  0  0  0  0
   -3.0309    2.7985   -4.4379 H   0  0  0  0  0  0  0  0  0  0  0  0
   -2.7945    1.1569   -5.0358 H   0  0  0  0  0  0  0  0  0  0  0  0
   -3.3864    2.4157   -6.1259 H   0  0  0  0  0  0  0  0  0  0  0  0
    0.1863    0.3127   -5.1941 H   0  0  0  0  0  0  0  0  0  0  0  0
    1.6383   -0.1676   -3.2832 H   0  0  0  0  0  0  0  0  0  0  0  0
    1.8298   -2.1343    1.6747 H   0  0  0  0  0  0  0  0  0  0  0  0
    1.4240   -0.0360    3.8922 H   0  0  0  0  0  0  0  0  0  0  0  0
    2.2210    0.0601    6.2045 H   0  0  0  0  0  0  0  0  0  0  0  0
    1.0095   -2.1369    8.9066 H   0  0  0  0  0  0  0  0  0  0  0  0
    2.2928   -1.0233    8.4123 H   0  0  0  0  0  0  0  0  0  0  0  0
   -0.5749   -0.2207    9.1051 H   0  0  0  0  0  0  0  0  0  0  0  0
    0.7006    0.8902    8.6071 H   0  0  0  0  0  0  0  0  0  0  0  0
    0.8394    0.0176   10.1375 H   0  0  0  0  0  0  0  0  0  0  0  0
   -0.8469   -2.6560    7.3859 H   0  0  0  0  0  0  0  0  0  0  0  0
   -1.6410   -2.7655    5.0680 H   0  0  0  0  0  0  0  0  0  0  0  0
    0.7739   -3.6737    3.4767 H   0  0  0  0  0  0  0  0  0  0  0  0
    0.4492   -5.9776    2.7081 H   0  0  0  0  0  0  0  0  0  0  0  0
   -2.0627   -6.9908    0.2044 H   0  0  0  0  0  0  0  0  0  0  0  0
   -0.5948   -7.4807    1.0626 H   0  0  0  0  0  0  0  0  0  0  0  0
   -1.9055   -7.7059    3.1731 H   0  0  0  0  0  0  0  0  0  0  0  0
   -3.3686   -7.2138    2.3207 H   0  0  0  0  0  0  0  0  0  0  0  0
   -2.5722   -8.7343    1.9000 H   0  0  0  0  0  0  0  0  0  0  0  0
   -3.0465   -4.7784    0.5811 H   0  0  0  0  0  0  0  0  0  0  0  0
   -2.7118   -2.4712    1.3229 H   0  0  0  0  0  0  0  0  0  0  0  0
   -0.3146    2.1231    0.1168 H   0  0  0  0  0  0  0  0  0  0  0  0
   -6.0444    1.2218    3.1999 H   0  0  0  0  0  0  0  0  0  0  0  0
   -6.1397   -2.7990    5.6764 H   0  0  0  0  0  0  0  0  0  0  0  0
   -8.2905   -3.5275    6.5160 H   0  0  0  0  0  0  0  0  0  0  0  0
    6.2306    1.3298   -5.9024 H   0  0  0  0  0  0  0  0  0  0  0  0
    7.5662    1.2181   -7.9049 H   0  0  0  0  0  0  0  0  0  0  0  0
    9.9550   -1.6819   -8.6353 H   0  0  0  0  0  0  0  0  0  0  0  0
   11.6602   -0.3736  -12.9370 H   0  0  0  0  0  0  0  0  0  0  0  0
   11.0878    1.2035  -13.5665 H   0  0  0  0  0  0  0  0  0  0  0  0
   10.4828   -0.6568  -15.1181 H   0  0  0  0  0  0  0  0  0  0  0  0
    9.5970   -1.4610  -13.8171 H   0  0  0  0  0  0  0  0  0  0  0  0
    9.0347    0.0981  -14.4448 H   0  0  0  0  0  0  0  0  0  0  0  0
  -10.6037   -3.3523    6.7516 H   0  0  0  0  0  0  0  0  0  0  0  0
  -16.1212   -1.8129    7.3255 H   0  0  0  0  0  0  0  0  0  0  0  0
  -15.2292   -3.3024    7.7692 H   0  0  0  0  0  0  0  0  0  0  0  0
  -15.5370   -4.1635    5.4502 H   0  0  0  0  0  0  0  0  0  0  0  0
  -17.1004   -3.8109    6.1957 H   0  0  0  0  0  0  0  0  0  0  0  0
  -16.4188   -2.6898    5.0131 H   0  0  0  0  0  0  0  0  0  0  0  0
   -9.3423    2.8549    2.9336 H   0  0  0  0  0  0  0  0  0  0  0  0
  -10.8384    1.9243    2.6436 H   0  0  0  0  0  0  0  0  0  0  0  0
  -10.1705    3.4131    5.2334 H   0  0  0  0  0  0  0  0  0  0  0  0
  -11.6078    2.4190    4.9556 H   0  0  0  0  0  0  0  0  0  0  0  0
  -11.3667    3.9057    4.0293 H   0  0  0  0  0  0  0  0  0  0  0  0
   10.5705   -4.5995   -5.2084 H   0  0  0  0  0  0  0  0  0  0  0  0
    9.5998   -4.5137   -3.7054 H   0  0  0  0  0  0  0  0  0  0  0  0
    9.1262   -6.6279   -4.9625 H   0  0  0  0  0  0  0  0  0  0  0  0
    8.6499   -5.6785   -6.3751 H   0  0  0  0  0  0  0  0  0  0  0  0
    7.6912   -5.5980   -4.8901 H   0  0  0  0  0  0  0  0  0  0  0  0
  1  2  2  0  0  0  0
  2  3  1  0  0  0  0
  3  4  2  0  0  0  0
  4  5  1  0  0  0  0
  1  5  1  0  0  0  0
  4  6  1  0  0  0  0
  6  7  1  0  0  0  0
  7  8  1  0  0  0  0
  8  9  2  0  0  0  0
  9 10  1  0  0  0  0
 10 11  2  0  0  0  0
 11 12  1  0  0  0  0
 12 13  1  0  0  0  0
 11 14  1  0  0  0  0
 14 15  2  0  0  0  0
  8 15  1  0  0  0  0
  7 16  1  0  0  0  0
 16 17  2  0  0  0  0
 17 18  1  0  0  0  0
 18 19  2  0  0  0  0
 19 20  1  0  0  0  0
 20 21  1  0  0  0  0
 19 22  1  0  0  0  0
 22 23  2  0  0  0  0
 16 23  1  0  0  0  0
  7 24  1  0  0  0  0
 24 25  2  0  0  0  0
 25 26  1  0  0  0  0
  6 26  2  0  0  0  0
 26 27  1  0  0  0  0
  3 27  1  0  0  0  0
 25 28  1  0  0  0  0
 28 29  2  0  0  0  0
 29 30  1  0  0  0  0
 30 31  1  0  0  0  0
 31 32  2  0  0  0  0
 32 33  1  0  0  0  0
 33 34  2  0  0  0  0
 34 35  1  0  0  0  0
 35 36  1  0  0  0  0
 34 37  1  0  0  0  0
 37 38  2  0  0  0  0
 31 38  1  0  0  0  0
 30 39  1  0  0  0  0
 39 40  2  0  0  0  0
 40 41  1  0  0  0  0
 41 42  2  0  0  0  0
 42 43  1  0  0  0  0
 43 44  1  0  0  0  0
 42 45  1  0  0  0  0
 45 46  2  0  0  0  0
 39 46  1  0  0  0  0
 30 47  1  0  0  0  0
 47 48  2  0  0  0  0
 48 49  1  0  0  0  0
 29 49  1  0  0  0  0
 49 50  2  0  0  0  0
 24 50  1  0  0  0  0
 48 51  1  0  0  0  0
 51 52  1  0  0  0  0
 52 53  2  0  0  0  0
 47 53  1  0  0  0  0
 53 54  1  0  0  0  0
 54 55  1  0  0  0  0
 55 56  2  0  0  0  0
 52 56  1  0  0  0  0
 57 58  2  0  0  0  0
 58 59  1  0  0  0  0
 59 60  2  0  0  0  0
 60 61  1  0  0  0  0
 61 62  1  0  0  0  0
 62 57  1  0  0  0  0
 61 63  2  0  0  0  0
 63 64  1  0  0  0  0
 64 65  1  0  0  0  0
 65 62  2  0  0  0  0
 66 67  2  0  0  0  0
 67 68  1  0  0  0  0
 68 69  2  0  0  0  0
 69 70  1  0  0  0  0
 70 71  1  0  0  0  0
 71 66  1  0  0  0  0
 70 72  2  0  0  0  0
 72 73  1  0  0  0  0
 73 74  1  0  0  0  0
 74 71  2  0  0  0  0
 57 55  1  0  0  0  0
  1 66  1  0  0  0  0
 75 76  2  0  0  0  0
 76 77  1  0  0  0  0
 77 78  1  0  0  0  0
 78 79  1  0  0  0  0
 79 80  1  0  0  0  0
 80 76  1  0  0  0  0
 79 81  2  0  0  0  0
 78 82  1  0  0  0  0
 82 83  1  0  0  0  0
 77 84  2  0  0  0  0
 85 86  2  0  0  0  0
 86 87  1  0  0  0  0
 87 88  1  0  0  0  0
 88 89  1  0  0  0  0
 89 90  1  0  0  0  0
 90 86  1  0  0  0  0
 89 91  2  0  0  0  0
 88 92  1  0  0  0  0
 92 93  1  0  0  0  0
 87 94  2  0  0  0  0
 69 75  1  0  0  0  0
 85 60  1  0  0  0  0
 64 95  1  0  0  0  0
 95 96  1  0  0  0  0
 73 97  1  0  0  0  0
 97 98  1  0  0  0  0
  2 99  1  0  0  0  0
  9100  1  0  0  0  0
 10101  1  0  0  0  0
 12102  1  0  0  0  0
 12103  1  0  0  0  0
 13104  1  0  0  0  0
 13105  1  0  0  0  0
 13106  1  0  0  0  0
 14107  1  0  0  0  0
 15108  1  0  0  0  0
 17109  1  0  0  0  0
 18110  1  0  0  0  0
 20111  1  0  0  0  0
 20112  1  0  0  0  0
 21113  1  0  0  0  0
 21114  1  0  0  0  0
 21115  1  0  0  0  0
 22116  1  0  0  0  0
 23117  1  0  0  0  0
 28118  1  0  0  0  0
 32119  1  0  0  0  0
 33120  1  0  0  0  0
 35121  1  0  0  0  0
 35122  1  0  0  0  0
 36123  1  0  0  0  0
 36124  1  0  0  0  0
 36125  1  0  0  0  0
 37126  1  0  0  0  0
 38127  1  0  0  0  0
 40128  1  0  0  0  0
 41129  1  0  0  0  0
 43130  1  0  0  0  0
 43131  1  0  0  0  0
 44132  1  0  0  0  0
 44133  1  0  0  0  0
 44134  1  0  0  0  0
 45135  1  0  0  0  0
 46136  1  0  0  0  0
 50137  1  0  0  0  0
 56138  1  0  0  0  0
 58139  1  0  0  0  0
 59140  1  0  0  0  0
 67141  1  0  0  0  0
 68142  1  0  0  0  0
 75143  1  0  0  0  0
 82144  1  0  0  0  0
 82145  1  0  0  0  0
 83146  1  0  0  0  0
 83147  1  0  0  0  0
 83148  1  0  0  0  0
 85149  1  0  0  0  0
 92150  1  0  0  0  0
 92151  1  0  0  0  0
 93152  1  0  0  0  0
 93153  1  0  0  0  0
 93154  1  0  0  0  0
 95155  1  0  0  0  0
 95156  1  0  0  0  0
 96157  1  0  0  0  0
 96158  1  0  0  0  0
 96159  1  0  0  0  0
 97160  1  0  0  0  0
 97161  1  0  0  0  0
 98162  1  0  0  0  0
 98163  1  0  0  0  0
 98164  1  0  0  0  0
M  END
