SCF done       -276.453410142906          0.000249899988
 OpenBabel12282109493D

174188  0  0  0  0  0  0  0  0999 V2000
    2.5023   -1.9309   -0.7739 C   0  0  0  0  0  0  0  0  0  0  0  0
    2.7909   -1.2822    0.4497 C   0  0  0  0  0  0  0  0  0  0  0  0
    1.9341   -0.3294    0.9947 C   0  0  0  0  0  0  0  0  0  0  0  0
    0.7699   -0.0655    0.3126 C   0  0  0  0  0  0  0  0  0  0  0  0
    0.4694   -0.7312   -0.8990 C   0  0  0  0  0  0  0  0  0  0  0  0
    1.3380   -1.6666   -1.4561 C   0  0  0  0  0  0  0  0  0  0  0  0
    3.6018   -2.9183   -1.1357 C   0  0  0  0  0  0  0  0  0  0  0  0
    4.5029   -2.7955    0.0679 C   0  0  0  0  0  0  0  0  0  0  0  0
    4.0209   -1.8241    0.9341 C   0  0  0  0  0  0  0  0  0  0  0  0
    5.6802   -3.3838    0.5094 C   0  0  0  0  0  0  0  0  0  0  0  0
    6.0918   -2.8720    1.7306 C   0  0  0  0  0  0  0  0  0  0  0  0
    5.0128   -1.6231    2.3178 S   0  0  0  0  0  0  0  0  0  0  0  0
   -0.3329    0.9150    0.6809 C   0  0  0  0  0  0  0  0  0  0  0  0
   -1.3060    0.6865   -0.4481 C   0  0  0  0  0  0  0  0  0  0  0  0
   -0.8102   -0.2625   -1.3307 C   0  0  0  0  0  0  0  0  0  0  0  0
   -2.5690    1.1475   -0.7943 C   0  0  0  0  0  0  0  0  0  0  0  0
   -3.0378    0.5554   -1.9560 C   0  0  0  0  0  0  0  0  0  0  0  0
   -1.8928   -0.5908   -2.6204 S   0  0  0  0  0  0  0  0  0  0  0  0
    7.2258   -3.2851    2.4863 C   0  0  0  0  0  0  0  0  0  0  0  0
   -4.2992    0.7889   -2.5777 C   0  0  0  0  0  0  0  0  0  0  0  0
   -1.0383    0.6040    1.9856 C   0  0  0  0  0  0  0  0  0  0  0  0
    0.2732    2.3062    0.6882 C   0  0  0  0  0  0  0  0  0  0  0  0
    2.9836   -4.2902   -1.3113 C   0  0  0  0  0  0  0  0  0  0  0  0
    4.4123   -2.5066   -2.3510 C   0  0  0  0  0  0  0  0  0  0  0  0
    7.5357   -2.7421    3.7401 C   0  0  0  0  0  0  0  0  0  0  0  0
    8.6642   -3.1335    4.4879 C   0  0  0  0  0  0  0  0  0  0  0  0
    9.5233   -4.1646    4.0697 C   0  0  0  0  0  0  0  0  0  0  0  0
    9.1972   -4.7484    2.8254 C   0  0  0  0  0  0  0  0  0  0  0  0
    8.0974   -4.3062    2.0363 C   0  0  0  0  0  0  0  0  0  0  0  0
   -4.6727    0.1705   -3.7760 C   0  0  0  0  0  0  0  0  0  0  0  0
   -5.9452    0.3476   -4.3583 C   0  0  0  0  0  0  0  0  0  0  0  0
   -6.9190    1.1714   -3.7876 C   0  0  0  0  0  0  0  0  0  0  0  0
   -6.5293    1.8705   -2.6265 C   0  0  0  0  0  0  0  0  0  0  0  0
   -5.2565    1.6710   -2.0213 C   0  0  0  0  0  0  0  0  0  0  0  0
    9.7916   -5.7372    2.1539 N   0  0  0  0  0  0  0  0  0  0  0  0
    9.0984   -5.8612    1.0570 N   0  0  0  0  0  0  0  0  0  0  0  0
    8.0862   -5.0516    0.9207 N   0  0  0  0  0  0  0  0  0  0  0  0
   -7.1736    2.8011   -1.9111 N   0  0  0  0  0  0  0  0  0  0  0  0
   -6.3457    3.0953   -0.9506 N   0  0  0  0  0  0  0  0  0  0  0  0
   -5.1990    2.4746   -0.9496 N   0  0  0  0  0  0  0  0  0  0  0  0
   10.6345   -4.5292    4.8776 C   0  0  0  0  0  0  0  0  0  0  0  0
   11.6126   -5.4484    4.6887 C   0  0  0  0  0  0  0  0  0  0  0  0
   -8.2133    1.3087   -4.3894 C   0  0  0  0  0  0  0  0  0  0  0  0
   -9.3809    1.4791   -3.7281 C   0  0  0  0  0  0  0  0  0  0  0  0
   -6.6634    4.0826    0.0406 C   0  0  0  0  0  0  0  0  0  0  0  0
    9.4396   -6.8352    0.0590 C   0  0  0  0  0  0  0  0  0  0  0  0
   -9.6470    1.2918   -2.3007 C   0  0  0  0  0  0  0  0  0  0  0  0
  -10.9762    1.5887   -2.0258 N   0  0  0  0  0  0  0  0  0  0  0  0
  -11.7797    1.9145   -3.0674 C   0  0  0  0  0  0  0  0  0  0  0  0
  -10.8743    1.8622   -4.5711 S   0  0  0  0  0  0  0  0  0  0  0  0
   12.6594   -5.6004    5.7066 C   0  0  0  0  0  0  0  0  0  0  0  0
   13.5628   -6.5791    5.3341 N   0  0  0  0  0  0  0  0  0  0  0  0
   13.3346   -7.1963    4.1497 C   0  0  0  0  0  0  0  0  0  0  0  0
   11.8889   -6.5625    3.3724 S   0  0  0  0  0  0  0  0  0  0  0  0
   14.6695   -6.9339    6.2001 C   0  0  0  0  0  0  0  0  0  0  0  0
   12.7522   -4.9647    6.7344 O   0  0  0  0  0  0  0  0  0  0  0  0
   14.2689   -8.3685    3.4984 S   0  0  0  0  0  0  0  0  0  0  0  0
    2.4552   -4.6620   -2.5416 C   0  0  0  0  0  0  0  0  0  0  0  0
    1.8415   -5.8897   -2.7002 C   0  0  0  0  0  0  0  0  0  0  0  0
    1.7345   -6.7769   -1.6370 C   0  0  0  0  0  0  0  0  0  0  0  0
    2.2601   -6.3994   -0.4090 C   0  0  0  0  0  0  0  0  0  0  0  0
    2.8713   -5.1700   -0.2442 C   0  0  0  0  0  0  0  0  0  0  0  0
    4.3353   -1.2311   -2.8903 C   0  0  0  0  0  0  0  0  0  0  0  0
    5.1262   -0.8792   -3.9697 C   0  0  0  0  0  0  0  0  0  0  0  0
    6.0150   -1.7846   -4.5316 C   0  0  0  0  0  0  0  0  0  0  0  0
    6.0983   -3.0563   -3.9782 C   0  0  0  0  0  0  0  0  0  0  0  0
    5.3102   -3.4135   -2.9019 C   0  0  0  0  0  0  0  0  0  0  0  0
   -0.9064   -0.6215    2.6214 C   0  0  0  0  0  0  0  0  0  0  0  0
   -1.5991   -0.8811    3.7907 C   0  0  0  0  0  0  0  0  0  0  0  0
   -2.4478    0.0662    4.3454 C   0  0  0  0  0  0  0  0  0  0  0  0
   -2.5885    1.2862    3.6958 C   0  0  0  0  0  0  0  0  0  0  0  0
   -1.8972    1.5518    2.5303 C   0  0  0  0  0  0  0  0  0  0  0  0
    0.2866    3.0909   -0.4562 C   0  0  0  0  0  0  0  0  0  0  0  0
    0.8893    4.3355   -0.4476 C   0  0  0  0  0  0  0  0  0  0  0  0
    1.5031    4.8242    0.6974 C   0  0  0  0  0  0  0  0  0  0  0  0
    1.4935    4.0325    1.8385 C   0  0  0  0  0  0  0  0  0  0  0  0
    0.8906    2.7893    1.8355 C   0  0  0  0  0  0  0  0  0  0  0  0
   -8.8879    0.8787   -1.4529 O   0  0  0  0  0  0  0  0  0  0  0  0
  -11.4831    1.4772   -0.6723 C   0  0  0  0  0  0  0  0  0  0  0  0
  -13.3619    2.3020   -2.9619 S   0  0  0  0  0  0  0  0  0  0  0  0
   -3.1581   -0.2004    5.6415 C   0  0  0  0  0  0  0  0  0  0  0  0
    2.1180    6.1942    0.7169 C   0  0  0  0  0  0  0  0  0  0  0  0
    6.9036   -1.3830   -5.6738 C   0  0  0  0  0  0  0  0  0  0  0  0
    1.1115   -8.1301   -1.8261 C   0  0  0  0  0  0  0  0  0  0  0  0
    2.1625   -9.1427   -2.2856 C   0  0  0  0  0  0  0  0  0  0  0  0
    8.2156   -0.7960   -5.1491 C   0  0  0  0  0  0  0  0  0  0  0  0
   -6.0314    5.4240   -0.3188 C   0  0  0  0  0  0  0  0  0  0  0  0
    1.0837    7.2391    1.1406 C   0  0  0  0  0  0  0  0  0  0  0  0
   -2.3023    0.2597    6.8235 C   0  0  0  0  0  0  0  0  0  0  0  0
   10.8558   -6.6017   -0.4517 C   0  0  0  0  0  0  0  0  0  0  0  0
   14.3235   -8.1369    7.0687 C   0  0  0  0  0  0  0  0  0  0  0  0
  -12.1425    0.1239   -0.4371 C   0  0  0  0  0  0  0  0  0  0  0  0
    8.9285   -2.5341    5.6967 O   0  0  0  0  0  0  0  0  0  0  0  0
    9.2517   -1.1537    5.6427 C   0  0  0  0  0  0  0  0  0  0  0  0
    6.6957   -1.7581    4.2229 O   0  0  0  0  0  0  0  0  0  0  0  0
    5.9829   -2.0909    5.4035 C   0  0  0  0  0  0  0  0  0  0  0  0
   -6.2697   -0.3254   -5.5172 O   0  0  0  0  0  0  0  0  0  0  0  0
   -6.4326   -1.7258   -5.3665 C   0  0  0  0  0  0  0  0  0  0  0  0
   -3.7614   -0.6876   -4.3568 O   0  0  0  0  0  0  0  0  0  0  0  0
   -3.2793   -0.2998   -5.6326 C   0  0  0  0  0  0  0  0  0  0  0  0
    2.1780    0.1628    1.9236 H   0  0  0  0  0  0  0  0  0  0  0  0
    1.0922   -2.1626   -2.3824 H   0  0  0  0  0  0  0  0  0  0  0  0
    6.2300   -4.1552    0.0043 H   0  0  0  0  0  0  0  0  0  0  0  0
   -3.1498    1.8701   -0.2532 H   0  0  0  0  0  0  0  0  0  0  0  0
   10.7214   -3.9782    5.8087 H   0  0  0  0  0  0  0  0  0  0  0  0
   -8.2399    1.2619   -5.4710 H   0  0  0  0  0  0  0  0  0  0  0  0
   -7.7508    4.1630    0.0764 H   0  0  0  0  0  0  0  0  0  0  0  0
   -6.2814    3.7275    1.0000 H   0  0  0  0  0  0  0  0  0  0  0  0
    9.3689   -7.8294    0.5097 H   0  0  0  0  0  0  0  0  0  0  0  0
    8.7011   -6.7399   -0.7388 H   0  0  0  0  0  0  0  0  0  0  0  0
   15.5342   -7.1548    5.5698 H   0  0  0  0  0  0  0  0  0  0  0  0
   14.8697   -6.0584    6.8222 H   0  0  0  0  0  0  0  0  0  0  0  0
    2.5350   -3.9898   -3.3839 H   0  0  0  0  0  0  0  0  0  0  0  0
    1.4362   -6.1625   -3.6645 H   0  0  0  0  0  0  0  0  0  0  0  0
    2.1863   -7.0741    0.4323 H   0  0  0  0  0  0  0  0  0  0  0  0
    3.2666   -4.8955    0.7229 H   0  0  0  0  0  0  0  0  0  0  0  0
    3.6539   -0.5061   -2.4697 H   0  0  0  0  0  0  0  0  0  0  0  0
    5.0485    0.1172   -4.3817 H   0  0  0  0  0  0  0  0  0  0  0  0
    6.7876   -3.7755   -4.3977 H   0  0  0  0  0  0  0  0  0  0  0  0
    5.3828   -4.4088   -2.4878 H   0  0  0  0  0  0  0  0  0  0  0  0
   -0.2593   -1.3796    2.2051 H   0  0  0  0  0  0  0  0  0  0  0  0
   -1.4799   -1.8394    4.2764 H   0  0  0  0  0  0  0  0  0  0  0  0
   -3.2500    2.0356    4.1074 H   0  0  0  0  0  0  0  0  0  0  0  0
   -2.0157    2.5070    2.0394 H   0  0  0  0  0  0  0  0  0  0  0  0
   -0.1790    2.7298   -1.3616 H   0  0  0  0  0  0  0  0  0  0  0  0
    0.8864    4.9343   -1.3477 H   0  0  0  0  0  0  0  0  0  0  0  0
    1.9679    4.3927    2.7406 H   0  0  0  0  0  0  0  0  0  0  0  0
    0.8895    2.1924    2.7361 H   0  0  0  0  0  0  0  0  0  0  0  0
  -10.6231    1.6006   -0.0099 H   0  0  0  0  0  0  0  0  0  0  0  0
  -12.2023    2.2843   -0.5135 H   0  0  0  0  0  0  0  0  0  0  0  0
   -4.1110    0.3324    5.6583 H   0  0  0  0  0  0  0  0  0  0  0  0
   -3.3622   -1.2685    5.7394 H   0  0  0  0  0  0  0  0  0  0  0  0
    2.9561    6.2138    1.4164 H   0  0  0  0  0  0  0  0  0  0  0  0
    2.4961    6.4447   -0.2764 H   0  0  0  0  0  0  0  0  0  0  0  0
    7.1225   -2.2525   -6.2971 H   0  0  0  0  0  0  0  0  0  0  0  0
    6.3986   -0.6378   -6.2919 H   0  0  0  0  0  0  0  0  0  0  0  0
    0.6710   -8.4700   -0.8866 H   0  0  0  0  0  0  0  0  0  0  0  0
    0.3180   -8.0711   -2.5738 H   0  0  0  0  0  0  0  0  0  0  0  0
    2.9566   -9.2244   -1.5466 H   0  0  0  0  0  0  0  0  0  0  0  0
    1.7132  -10.1235   -2.4229 H   0  0  0  0  0  0  0  0  0  0  0  0
    2.6042   -8.8274   -3.2284 H   0  0  0  0  0  0  0  0  0  0  0  0
    8.7400   -1.5281   -4.5390 H   0  0  0  0  0  0  0  0  0  0  0  0
    8.8607   -0.5050   -5.9749 H   0  0  0  0  0  0  0  0  0  0  0  0
    8.0185    0.0804   -4.5357 H   0  0  0  0  0  0  0  0  0  0  0  0
   -6.4127    5.7763   -1.2741 H   0  0  0  0  0  0  0  0  0  0  0  0
   -6.2665    6.1598    0.4448 H   0  0  0  0  0  0  0  0  0  0  0  0
   -4.9512    5.3207   -0.3874 H   0  0  0  0  0  0  0  0  0  0  0  0
    0.7039    7.0134    2.1346 H   0  0  0  0  0  0  0  0  0  0  0  0
    1.5280    8.2317    1.1551 H   0  0  0  0  0  0  0  0  0  0  0  0
    0.2454    7.2435    0.4474 H   0  0  0  0  0  0  0  0  0  0  0  0
   -2.0979    1.3256    6.7499 H   0  0  0  0  0  0  0  0  0  0  0  0
   -2.8149    0.0681    7.7634 H   0  0  0  0  0  0  0  0  0  0  0  0
   -1.3526   -0.2705    6.8311 H   0  0  0  0  0  0  0  0  0  0  0  0
   11.5576   -6.6601    0.3760 H   0  0  0  0  0  0  0  0  0  0  0  0
   11.1122   -7.3604   -1.1850 H   0  0  0  0  0  0  0  0  0  0  0  0
   10.9380   -5.6220   -0.9163 H   0  0  0  0  0  0  0  0  0  0  0  0
   14.1100   -9.0021    6.4455 H   0  0  0  0  0  0  0  0  0  0  0  0
   15.1627   -8.3720    7.7167 H   0  0  0  0  0  0  0  0  0  0  0  0
   13.4545   -7.9182    7.6851 H   0  0  0  0  0  0  0  0  0  0  0  0
  -11.4264   -0.6769   -0.6062 H   0  0  0  0  0  0  0  0  0  0  0  0
  -12.4985    0.0655    0.5873 H   0  0  0  0  0  0  0  0  0  0  0  0
  -12.9881   -0.0053   -1.1083 H   0  0  0  0  0  0  0  0  0  0  0  0
    8.4659   -0.5647    5.1648 H   0  0  0  0  0  0  0  0  0  0  0  0
    9.3718   -0.8397    6.6778 H   0  0  0  0  0  0  0  0  0  0  0  0
   10.1930   -1.0040    5.1040 H   0  0  0  0  0  0  0  0  0  0  0  0
    5.3300   -2.9520    5.2301 H   0  0  0  0  0  0  0  0  0  0  0  0
    6.6564   -2.3110    6.2340 H   0  0  0  0  0  0  0  0  0  0  0  0
    5.3772   -1.2176    5.6366 H   0  0  0  0  0  0  0  0  0  0  0  0
   -5.5313   -2.1995   -4.9701 H   0  0  0  0  0  0  0  0  0  0  0  0
   -7.2759   -1.9429   -4.7026 H   0  0  0  0  0  0  0  0  0  0  0  0
   -6.6435   -2.1092   -6.3630 H   0  0  0  0  0  0  0  0  0  0  0  0
   -4.0898   -0.2041   -6.3577 H   0  0  0  0  0  0  0  0  0  0  0  0
   -2.7372    0.6490   -5.5682 H   0  0  0  0  0  0  0  0  0  0  0  0
   -2.5956   -1.0883   -5.9405 H   0  0  0  0  0  0  0  0  0  0  0  0
  1  2  2  0  0  0  0
  2  9  1  0  0  0  0
  2  3  1  0  0  0  0
  3101  1  0  0  0  0
  4 13  1  0  0  0  0
  4  3  2  0  0  0  0
  5  4  1  0  0  0  0
  6  5  2  0  0  0  0
  6  1  1  0  0  0  0
  7  1  1  0  0  0  0
  7  8  1  0  0  0  0
  8 10  1  0  0  0  0
  8  9  2  0  0  0  0
  9 12  1  0  0  0  0
 10 11  2  0  0  0  0
 11 12  1  0  0  0  0
 11 19  1  0  0  0  0
 13 22  1  0  0  0  0
 13 21  1  0  0  0  0
 14 13  1  0  0  0  0
 15  5  1  0  0  0  0
 15 14  2  0  0  0  0
 16 14  1  0  0  0  0
 16104  1  0  0  0  0
 17 16  2  0  0  0  0
 18 17  1  0  0  0  0
 18 15  1  0  0  0  0
 19 25  2  0  0  0  0
 20 34  1  0  0  0  0
 20 17  1  0  0  0  0
 21 72  2  0  0  0  0
 21 68  1  0  0  0  0
 22 77  2  0  0  0  0
 23  7  1  0  0  0  0
 23 62  2  0  0  0  0
 24  7  1  0  0  0  0
 25 95  1  0  0  0  0
 25 26  1  0  0  0  0
 26 93  1  0  0  0  0
 27 26  2  0  0  0  0
 27 41  1  0  0  0  0
 28 27  1  0  0  0  0
 29 19  1  0  0  0  0
 29 28  1  0  0  0  0
 30 20  2  0  0  0  0
 31 32  2  0  0  0  0
 31 30  1  0  0  0  0
 32 33  1  0  0  0  0
 33 34  1  0  0  0  0
 33 38  2  0  0  0  0
 34 40  2  0  0  0  0
 35 28  2  0  0  0  0
 36 35  1  0  0  0  0
 37 36  1  0  0  0  0
 37 29  2  0  0  0  0
 38 39  1  0  0  0  0
 39 40  1  0  0  0  0
 39 45  1  0  0  0  0
 41105  1  0  0  0  0
 42 41  2  0  0  0  0
 42 51  1  0  0  0  0
 43 32  1  0  0  0  0
 43 44  2  0  0  0  0
 44 47  1  0  0  0  0
 45107  1  0  0  0  0
 45108  1  0  0  0  0
 46109  1  0  0  0  0
 46 36  1  0  0  0  0
 47 48  1  0  0  0  0
 47 78  2  0  0  0  0
 48 79  1  0  0  0  0
 49 80  2  0  0  0  0
 49 48  1  0  0  0  0
 50 44  1  0  0  0  0
 50 49  1  0  0  0  0
 51 56  2  0  0  0  0
 52 51  1  0  0  0  0
 52 55  1  0  0  0  0
 53 52  1  0  0  0  0
 54 53  1  0  0  0  0
 54 42  1  0  0  0  0
 55112  1  0  0  0  0
 55 91  1  0  0  0  0
 57 53  2  0  0  0  0
 58 23  1  0  0  0  0
 59 58  2  0  0  0  0
 59 60  1  0  0  0  0
 60 61  2  0  0  0  0
 61 62  1  0  0  0  0
 61115  1  0  0  0  0
 62116  1  0  0  0  0
 63117  1  0  0  0  0
 63 24  1  0  0  0  0
 64 63  2  0  0  0  0
 65 66  2  0  0  0  0
 65 64  1  0  0  0  0
 66 67  1  0  0  0  0
 67120  1  0  0  0  0
 67 24  2  0  0  0  0
 68 69  2  0  0  0  0
 69122  1  0  0  0  0
 69 70  1  0  0  0  0
 70 81  1  0  0  0  0
 71123  1  0  0  0  0
 71 70  2  0  0  0  0
 72 71  1  0  0  0  0
 73 74  2  0  0  0  0
 73 22  1  0  0  0  0
 74 75  1  0  0  0  0
 75 82  1  0  0  0  0
 75 76  2  0  0  0  0
 76127  1  0  0  0  0
 77 76  1  0  0  0  0
 77128  1  0  0  0  0
 79130  1  0  0  0  0
 79 92  1  0  0  0  0
 79129  1  0  0  0  0
 81131  1  0  0  0  0
 81132  1  0  0  0  0
 81 89  1  0  0  0  0
 82 88  1  0  0  0  0
 82133  1  0  0  0  0
 83 86  1  0  0  0  0
 83 65  1  0  0  0  0
 84 60  1  0  0  0  0
 84137  1  0  0  0  0
 85 84  1  0  0  0  0
 85139  1  0  0  0  0
 86142  1  0  0  0  0
 86144  1  0  0  0  0
 87 45  1  0  0  0  0
 87146  1  0  0  0  0
 88149  1  0  0  0  0
 88148  1  0  0  0  0
 89153  1  0  0  0  0
 89152  1  0  0  0  0
 90 46  1  0  0  0  0
 90154  1  0  0  0  0
 91159  1  0  0  0  0
 91158  1  0  0  0  0
 92161  1  0  0  0  0
 94 93  1  0  0  0  0
 94164  1  0  0  0  0
 95 96  1  0  0  0  0
 96168  1  0  0  0  0
 96167  1  0  0  0  0
 97 98  1  0  0  0  0
 97 31  1  0  0  0  0
 98169  1  0  0  0  0
 98170  1  0  0  0  0
 99 30  1  0  0  0  0
100173  1  0  0  0  0
100 99  1  0  0  0  0
102  6  1  0  0  0  0
103 10  1  0  0  0  0
106 43  1  0  0  0  0
110 46  1  0  0  0  0
111 55  1  0  0  0  0
113 58  1  0  0  0  0
114 59  1  0  0  0  0
118 64  1  0  0  0  0
119 66  1  0  0  0  0
121 68  1  0  0  0  0
124 72  1  0  0  0  0
125 73  1  0  0  0  0
126 74  1  0  0  0  0
134 82  1  0  0  0  0
135 83  1  0  0  0  0
136 83  1  0  0  0  0
138 84  1  0  0  0  0
140 85  1  0  0  0  0
141 85  1  0  0  0  0
143 86  1  0  0  0  0
145 87  1  0  0  0  0
147 87  1  0  0  0  0
150 88  1  0  0  0  0
151 89  1  0  0  0  0
155 90  1  0  0  0  0
156 90  1  0  0  0  0
157 91  1  0  0  0  0
160 92  1  0  0  0  0
162 92  1  0  0  0  0
163 94  1  0  0  0  0
165 94  1  0  0  0  0
166 96  1  0  0  0  0
171 98  1  0  0  0  0
172100  1  0  0  0  0
174100  1  0  0  0  0
M  END
