SCF done       -247.541172974731          0.000320440662
 OpenBabel12282109493D

158172  0  0  0  0  0  0  0  0999 V2000
    2.4790   -2.1031   -0.7226 C   0  0  0  0  0  0  0  0  0  0  0  0
    2.5649   -1.5915    0.5934 C   0  0  0  0  0  0  0  0  0  0  0  0
    1.6689   -0.6388    1.0717 C   0  0  0  0  0  0  0  0  0  0  0  0
    0.6585   -0.2461    0.2263 C   0  0  0  0  0  0  0  0  0  0  0  0
    0.5261   -0.8180   -1.0616 C   0  0  0  0  0  0  0  0  0  0  0  0
    1.4496   -1.7347   -1.5568 C   0  0  0  0  0  0  0  0  0  0  0  0
    3.5936   -3.1028   -0.9905 C   0  0  0  0  0  0  0  0  0  0  0  0
    4.2423   -3.1786    0.3693 C   0  0  0  0  0  0  0  0  0  0  0  0
    3.6485   -2.2696    1.2313 C   0  0  0  0  0  0  0  0  0  0  0  0
    5.2666   -3.9084    0.9623 C   0  0  0  0  0  0  0  0  0  0  0  0
    5.4409   -3.5750    2.2940 C   0  0  0  0  0  0  0  0  0  0  0  0
    4.3354   -2.3078    2.8010 S   0  0  0  0  0  0  0  0  0  0  0  0
   -0.4621    0.7456    0.4958 C   0  0  0  0  0  0  0  0  0  0  0  0
   -1.3224    0.5414   -0.7258 C   0  0  0  0  0  0  0  0  0  0  0  0
   -0.6910   -0.3135   -1.6149 C   0  0  0  0  0  0  0  0  0  0  0  0
   -2.5588    0.9901   -1.1783 C   0  0  0  0  0  0  0  0  0  0  0  0
   -2.8830    0.4652   -2.4154 C   0  0  0  0  0  0  0  0  0  0  0  0
   -1.6118   -0.5744   -3.0380 S   0  0  0  0  0  0  0  0  0  0  0  0
    6.3384   -4.1761    3.2252 C   0  0  0  0  0  0  0  0  0  0  0  0
   -4.1074    0.6356   -3.1304 C   0  0  0  0  0  0  0  0  0  0  0  0
   -1.1384    0.4175    1.8092 C   0  0  0  0  0  0  0  0  0  0  0  0
    0.0061    2.1920    0.4595 C   0  0  0  0  0  0  0  0  0  0  0  0
    2.9832   -4.4046   -1.4663 C   0  0  0  0  0  0  0  0  0  0  0  0
    4.6432   -2.5883   -1.9602 C   0  0  0  0  0  0  0  0  0  0  0  0
    6.3579   -3.8478    4.5796 C   0  0  0  0  0  0  0  0  0  0  0  0
    7.1797   -4.4669    5.5120 C   0  0  0  0  0  0  0  0  0  0  0  0
    8.0787   -5.4768    5.1688 C   0  0  0  0  0  0  0  0  0  0  0  0
    8.1078   -5.8095    3.7882 C   0  0  0  0  0  0  0  0  0  0  0  0
    7.2533   -5.1846    2.8350 C   0  0  0  0  0  0  0  0  0  0  0  0
   -4.3256    0.1049   -4.3990 C   0  0  0  0  0  0  0  0  0  0  0  0
   -5.5452    0.1952   -5.0582 C   0  0  0  0  0  0  0  0  0  0  0  0
   -6.6676    0.7892   -4.4881 C   0  0  0  0  0  0  0  0  0  0  0  0
   -6.4590    1.4042   -3.2349 C   0  0  0  0  0  0  0  0  0  0  0  0
   -5.2036    1.3287   -2.5632 C   0  0  0  0  0  0  0  0  0  0  0  0
    8.8471   -6.7123    3.1303 N   0  0  0  0  0  0  0  0  0  0  0  0
    8.4489   -6.6155    1.8916 N   0  0  0  0  0  0  0  0  0  0  0  0
    7.5151   -5.7405    1.6423 N   0  0  0  0  0  0  0  0  0  0  0  0
   -7.2751    2.1454   -2.4749 N   0  0  0  0  0  0  0  0  0  0  0  0
   -6.5562    2.4473   -1.4332 N   0  0  0  0  0  0  0  0  0  0  0  0
   -5.3311    2.0041   -1.4109 N   0  0  0  0  0  0  0  0  0  0  0  0
    8.9515   -6.2056    6.0261 C   0  0  0  0  0  0  0  0  0  0  0  0
    9.1150   -6.2452    7.3768 C   0  0  0  0  0  0  0  0  0  0  0  0
   -7.9361    0.7847   -5.1549 C   0  0  0  0  0  0  0  0  0  0  0  0
   -9.1533    0.7375   -4.5644 C   0  0  0  0  0  0  0  0  0  0  0  0
   -7.1280    3.1427   -0.3171 C   0  0  0  0  0  0  0  0  0  0  0  0
    9.0388   -7.4037    0.8476 C   0  0  0  0  0  0  0  0  0  0  0  0
   -9.4837    0.4199   -3.1739 C   0  0  0  0  0  0  0  0  0  0  0  0
  -10.8554    0.5281   -2.9777 N   0  0  0  0  0  0  0  0  0  0  0  0
  -11.6280    0.8171   -4.0523 C   0  0  0  0  0  0  0  0  0  0  0  0
  -10.6309    0.9696   -5.4894 S   0  0  0  0  0  0  0  0  0  0  0  0
    8.4410   -5.5640    8.4784 C   0  0  0  0  0  0  0  0  0  0  0  0
    8.9379   -6.0089    9.6959 N   0  0  0  0  0  0  0  0  0  0  0  0
    9.9234   -6.9394    9.6806 C   0  0  0  0  0  0  0  0  0  0  0  0
   10.3281   -7.3506    8.0279 S   0  0  0  0  0  0  0  0  0  0  0  0
    8.3787   -5.5074   10.9363 C   0  0  0  0  0  0  0  0  0  0  0  0
    7.5687   -4.7213    8.4217 O   0  0  0  0  0  0  0  0  0  0  0  0
   10.6441   -7.5836   10.9972 S   0  0  0  0  0  0  0  0  0  0  0  0
    2.7197   -4.5941   -2.8175 C   0  0  0  0  0  0  0  0  0  0  0  0
    2.1094   -5.7528   -3.2578 C   0  0  0  0  0  0  0  0  0  0  0  0
    1.7421   -6.7500   -2.3635 C   0  0  0  0  0  0  0  0  0  0  0  0
    2.0050   -6.5547   -1.0146 C   0  0  0  0  0  0  0  0  0  0  0  0
    2.6118   -5.3950   -0.5682 C   0  0  0  0  0  0  0  0  0  0  0  0
    4.6918   -1.2620   -2.3621 C   0  0  0  0  0  0  0  0  0  0  0  0
    5.6922   -0.8243   -3.2118 C   0  0  0  0  0  0  0  0  0  0  0  0
    6.6690   -1.6941   -3.6751 C   0  0  0  0  0  0  0  0  0  0  0  0
    6.6222   -3.0193   -3.2601 C   0  0  0  0  0  0  0  0  0  0  0  0
    5.6251   -3.4618   -2.4134 C   0  0  0  0  0  0  0  0  0  0  0  0
   -0.6177    0.9147    2.9980 C   0  0  0  0  0  0  0  0  0  0  0  0
   -1.2009    0.5937    4.2084 C   0  0  0  0  0  0  0  0  0  0  0  0
   -2.3164   -0.2320    4.2659 C   0  0  0  0  0  0  0  0  0  0  0  0
   -2.8292   -0.7305    3.0763 C   0  0  0  0  0  0  0  0  0  0  0  0
   -2.2454   -0.4172    1.8623 C   0  0  0  0  0  0  0  0  0  0  0  0
   -0.8791    3.1936    0.8408 C   0  0  0  0  0  0  0  0  0  0  0  0
   -0.5098    4.5223    0.7691 C   0  0  0  0  0  0  0  0  0  0  0  0
    0.7483    4.8889    0.3073 C   0  0  0  0  0  0  0  0  0  0  0  0
    1.6270    3.8853   -0.0747 C   0  0  0  0  0  0  0  0  0  0  0  0
    1.2620    2.5524   -0.0056 C   0  0  0  0  0  0  0  0  0  0  0  0
   -8.7376    0.0383   -2.2998 O   0  0  0  0  0  0  0  0  0  0  0  0
  -11.4167    0.3354   -1.6558 C   0  0  0  0  0  0  0  0  0  0  0  0
   -2.9808   -0.5323    5.5786 C   0  0  0  0  0  0  0  0  0  0  0  0
    1.1627    6.3317    0.2652 C   0  0  0  0  0  0  0  0  0  0  0  0
    7.7796   -1.2035   -4.5588 C   0  0  0  0  0  0  0  0  0  0  0  0
    1.1211   -8.0273   -2.8512 C   0  0  0  0  0  0  0  0  0  0  0  0
    2.2039   -9.0537   -3.1900 C   0  0  0  0  0  0  0  0  0  0  0  0
    8.9617   -0.7248   -3.7134 C   0  0  0  0  0  0  0  0  0  0  0  0
   -4.0267    0.5362    5.9040 C   0  0  0  0  0  0  0  0  0  0  0  0
    1.8248    6.7394    1.5830 C   0  0  0  0  0  0  0  0  0  0  0  0
  -13.2518    0.9823   -4.0380 S   0  0  0  0  0  0  0  0  0  0  0  0
    7.2989   -6.4412   11.4690 C   0  0  0  0  0  0  0  0  0  0  0  0
  -11.6049    1.6693   -0.9437 C   0  0  0  0  0  0  0  0  0  0  0  0
   -7.6925    2.1297    0.6757 C   0  0  0  0  0  0  0  0  0  0  0  0
   10.0976   -6.5960    0.1031 C   0  0  0  0  0  0  0  0  0  0  0  0
    1.7615   -0.2469    2.0729 H   0  0  0  0  0  0  0  0  0  0  0  0
    1.3419   -2.1476   -2.5480 H   0  0  0  0  0  0  0  0  0  0  0  0
    5.8603   -4.6664    0.4869 H   0  0  0  0  0  0  0  0  0  0  0  0
   -3.2257    1.6454   -0.6502 H   0  0  0  0  0  0  0  0  0  0  0  0
    5.6824   -3.0783    4.9253 H   0  0  0  0  0  0  0  0  0  0  0  0
    7.1103   -4.1598    6.5416 H   0  0  0  0  0  0  0  0  0  0  0  0
   -3.5122   -0.4169   -4.8827 H   0  0  0  0  0  0  0  0  0  0  0  0
   -5.6430   -0.2659   -6.0304 H   0  0  0  0  0  0  0  0  0  0  0  0
    9.5967   -6.8812    5.4737 H   0  0  0  0  0  0  0  0  0  0  0  0
   -7.9081    0.8227   -6.2377 H   0  0  0  0  0  0  0  0  0  0  0  0
   -6.3444    3.7458    0.1456 H   0  0  0  0  0  0  0  0  0  0  0  0
   -7.9200    3.7861   -0.7050 H   0  0  0  0  0  0  0  0  0  0  0  0
    9.4824   -8.2823    1.3188 H   0  0  0  0  0  0  0  0  0  0  0  0
    8.2422   -7.7055    0.1639 H   0  0  0  0  0  0  0  0  0  0  0  0
    9.1920   -5.4122   11.6592 H   0  0  0  0  0  0  0  0  0  0  0  0
    7.9568   -4.5249   10.7119 H   0  0  0  0  0  0  0  0  0  0  0  0
    3.0022   -3.8327   -3.5305 H   0  0  0  0  0  0  0  0  0  0  0  0
    1.9109   -5.8830   -4.3123 H   0  0  0  0  0  0  0  0  0  0  0  0
    1.7266   -7.3176   -0.3012 H   0  0  0  0  0  0  0  0  0  0  0  0
    2.7980   -5.2621    0.4876 H   0  0  0  0  0  0  0  0  0  0  0  0
    3.9440   -0.5639   -2.0155 H   0  0  0  0  0  0  0  0  0  0  0  0
    5.7110    0.2114   -3.5204 H   0  0  0  0  0  0  0  0  0  0  0  0
    7.3748   -3.7131   -3.6076 H   0  0  0  0  0  0  0  0  0  0  0  0
    5.5984   -4.4973   -2.1066 H   0  0  0  0  0  0  0  0  0  0  0  0
    0.2431    1.5678    2.9738 H   0  0  0  0  0  0  0  0  0  0  0  0
   -0.7829    0.9894    5.1233 H   0  0  0  0  0  0  0  0  0  0  0  0
   -3.6957   -1.3763    3.0983 H   0  0  0  0  0  0  0  0  0  0  0  0
   -2.6590   -0.8226    0.9505 H   0  0  0  0  0  0  0  0  0  0  0  0
   -1.8615    2.9261    1.2018 H   0  0  0  0  0  0  0  0  0  0  0  0
   -1.2104    5.2881    1.0708 H   0  0  0  0  0  0  0  0  0  0  0  0
    2.6107    4.1479   -0.4377 H   0  0  0  0  0  0  0  0  0  0  0  0
    1.9633    1.7918   -0.3161 H   0  0  0  0  0  0  0  0  0  0  0  0
  -12.3743   -0.1793   -1.7620 H   0  0  0  0  0  0  0  0  0  0  0  0
  -10.7106   -0.2964   -1.1109 H   0  0  0  0  0  0  0  0  0  0  0  0
   -3.4661   -1.5092    5.5340 H   0  0  0  0  0  0  0  0  0  0  0  0
   -2.2336   -0.5576    6.3743 H   0  0  0  0  0  0  0  0  0  0  0  0
    1.8665    6.4905   -0.5545 H   0  0  0  0  0  0  0  0  0  0  0  0
    0.2886    6.9626    0.0918 H   0  0  0  0  0  0  0  0  0  0  0  0
    8.1114   -2.0075   -5.2189 H   0  0  0  0  0  0  0  0  0  0  0  0
    7.4231   -0.3779   -5.1781 H   0  0  0  0  0  0  0  0  0  0  0  0
    0.4645   -8.4376   -2.0814 H   0  0  0  0  0  0  0  0  0  0  0  0
    0.5216   -7.8302   -3.7423 H   0  0  0  0  0  0  0  0  0  0  0  0
    2.8023   -9.2762   -2.3092 H   0  0  0  0  0  0  0  0  0  0  0  0
    1.7551   -9.9775   -3.5478 H   0  0  0  0  0  0  0  0  0  0  0  0
    2.8639   -8.6657   -3.9628 H   0  0  0  0  0  0  0  0  0  0  0  0
    9.3435   -1.5390   -3.1014 H   0  0  0  0  0  0  0  0  0  0  0  0
    9.7648   -0.3625   -4.3509 H   0  0  0  0  0  0  0  0  0  0  0  0
    8.6513    0.0815   -3.0526 H   0  0  0  0  0  0  0  0  0  0  0  0
   -4.7901    0.5655    5.1296 H   0  0  0  0  0  0  0  0  0  0  0  0
   -4.5059    0.3233    6.8567 H   0  0  0  0  0  0  0  0  0  0  0  0
   -3.5596    1.5170    5.9611 H   0  0  0  0  0  0  0  0  0  0  0  0
    2.7077    6.1311    1.7666 H   0  0  0  0  0  0  0  0  0  0  0  0
    2.1233    7.7847    1.5519 H   0  0  0  0  0  0  0  0  0  0  0  0
    1.1348    6.5993    2.4121 H   0  0  0  0  0  0  0  0  0  0  0  0
    7.7177   -7.4236   11.6742 H   0  0  0  0  0  0  0  0  0  0  0  0
    6.8905   -6.0372   12.3906 H   0  0  0  0  0  0  0  0  0  0  0  0
    6.4951   -6.5411   10.7431 H   0  0  0  0  0  0  0  0  0  0  0  0
  -12.3266    2.2816   -1.4788 H   0  0  0  0  0  0  0  0  0  0  0  0
  -11.9716    1.4975    0.0641 H   0  0  0  0  0  0  0  0  0  0  0  0
  -10.6587    2.2029   -0.8902 H   0  0  0  0  0  0  0  0  0  0  0  0
   -6.8870    1.5387    1.1045 H   0  0  0  0  0  0  0  0  0  0  0  0
   -8.2210    2.6414    1.4751 H   0  0  0  0  0  0  0  0  0  0  0  0
   -8.3782    1.4581    0.1642 H   0  0  0  0  0  0  0  0  0  0  0  0
   10.8916   -6.2980    0.7834 H   0  0  0  0  0  0  0  0  0  0  0  0
   10.5266   -7.1963   -0.6940 H   0  0  0  0  0  0  0  0  0  0  0  0
    9.6506   -5.7037   -0.3285 H   0  0  0  0  0  0  0  0  0  0  0  0
  1  2  2  0  0  0  0
  2  3  1  0  0  0  0
  2  9  1  0  0  0  0
  3 93  1  0  0  0  0
  4 13  1  0  0  0  0
  4  3  2  0  0  0  0
  5  4  1  0  0  0  0
  6  5  2  0  0  0  0
  6  1  1  0  0  0  0
  7  1  1  0  0  0  0
  7  8  1  0  0  0  0
  8 10  1  0  0  0  0
  8  9  2  0  0  0  0
  9 12  1  0  0  0  0
 10 11  2  0  0  0  0
 11 12  1  0  0  0  0
 11 19  1  0  0  0  0
 13 21  1  0  0  0  0
 14 13  1  0  0  0  0
 15  5  1  0  0  0  0
 15 14  2  0  0  0  0
 16 14  1  0  0  0  0
 16 96  1  0  0  0  0
 17 16  2  0  0  0  0
 18 17  1  0  0  0  0
 18 15  1  0  0  0  0
 19 25  2  0  0  0  0
 20 34  1  0  0  0  0
 20 17  1  0  0  0  0
 21 72  2  0  0  0  0
 21 68  1  0  0  0  0
 22 13  1  0  0  0  0
 22 73  2  0  0  0  0
 23  7  1  0  0  0  0
 23 62  2  0  0  0  0
 24  7  1  0  0  0  0
 25 97  1  0  0  0  0
 25 26  1  0  0  0  0
 26 98  1  0  0  0  0
 27 26  2  0  0  0  0
 27 41  1  0  0  0  0
 28 27  1  0  0  0  0
 29 19  1  0  0  0  0
 29 28  1  0  0  0  0
 30 20  2  0  0  0  0
 31 32  2  0  0  0  0
 31 30  1  0  0  0  0
 32 33  1  0  0  0  0
 33 34  1  0  0  0  0
 33 38  2  0  0  0  0
 34 40  2  0  0  0  0
 35 28  2  0  0  0  0
 36 35  1  0  0  0  0
 37 36  1  0  0  0  0
 37 29  2  0  0  0  0
 38 39  1  0  0  0  0
 39 40  1  0  0  0  0
 39 45  1  0  0  0  0
 41 42  2  0  0  0  0
 42 54  1  0  0  0  0
 42 51  1  0  0  0  0
 43 44  2  0  0  0  0
 43 32  1  0  0  0  0
 44 47  1  0  0  0  0
 45103  1  0  0  0  0
 45 91  1  0  0  0  0
 46105  1  0  0  0  0
 46 36  1  0  0  0  0
 47 48  1  0  0  0  0
 47 78  2  0  0  0  0
 48 79  1  0  0  0  0
 49 88  2  0  0  0  0
 49 48  1  0  0  0  0
 50 44  1  0  0  0  0
 50 49  1  0  0  0  0
 51 52  1  0  0  0  0
 52 55  1  0  0  0  0
 53 52  1  0  0  0  0
 53 57  2  0  0  0  0
 54 53  1  0  0  0  0
 55 89  1  0  0  0  0
 55107  1  0  0  0  0
 56 51  2  0  0  0  0
 58 23  1  0  0  0  0
 59 58  2  0  0  0  0
 59 60  1  0  0  0  0
 60 61  2  0  0  0  0
 61 62  1  0  0  0  0
 61111  1  0  0  0  0
 62112  1  0  0  0  0
 63113  1  0  0  0  0
 63 24  1  0  0  0  0
 64 63  2  0  0  0  0
 65 66  2  0  0  0  0
 65 64  1  0  0  0  0
 66 67  1  0  0  0  0
 67116  1  0  0  0  0
 67 24  2  0  0  0  0
 68 69  2  0  0  0  0
 69 70  1  0  0  0  0
 69118  1  0  0  0  0
 70 80  1  0  0  0  0
 71119  1  0  0  0  0
 71 70  2  0  0  0  0
 72 71  1  0  0  0  0
 73121  1  0  0  0  0
 74 73  1  0  0  0  0
 74122  1  0  0  0  0
 75 74  2  0  0  0  0
 76 77  2  0  0  0  0
 76 75  1  0  0  0  0
 77 22  1  0  0  0  0
 79126  1  0  0  0  0
 79 90  1  0  0  0  0
 80 86  1  0  0  0  0
 80128  1  0  0  0  0
 81 75  1  0  0  0  0
 81 87  1  0  0  0  0
 82 85  1  0  0  0  0
 82 65  1  0  0  0  0
 83 60  1  0  0  0  0
 83133  1  0  0  0  0
 84 83  1  0  0  0  0
 84135  1  0  0  0  0
 85138  1  0  0  0  0
 85140  1  0  0  0  0
 86143  1  0  0  0  0
 86142  1  0  0  0  0
 87144  1  0  0  0  0
 87146  1  0  0  0  0
 89147  1  0  0  0  0
 89148  1  0  0  0  0
 90152  1  0  0  0  0
 90151  1  0  0  0  0
 91153  1  0  0  0  0
 91154  1  0  0  0  0
 92156  1  0  0  0  0
 92 46  1  0  0  0  0
 94  6  1  0  0  0  0
 95 10  1  0  0  0  0
 99 30  1  0  0  0  0
100 31  1  0  0  0  0
101 41  1  0  0  0  0
102 43  1  0  0  0  0
104 45  1  0  0  0  0
106 46  1  0  0  0  0
108 55  1  0  0  0  0
109 58  1  0  0  0  0
110 59  1  0  0  0  0
114 64  1  0  0  0  0
115 66  1  0  0  0  0
117 68  1  0  0  0  0
120 72  1  0  0  0  0
123 76  1  0  0  0  0
124 77  1  0  0  0  0
125 79  1  0  0  0  0
127 80  1  0  0  0  0
129 81  1  0  0  0  0
130 81  1  0  0  0  0
131 82  1  0  0  0  0
132 82  1  0  0  0  0
134 83  1  0  0  0  0
136 84  1  0  0  0  0
137 84  1  0  0  0  0
139 85  1  0  0  0  0
141 86  1  0  0  0  0
145 87  1  0  0  0  0
149 89  1  0  0  0  0
150 90  1  0  0  0  0
155 91  1  0  0  0  0
157 92  1  0  0  0  0
158 92  1  0  0  0  0
M  END
