SCF done       -294.322329046208          0.000838464711
 OpenBabel12282109493D

182196  0  0  1  0  0  0  0  0999 V2000
    2.0067   -3.0835    0.1592 C   0  0  0  0  0  0  0  0  0  0  0  0
    2.0593   -2.2768    1.3207 C   0  0  0  0  0  0  0  0  0  0  0  0
    1.1169   -1.2809    1.5639 C   0  0  0  0  0  0  0  0  0  0  0  0
    0.0727   -1.1730    0.6756 C   0  0  0  0  0  0  0  0  0  0  0  0
   -0.0331   -2.0486   -0.4314 C   0  0  0  0  0  0  0  0  0  0  0  0
    0.9534   -2.9889   -0.7191 C   0  0  0  0  0  0  0  0  0  0  0  0
    3.1779   -4.0527    0.1212 C   0  0  0  0  0  0  0  0  0  0  0  0
    3.7803   -3.8196    1.4843 C   0  0  0  0  0  0  0  0  0  0  0  0
    3.1452   -2.7595    2.1153 C   0  0  0  0  0  0  0  0  0  0  0  0
    4.7797   -4.3971    2.2562 C   0  0  0  0  0  0  0  0  0  0  0  0
    4.8864   -3.8000    3.5023 C   0  0  0  0  0  0  0  0  0  0  0  0
    3.7502   -2.4770    3.6945 S   0  0  0  0  0  0  0  0  0  0  0  0
   -1.1024   -0.2078    0.7147 C   0  0  0  0  0  0  0  0  0  0  0  0
   -1.9474   -0.7476   -0.4108 C   0  0  0  0  0  0  0  0  0  0  0  0
   -1.2972   -1.7937   -1.0487 C   0  0  0  0  0  0  0  0  0  0  0  0
   -3.2404   -0.5421   -0.8724 C   0  0  0  0  0  0  0  0  0  0  0  0
   -3.5975   -1.4551   -1.8520 C   0  0  0  0  0  0  0  0  0  0  0  0
   -2.2721   -2.5379   -2.2481 S   0  0  0  0  0  0  0  0  0  0  0  0
    5.6997   -4.1885    4.6107 C   0  0  0  0  0  0  0  0  0  0  0  0
   -4.8755   -1.6819   -2.4496 C   0  0  0  0  0  0  0  0  0  0  0  0
   -1.9337   -0.2559    1.9798 C   0  0  0  0  0  0  0  0  0  0  0  0
   -0.5481    1.1812    0.4524 C   0  0  0  0  0  0  0  0  0  0  0  0
    2.6651   -5.4578   -0.1094 C   0  0  0  0  0  0  0  0  0  0  0  0
    4.2367   -3.6664   -0.8985 C   0  0  0  0  0  0  0  0  0  0  0  0
    6.7726   -5.0874    4.5378 C   0  0  0  0  0  0  0  0  0  0  0  0
    7.4725   -5.5304    5.6816 C   0  0  0  0  0  0  0  0  0  0  0  0
    7.1808   -5.0699    6.9784 C   0  0  0  0  0  0  0  0  0  0  0  0
    6.1464   -4.1127    7.0527 C   0  0  0  0  0  0  0  0  0  0  0  0
    5.4238   -3.6912    5.9051 C   0  0  0  0  0  0  0  0  0  0  0  0
   -6.0651   -1.0552   -2.0547 C   0  0  0  0  0  0  0  0  0  0  0  0
   -7.3165   -1.3928   -2.6154 C   0  0  0  0  0  0  0  0  0  0  0  0
   -7.4762   -2.4025   -3.5764 C   0  0  0  0  0  0  0  0  0  0  0  0
   -6.2940   -3.0742   -3.9515 C   0  0  0  0  0  0  0  0  0  0  0  0
   -5.0292   -2.6918   -3.4273 C   0  0  0  0  0  0  0  0  0  0  0  0
    5.6261   -3.4686    8.1005 N   0  0  0  0  0  0  0  0  0  0  0  0
    4.6737   -2.7279    7.6036 N   0  0  0  0  0  0  0  0  0  0  0  0
    4.4996   -2.8116    6.3164 N   0  0  0  0  0  0  0  0  0  0  0  0
   -6.0912   -4.1340   -4.7440 N   0  0  0  0  0  0  0  0  0  0  0  0
   -4.8025   -4.3220   -4.7082 N   0  0  0  0  0  0  0  0  0  0  0  0
   -4.1129   -3.5139   -3.9546 N   0  0  0  0  0  0  0  0  0  0  0  0
    7.8695   -5.6042    8.1011 C   0  0  0  0  0  0  0  0  0  0  0  0
    7.7073   -5.3647    9.4256 C   0  0  0  0  0  0  0  0  0  0  0  0
   -8.7783   -2.7601   -4.0416 C   0  0  0  0  0  0  0  0  0  0  0  0
   -9.1025   -3.3437   -5.2207 C   0  0  2  0  0  0  0  0  0  0  0  0
   -4.1735   -5.3048   -5.5410 C   0  0  0  0  0  0  0  0  0  0  0  0
    3.8585   -1.8841    8.4315 C   0  0  0  0  0  0  0  0  0  0  0  0
   -8.3076   -3.4884   -6.4357 C   0  0  0  0  0  0  0  0  0  0  0  0
   -8.9970   -4.2597   -7.3729 N   0  0  0  0  0  0  0  0  0  0  0  0
  -10.2590   -4.6316   -7.0415 C   0  0  0  0  0  0  0  0  0  0  0  0
  -10.7163   -3.9980   -5.4782 S   0  0  0  0  0  0  0  0  0  0  0  0
    8.5078   -6.1114   10.3994 C   0  0  0  0  0  0  0  0  0  0  0  0
    8.1903   -5.7364   11.6980 N   0  0  0  0  0  0  0  0  0  0  0  0
    7.2325   -4.7847   11.8096 C   0  0  0  0  0  0  0  0  0  0  0  0
    6.6267   -4.2629   10.2455 S   0  0  0  0  0  0  0  0  0  0  0  0
    8.8392   -6.4101   12.8072 C   0  0  0  0  0  0  0  0  0  0  0  0
    9.3432   -6.9494   10.1411 O   0  0  0  0  0  0  0  0  0  0  0  0
    6.7195   -4.2087   12.9471 C   0  0  0  0  0  0  0  0  0  0  0  0
    5.7325   -3.2136   12.7995 C   0  0  0  0  0  0  0  0  0  0  0  0
    7.0679   -4.5004   14.2749 C   0  0  0  0  0  0  0  0  0  0  0  0
    2.4879   -5.9298   -1.4041 C   0  0  0  0  0  0  0  0  0  0  0  0
    1.9748   -7.1935   -1.6266 C   0  0  0  0  0  0  0  0  0  0  0  0
    1.6193   -8.0160   -0.5657 C   0  0  0  0  0  0  0  0  0  0  0  0
    1.7897   -7.5363    0.7259 C   0  0  0  0  0  0  0  0  0  0  0  0
    2.2998   -6.2715    0.9538 C   0  0  0  0  0  0  0  0  0  0  0  0
    5.2939   -4.5385   -1.1314 C   0  0  0  0  0  0  0  0  0  0  0  0
    6.3009   -4.2022   -2.0147 C   0  0  0  0  0  0  0  0  0  0  0  0
    6.2821   -2.9866   -2.6872 C   0  0  0  0  0  0  0  0  0  0  0  0
    5.2294   -2.1158   -2.4435 C   0  0  0  0  0  0  0  0  0  0  0  0
    4.2187   -2.4466   -1.5583 C   0  0  0  0  0  0  0  0  0  0  0  0
   -1.8747   -1.3284    2.8575 C   0  0  0  0  0  0  0  0  0  0  0  0
   -2.6938   -1.3663    3.9719 C   0  0  0  0  0  0  0  0  0  0  0  0
   -3.6003   -0.3475    4.2293 C   0  0  0  0  0  0  0  0  0  0  0  0
   -3.6672    0.7161    3.3380 C   0  0  0  0  0  0  0  0  0  0  0  0
   -2.8486    0.7614    2.2266 C   0  0  0  0  0  0  0  0  0  0  0  0
   -0.4833    1.6995   -0.8331 C   0  0  0  0  0  0  0  0  0  0  0  0
    0.0696    2.9467   -1.0593 C   0  0  0  0  0  0  0  0  0  0  0  0
    0.5799    3.7026   -0.0130 C   0  0  0  0  0  0  0  0  0  0  0  0
    0.5178    3.1767    1.2712 C   0  0  0  0  0  0  0  0  0  0  0  0
   -0.0347    1.9318    1.5028 C   0  0  0  0  0  0  0  0  0  0  0  0
   -7.2353   -2.9866   -6.6860 O   0  0  0  0  0  0  0  0  0  0  0  0
   -8.3731   -4.5181   -8.6566 C   0  0  0  0  0  0  0  0  0  0  0  0
  -11.1401   -5.4050   -7.7571 C   0  0  0  0  0  0  0  0  0  0  0  0
  -12.4181   -5.6719   -7.2235 C   0  0  0  0  0  0  0  0  0  0  0  0
  -10.9099   -6.0035   -9.0065 C   0  0  0  0  0  0  0  0  0  0  0  0
    4.9310   -2.4017   12.6713 N   0  0  0  0  0  0  0  0  0  0  0  0
    7.3050   -4.6992   15.3817 N   0  0  0  0  0  0  0  0  0  0  0  0
  -10.7886   -6.5222  -10.0249 N   0  0  0  0  0  0  0  0  0  0  0  0
  -13.4624   -5.8952   -6.8039 N   0  0  0  0  0  0  0  0  0  0  0  0
   -4.4513   -0.3680    5.4663 C   0  0  0  0  0  0  0  0  0  0  0  0
    1.1392    5.0750   -0.2558 C   0  0  0  0  0  0  0  0  0  0  0  0
    7.3990   -2.6016   -3.6143 C   0  0  0  0  0  0  0  0  0  0  0  0
    1.1112   -9.4081   -0.8081 C   0  0  0  0  0  0  0  0  0  0  0  0
    2.2726  -10.4040   -0.8254 C   0  0  0  0  0  0  0  0  0  0  0  0
    8.4831   -1.8333   -2.8556 C   0  0  0  0  0  0  0  0  0  0  0  0
   -3.9135   -4.7080   -6.9216 C   0  0  0  0  0  0  0  0  0  0  0  0
    0.0379    6.1305   -0.1371 C   0  0  0  0  0  0  0  0  0  0  0  0
   -3.7259    0.3221    6.6234 C   0  0  0  0  0  0  0  0  0  0  0  0
    4.7198   -0.9381    9.2566 C   0  0  0  0  0  0  0  0  0  0  0  0
    7.9761   -7.5416   13.3535 C   0  0  0  0  0  0  0  0  0  0  0  0
   -8.8651   -3.5512   -9.7272 C   0  0  0  0  0  0  0  0  0  0  0  0
    8.5141   -6.4141    5.5503 O   0  0  0  0  0  0  0  0  0  0  0  0
    8.1984   -7.7009    5.0425 C   0  0  0  0  0  0  0  0  0  0  0  0
    7.1549   -5.5765    3.3013 O   0  0  0  0  0  0  0  0  0  0  0  0
    8.3675   -5.0292    2.8112 C   0  0  0  0  0  0  0  0  0  0  0  0
   -8.4534   -0.7497   -2.1868 O   0  0  0  0  0  0  0  0  0  0  0  0
   -8.5328    0.6374   -2.4722 C   0  0  0  0  0  0  0  0  0  0  0  0
   -6.0285   -0.0767   -1.0785 O   0  0  0  0  0  0  0  0  0  0  0  0
   -6.5501   -0.4799    0.1776 C   0  0  0  0  0  0  0  0  0  0  0  0
    1.1933   -0.6528    2.4379 H   0  0  0  0  0  0  0  0  0  0  0  0
    0.8695   -3.6308   -1.5824 H   0  0  0  0  0  0  0  0  0  0  0  0
    5.3784   -5.2392    1.9668 H   0  0  0  0  0  0  0  0  0  0  0  0
   -3.9046    0.2206   -0.5154 H   0  0  0  0  0  0  0  0  0  0  0  0
    8.6340   -6.3382    7.8695 H   0  0  0  0  0  0  0  0  0  0  0  0
   -9.5847   -2.5584   -3.3467 H   0  0  0  0  0  0  0  0  0  0  0  0
   -3.2399   -5.6005   -5.0595 H   0  0  0  0  0  0  0  0  0  0  0  0
   -4.8510   -6.1577   -5.6146 H   0  0  0  0  0  0  0  0  0  0  0  0
    3.1903   -1.3445    7.7581 H   0  0  0  0  0  0  0  0  0  0  0  0
    3.2710   -2.5194    9.1011 H   0  0  0  0  0  0  0  0  0  0  0  0
    9.7715   -6.8164   12.4056 H   0  0  0  0  0  0  0  0  0  0  0  0
    9.0657   -5.6820   13.5879 H   0  0  0  0  0  0  0  0  0  0  0  0
    2.7637   -5.3074   -2.2434 H   0  0  0  0  0  0  0  0  0  0  0  0
    1.8461   -7.5454   -2.6405 H   0  0  0  0  0  0  0  0  0  0  0  0
    1.5152   -8.1588    1.5659 H   0  0  0  0  0  0  0  0  0  0  0  0
    2.4167   -5.9166    1.9674 H   0  0  0  0  0  0  0  0  0  0  0  0
    5.3201   -5.4912   -0.6227 H   0  0  0  0  0  0  0  0  0  0  0  0
    7.1133   -4.8941   -2.1871 H   0  0  0  0  0  0  0  0  0  0  0  0
    5.1958   -1.1640   -2.9547 H   0  0  0  0  0  0  0  0  0  0  0  0
    3.4119   -1.7494   -1.3859 H   0  0  0  0  0  0  0  0  0  0  0  0
   -1.1865   -2.1401    2.6724 H   0  0  0  0  0  0  0  0  0  0  0  0
   -2.6301   -2.2064    4.6491 H   0  0  0  0  0  0  0  0  0  0  0  0
   -4.3700    1.5178    3.5170 H   0  0  0  0  0  0  0  0  0  0  0  0
   -2.9114    1.5981    1.5456 H   0  0  0  0  0  0  0  0  0  0  0  0
   -0.8693    1.1280   -1.6644 H   0  0  0  0  0  0  0  0  0  0  0  0
    0.1081    3.3364   -2.0668 H   0  0  0  0  0  0  0  0  0  0  0  0
    0.9104    3.7482    2.1005 H   0  0  0  0  0  0  0  0  0  0  0  0
   -0.0785    1.5437    2.5101 H   0  0  0  0  0  0  0  0  0  0  0  0
   -7.3008   -4.3767   -8.4981 H   0  0  0  0  0  0  0  0  0  0  0  0
   -8.5629   -5.5524   -8.9482 H   0  0  0  0  0  0  0  0  0  0  0  0
   -5.3954    0.1465    5.2758 H   0  0  0  0  0  0  0  0  0  0  0  0
   -4.6745   -1.3996    5.7460 H   0  0  0  0  0  0  0  0  0  0  0  0
    1.9231    5.2897    0.4733 H   0  0  0  0  0  0  0  0  0  0  0  0
    1.5782    5.1245   -1.2543 H   0  0  0  0  0  0  0  0  0  0  0  0
    7.8373   -3.4972   -4.0592 H   0  0  0  0  0  0  0  0  0  0  0  0
    7.0116   -1.9743   -4.4196 H   0  0  0  0  0  0  0  0  0  0  0  0
    0.4085   -9.6883   -0.0207 H   0  0  0  0  0  0  0  0  0  0  0  0
    0.5871   -9.4500   -1.7651 H   0  0  0  0  0  0  0  0  0  0  0  0
    2.8002  -10.3855    0.1257 H   0  0  0  0  0  0  0  0  0  0  0  0
    1.9070  -11.4131   -1.0006 H   0  0  0  0  0  0  0  0  0  0  0  0
    2.9782  -10.1483   -1.6128 H   0  0  0  0  0  0  0  0  0  0  0  0
    8.8919   -2.4466   -2.0555 H   0  0  0  0  0  0  0  0  0  0  0  0
    9.2919   -1.5530   -3.5264 H   0  0  0  0  0  0  0  0  0  0  0  0
    8.0676   -0.9298   -2.4149 H   0  0  0  0  0  0  0  0  0  0  0  0
   -3.1836   -3.9056   -6.8512 H   0  0  0  0  0  0  0  0  0  0  0  0
   -3.5367   -5.4714   -7.5959 H   0  0  0  0  0  0  0  0  0  0  0  0
   -4.8389   -4.3002   -7.3214 H   0  0  0  0  0  0  0  0  0  0  0  0
   -0.4042    6.1056    0.8565 H   0  0  0  0  0  0  0  0  0  0  0  0
    0.4422    7.1246   -0.3129 H   0  0  0  0  0  0  0  0  0  0  0  0
   -0.7475    5.9408   -0.8654 H   0  0  0  0  0  0  0  0  0  0  0  0
   -3.5055    1.3563    6.3682 H   0  0  0  0  0  0  0  0  0  0  0  0
   -4.3401    0.3088    7.5207 H   0  0  0  0  0  0  0  0  0  0  0  0
   -2.7875   -0.1848    6.8368 H   0  0  0  0  0  0  0  0  0  0  0  0
    5.3202   -0.3026    8.6102 H   0  0  0  0  0  0  0  0  0  0  0  0
    4.0839   -0.3124    9.8750 H   0  0  0  0  0  0  0  0  0  0  0  0
    5.3765   -1.5086    9.9075 H   0  0  0  0  0  0  0  0  0  0  0  0
    7.7669   -8.2660   12.5693 H   0  0  0  0  0  0  0  0  0  0  0  0
    8.5061   -8.0409   14.1589 H   0  0  0  0  0  0  0  0  0  0  0  0
    7.0364   -7.1614   13.7473 H   0  0  0  0  0  0  0  0  0  0  0  0
   -8.6528   -2.5263   -9.4313 H   0  0  0  0  0  0  0  0  0  0  0  0
   -8.3539   -3.7595  -10.6623 H   0  0  0  0  0  0  0  0  0  0  0  0
   -9.9343   -3.6601   -9.8920 H   0  0  0  0  0  0  0  0  0  0  0  0
    9.1494   -8.2240    4.9633 H   0  0  0  0  0  0  0  0  0  0  0  0
    7.5447   -8.2345    5.7402 H   0  0  0  0  0  0  0  0  0  0  0  0
    7.7185   -7.6513    4.0636 H   0  0  0  0  0  0  0  0  0  0  0  0
    8.2618   -3.9532    2.6379 H   0  0  0  0  0  0  0  0  0  0  0  0
    9.1970   -5.2060    3.5005 H   0  0  0  0  0  0  0  0  0  0  0  0
    8.5613   -5.5326    1.8658 H   0  0  0  0  0  0  0  0  0  0  0  0
   -7.6888    1.1901   -2.0557 H   0  0  0  0  0  0  0  0  0  0  0  0
   -8.5748    0.8002   -3.5542 H   0  0  0  0  0  0  0  0  0  0  0  0
   -9.4601    0.9781   -2.0156 H   0  0  0  0  0  0  0  0  0  0  0  0
   -5.9457   -1.2861    0.6068 H   0  0  0  0  0  0  0  0  0  0  0  0
   -6.4916    0.3967    0.8203 H   0  0  0  0  0  0  0  0  0  0  0  0
   -7.5888   -0.8084    0.0954 H   0  0  0  0  0  0  0  0  0  0  0  0
  1  2  2  0  0  0  0
  2  3  1  0  0  0  0
  2  9  1  0  0  0  0
  3109  1  0  0  0  0
  4 13  1  0  0  0  0
  4  3  2  0  0  0  0
  5  4  1  0  0  0  0
  6  5  2  0  0  0  0
  6  1  1  0  0  0  0
  7  1  1  0  0  0  0
  7  8  1  0  0  0  0
  8  9  2  0  0  0  0
  8 10  1  0  0  0  0
  9 12  1  0  0  0  0
 10 11  2  0  0  0  0
 11 12  1  0  0  0  0
 11 19  1  0  0  0  0
 13 21  1  0  0  0  0
 14 13  1  0  0  0  0
 15  5  1  0  0  0  0
 15 14  2  0  0  0  0
 16112  1  0  0  0  0
 16 14  1  0  0  0  0
 17 16  2  0  0  0  0
 18 17  1  0  0  0  0
 18 15  1  0  0  0  0
 19 29  1  0  0  0  0
 20 30  2  0  0  0  0
 20 17  1  0  0  0  0
 21 74  2  0  0  0  0
 21 70  1  0  0  0  0
 22 13  1  0  0  0  0
 22 79  2  0  0  0  0
 23  7  1  0  0  0  0
 23 64  2  0  0  0  0
 24  7  1  0  0  0  0
 25 19  2  0  0  0  0
 25 26  1  0  0  0  0
 26 27  2  0  0  0  0
 27 28  1  0  0  0  0
 27 41  1  0  0  0  0
 28 35  2  0  0  0  0
 29 37  2  0  0  0  0
 29 28  1  0  0  0  0
 30107  1  0  0  0  0
 31105  1  0  0  0  0
 31 30  1  0  0  0  0
 32 31  2  0  0  0  0
 33 32  1  0  0  0  0
 33 34  1  0  0  0  0
 34 20  1  0  0  0  0
 36 35  1  0  0  0  0
 36 46  1  0  0  0  0
 37 36  1  0  0  0  0
 38 39  1  0  0  0  0
 38 33  2  0  0  0  0
 39 40  1  0  0  0  0
 40 34  2  0  0  0  0
 41 42  2  0  0  0  0
 42 54  1  0  0  0  0
 42 51  1  0  0  0  0
 43 32  1  0  0  0  0
 43114  1  0  0  0  0
 44 43  1  6  0  0  0
 45115  1  0  0  0  0
 45 39  1  0  0  0  0
 46118  1  0  0  0  0
 46 98  1  0  0  0  0
 47 44  1  0  0  0  0
 48 49  1  0  0  0  0
 48 47  1  0  0  0  0
 49 50  1  0  0  0  0
 50 44  1  0  0  0  0
 51 52  1  0  0  0  0
 52 53  1  0  0  0  0
 52 55  1  0  0  0  0
 53 57  2  0  0  0  0
 54 53  1  0  0  0  0
 55 99  1  0  0  0  0
 55120  1  0  0  0  0
 56 51  2  0  0  0  0
 57 59  1  0  0  0  0
 58 57  1  0  0  0  0
 59 86  3  0  0  0  0
 60 23  1  0  0  0  0
 61 60  2  0  0  0  0
 61 62  1  0  0  0  0
 62 63  2  0  0  0  0
 63 64  1  0  0  0  0
 63123  1  0  0  0  0
 64124  1  0  0  0  0
 65 24  1  0  0  0  0
 65125  1  0  0  0  0
 66 65  2  0  0  0  0
 67 68  2  0  0  0  0
 67 66  1  0  0  0  0
 68 69  1  0  0  0  0
 69128  1  0  0  0  0
 69 24  2  0  0  0  0
 70 71  2  0  0  0  0
 71 72  1  0  0  0  0
 71130  1  0  0  0  0
 72 89  1  0  0  0  0
 73131  1  0  0  0  0
 73 72  2  0  0  0  0
 74 73  1  0  0  0  0
 75 22  1  0  0  0  0
 76 75  2  0  0  0  0
 76 77  1  0  0  0  0
 77 78  2  0  0  0  0
 78 79  1  0  0  0  0
 78135  1  0  0  0  0
 79136  1  0  0  0  0
 80 47  2  0  0  0  0
 81137  1  0  0  0  0
 81 48  1  0  0  0  0
 82 83  1  0  0  0  0
 82 49  2  0  0  0  0
 83 88  3  0  0  0  0
 84 82  1  0  0  0  0
 85 58  3  0  0  0  0
 87 84  3  0  0  0  0
 89140  1  0  0  0  0
 89 97  1  0  0  0  0
 90 96  1  0  0  0  0
 90 77  1  0  0  0  0
 90141  1  0  0  0  0
 91 94  1  0  0  0  0
 91 67  1  0  0  0  0
 92 62  1  0  0  0  0
 92145  1  0  0  0  0
 93 92  1  0  0  0  0
 93147  1  0  0  0  0
 94152  1  0  0  0  0
 94150  1  0  0  0  0
 95153  1  0  0  0  0
 95 45  1  0  0  0  0
 96156  1  0  0  0  0
 97161  1  0  0  0  0
 97160  1  0  0  0  0
 98163  1  0  0  0  0
 98164  1  0  0  0  0
 99167  1  0  0  0  0
 99166  1  0  0  0  0
100168  1  0  0  0  0
100 81  1  0  0  0  0
101 26  1  0  0  0  0
102101  1  0  0  0  0
102172  1  0  0  0  0
103 25  1  0  0  0  0
104103  1  0  0  0  0
104175  1  0  0  0  0
106105  1  0  0  0  0
106177  1  0  0  0  0
106179  1  0  0  0  0
107108  1  0  0  0  0
108180  1  0  0  0  0
108181  1  0  0  0  0
110  6  1  0  0  0  0
111 10  1  0  0  0  0
113 41  1  0  0  0  0
116 45  1  0  0  0  0
117 46  1  0  0  0  0
119 55  1  0  0  0  0
121 60  1  0  0  0  0
122 61  1  0  0  0  0
126 66  1  0  0  0  0
127 68  1  0  0  0  0
129 70  1  0  0  0  0
132 74  1  0  0  0  0
133 75  1  0  0  0  0
134 76  1  0  0  0  0
138 81  1  0  0  0  0
139 89  1  0  0  0  0
142 90  1  0  0  0  0
143 91  1  0  0  0  0
144 91  1  0  0  0  0
146 92  1  0  0  0  0
148 93  1  0  0  0  0
149 93  1  0  0  0  0
151 94  1  0  0  0  0
154 95  1  0  0  0  0
155 95  1  0  0  0  0
157 96  1  0  0  0  0
158 96  1  0  0  0  0
159 97  1  0  0  0  0
162 98  1  0  0  0  0
165 99  1  0  0  0  0
169100  1  0  0  0  0
170100  1  0  0  0  0
171102  1  0  0  0  0
173102  1  0  0  0  0
174104  1  0  0  0  0
176104  1  0  0  0  0
178106  1  0  0  0  0
182108  1  0  0  0  0
M  RAD  2  43   2  44   2
M  END
