SCF done       -249.213198218157          0.000347772973
 OpenBabel12282109493D

158172  0  0  0  0  0  0  0  0999 V2000
    2.7034   -1.7426   -0.3849 C   0  0  0  0  0  0  0  0  0  0  0  0
    2.8226   -1.0310    0.8321 C   0  0  0  0  0  0  0  0  0  0  0  0
    1.9013   -0.0566    1.2067 C   0  0  0  0  0  0  0  0  0  0  0  0
    0.8481    0.1749    0.3533 C   0  0  0  0  0  0  0  0  0  0  0  0
    0.6983   -0.5769   -0.8357 C   0  0  0  0  0  0  0  0  0  0  0  0
    1.6319   -1.5350   -1.2216 C   0  0  0  0  0  0  0  0  0  0  0  0
    3.8536   -2.7226   -0.5562 C   0  0  0  0  0  0  0  0  0  0  0  0
    4.5858   -2.5359    0.7489 C   0  0  0  0  0  0  0  0  0  0  0  0
    3.9828   -1.5364    1.4959 C   0  0  0  0  0  0  0  0  0  0  0  0
    5.7067   -3.0819    1.3653 C   0  0  0  0  0  0  0  0  0  0  0  0
    5.9550   -2.5080    2.5991 C   0  0  0  0  0  0  0  0  0  0  0  0
    4.7861   -1.2553    2.9845 S   0  0  0  0  0  0  0  0  0  0  0  0
   -0.2924    1.1677    0.5157 C   0  0  0  0  0  0  0  0  0  0  0  0
   -1.1456    0.8217   -0.6789 C   0  0  0  0  0  0  0  0  0  0  0  0
   -0.5252   -0.1550   -1.4417 C   0  0  0  0  0  0  0  0  0  0  0  0
   -2.3576    1.2474   -1.2121 C   0  0  0  0  0  0  0  0  0  0  0  0
   -2.6752    0.5821   -2.3825 C   0  0  0  0  0  0  0  0  0  0  0  0
   -1.4338   -0.5753   -2.8338 S   0  0  0  0  0  0  0  0  0  0  0  0
    6.9913   -2.8511    3.5183 C   0  0  0  0  0  0  0  0  0  0  0  0
   -3.8535    0.7387   -3.1725 C   0  0  0  0  0  0  0  0  0  0  0  0
   -0.9652    0.9358    1.8528 C   0  0  0  0  0  0  0  0  0  0  0  0
    0.1413    2.6143    0.3523 C   0  0  0  0  0  0  0  0  0  0  0  0
    3.2906   -4.1132   -0.7654 C   0  0  0  0  0  0  0  0  0  0  0  0
    4.8144   -2.3386   -1.6681 C   0  0  0  0  0  0  0  0  0  0  0  0
    7.1474   -2.2300    4.7554 C   0  0  0  0  0  0  0  0  0  0  0  0
    8.1347   -2.5710    5.6720 C   0  0  0  0  0  0  0  0  0  0  0  0
    9.0689   -3.5771    5.4306 C   0  0  0  0  0  0  0  0  0  0  0  0
    8.9420   -4.2227    4.1721 C   0  0  0  0  0  0  0  0  0  0  0  0
    7.9289   -3.8736    3.2333 C   0  0  0  0  0  0  0  0  0  0  0  0
   -4.0979    0.0029   -4.3297 C   0  0  0  0  0  0  0  0  0  0  0  0
   -5.2494    0.1301   -5.0975 C   0  0  0  0  0  0  0  0  0  0  0  0
   -6.2742    1.0178   -4.7735 C   0  0  0  0  0  0  0  0  0  0  0  0
   -6.0510    1.7880   -3.6016 C   0  0  0  0  0  0  0  0  0  0  0  0
   -4.8713    1.6561   -2.8139 C   0  0  0  0  0  0  0  0  0  0  0  0
    9.6663   -5.2102    3.6290 N   0  0  0  0  0  0  0  0  0  0  0  0
    9.1143   -5.4134    2.4647 N   0  0  0  0  0  0  0  0  0  0  0  0
    8.0881   -4.6678    2.1636 N   0  0  0  0  0  0  0  0  0  0  0  0
   -6.8177    2.7196   -3.0191 N   0  0  0  0  0  0  0  0  0  0  0  0
   -6.1313    3.0975   -1.9762 N   0  0  0  0  0  0  0  0  0  0  0  0
   -4.9794    2.5160   -1.7896 N   0  0  0  0  0  0  0  0  0  0  0  0
   10.1177   -4.0339    6.2826 C   0  0  0  0  0  0  0  0  0  0  0  0
   10.5283   -3.6929    7.5323 C   0  0  0  0  0  0  0  0  0  0  0  0
   -7.5025    1.2417   -5.4631 C   0  0  0  0  0  0  0  0  0  0  0  0
   -8.0726    0.6944   -6.5685 C   0  0  0  0  0  0  0  0  0  0  0  0
   -6.6404    4.0706   -1.0529 C   0  0  0  0  0  0  0  0  0  0  0  0
    9.5841   -6.4402    1.5793 C   0  0  0  0  0  0  0  0  0  0  0  0
   -7.6390   -0.3553   -7.4882 C   0  0  0  0  0  0  0  0  0  0  0  0
   -8.6002   -0.5682   -8.4654 N   0  0  0  0  0  0  0  0  0  0  0  0
   -9.7446    0.1753   -8.4420 C   0  0  0  0  0  0  0  0  0  0  0  0
   -9.6615    1.2969   -7.0638 S   0  0  0  0  0  0  0  0  0  0  0  0
   10.0435   -2.7097    8.4987 C   0  0  0  0  0  0  0  0  0  0  0  0
   10.8080   -2.7521    9.6554 N   0  0  0  0  0  0  0  0  0  0  0  0
   11.8365   -3.6460    9.7371 C   0  0  0  0  0  0  0  0  0  0  0  0
   11.9115   -4.5617    8.2139 S   0  0  0  0  0  0  0  0  0  0  0  0
   10.5002   -1.8896   10.7841 C   0  0  0  0  0  0  0  0  0  0  0  0
    9.1213   -1.9312    8.3790 O   0  0  0  0  0  0  0  0  0  0  0  0
   12.5791   -3.7974   10.6647 O   0  0  0  0  0  0  0  0  0  0  0  0
    2.9405   -4.5333   -2.0430 C   0  0  0  0  0  0  0  0  0  0  0  0
    2.3815   -5.7806   -2.2434 C   0  0  0  0  0  0  0  0  0  0  0  0
    2.1532   -6.6398   -1.1762 C   0  0  0  0  0  0  0  0  0  0  0  0
    2.5008   -6.2140    0.0984 C   0  0  0  0  0  0  0  0  0  0  0  0
    3.0565   -4.9645    0.3048 C   0  0  0  0  0  0  0  0  0  0  0  0
    5.7951   -3.2456   -2.0522 C   0  0  0  0  0  0  0  0  0  0  0  0
    6.7128   -2.9159   -3.0300 C   0  0  0  0  0  0  0  0  0  0  0  0
    6.6832   -1.6701   -3.6443 C   0  0  0  0  0  0  0  0  0  0  0  0
    5.7093   -0.7641   -3.2489 C   0  0  0  0  0  0  0  0  0  0  0  0
    4.7879   -1.0890   -2.2692 C   0  0  0  0  0  0  0  0  0  0  0  0
   -0.4752    1.5599    2.9936 C   0  0  0  0  0  0  0  0  0  0  0  0
   -1.0507    1.3211    4.2267 C   0  0  0  0  0  0  0  0  0  0  0  0
   -2.1255    0.4510    4.3560 C   0  0  0  0  0  0  0  0  0  0  0  0
   -2.6075   -0.1746    3.2143 C   0  0  0  0  0  0  0  0  0  0  0  0
   -2.0327    0.0583    1.9783 C   0  0  0  0  0  0  0  0  0  0  0  0
   -0.7626    3.6261    0.6553 C   0  0  0  0  0  0  0  0  0  0  0  0
   -0.4201    4.9514    0.4742 C   0  0  0  0  0  0  0  0  0  0  0  0
    0.8291    5.3039   -0.0216 C   0  0  0  0  0  0  0  0  0  0  0  0
    1.7247    4.2900   -0.3297 C   0  0  0  0  0  0  0  0  0  0  0  0
    1.3862    2.9602   -0.1516 C   0  0  0  0  0  0  0  0  0  0  0  0
   -6.6043   -0.9878   -7.4711 O   0  0  0  0  0  0  0  0  0  0  0  0
   -8.4176   -1.5950   -9.4780 C   0  0  0  0  0  0  0  0  0  0  0  0
   -2.7810    0.2325    5.6893 C   0  0  0  0  0  0  0  0  0  0  0  0
    1.2166    6.7467   -0.1741 C   0  0  0  0  0  0  0  0  0  0  0  0
    7.6471   -1.3312   -4.7447 C   0  0  0  0  0  0  0  0  0  0  0  0
    1.5914   -8.0136   -1.4047 C   0  0  0  0  0  0  0  0  0  0  0  0
    2.7171   -9.0133   -1.6773 C   0  0  0  0  0  0  0  0  0  0  0  0
    7.0540   -1.7030   -6.1053 C   0  0  0  0  0  0  0  0  0  0  0  0
   -3.9051    1.2479    5.9051 C   0  0  0  0  0  0  0  0  0  0  0  0
    1.8445    7.2718    1.1186 C   0  0  0  0  0  0  0  0  0  0  0  0
  -10.6579    0.1055   -9.2140 O   0  0  0  0  0  0  0  0  0  0  0  0
    9.6170   -2.6056   11.7976 C   0  0  0  0  0  0  0  0  0  0  0  0
   -9.0575   -2.9087   -9.0481 C   0  0  0  0  0  0  0  0  0  0  0  0
   -7.2970    3.3807    0.1392 C   0  0  0  0  0  0  0  0  0  0  0  0
    8.7665   -7.7155    1.7615 C   0  0  0  0  0  0  0  0  0  0  0  0
    2.0158    0.4849    2.1331 H   0  0  0  0  0  0  0  0  0  0  0  0
    1.5069   -2.0896   -2.1388 H   0  0  0  0  0  0  0  0  0  0  0  0
    6.3260   -3.8652    0.9706 H   0  0  0  0  0  0  0  0  0  0  0  0
   -3.0062    1.9922   -0.7909 H   0  0  0  0  0  0  0  0  0  0  0  0
    6.4569   -1.4412    5.0183 H   0  0  0  0  0  0  0  0  0  0  0  0
    8.1740   -2.0375    6.6064 H   0  0  0  0  0  0  0  0  0  0  0  0
   -3.3499   -0.7105   -4.6453 H   0  0  0  0  0  0  0  0  0  0  0  0
   -5.3520   -0.4854   -5.9750 H   0  0  0  0  0  0  0  0  0  0  0  0
   10.6982   -4.8263    5.8213 H   0  0  0  0  0  0  0  0  0  0  0  0
   -8.1000    2.0120   -4.9862 H   0  0  0  0  0  0  0  0  0  0  0  0
   -5.8026    4.6874   -0.7207 H   0  0  0  0  0  0  0  0  0  0  0  0
   -7.3658    4.6806   -1.5936 H   0  0  0  0  0  0  0  0  0  0  0  0
    9.4878   -6.0693    0.5567 H   0  0  0  0  0  0  0  0  0  0  0  0
   10.6339   -6.6181    1.8182 H   0  0  0  0  0  0  0  0  0  0  0  0
   11.4461   -1.5940   11.2432 H   0  0  0  0  0  0  0  0  0  0  0  0
    9.9882   -1.0141   10.3780 H   0  0  0  0  0  0  0  0  0  0  0  0
    3.1180   -3.8836   -2.8881 H   0  0  0  0  0  0  0  0  0  0  0  0
    2.1155   -6.0910   -3.2440 H   0  0  0  0  0  0  0  0  0  0  0  0
    2.3300   -6.8662    0.9434 H   0  0  0  0  0  0  0  0  0  0  0  0
    3.3117   -4.6524    1.3071 H   0  0  0  0  0  0  0  0  0  0  0  0
    5.8307   -4.2198   -1.5865 H   0  0  0  0  0  0  0  0  0  0  0  0
    7.4661   -3.6349   -3.3197 H   0  0  0  0  0  0  0  0  0  0  0  0
    5.6711    0.2124   -3.7106 H   0  0  0  0  0  0  0  0  0  0  0  0
    4.0432   -0.3635   -1.9765 H   0  0  0  0  0  0  0  0  0  0  0  0
    0.3553    2.2466    2.9139 H   0  0  0  0  0  0  0  0  0  0  0  0
   -0.6573    1.8162    5.1033 H   0  0  0  0  0  0  0  0  0  0  0  0
   -3.4415   -0.8579    3.2928 H   0  0  0  0  0  0  0  0  0  0  0  0
   -2.4208   -0.4460    1.1053 H   0  0  0  0  0  0  0  0  0  0  0  0
   -1.7375    3.3698    1.0438 H   0  0  0  0  0  0  0  0  0  0  0  0
   -1.1341    5.7256    0.7176 H   0  0  0  0  0  0  0  0  0  0  0  0
    2.7011    4.5412   -0.7193 H   0  0  0  0  0  0  0  0  0  0  0  0
    2.1001    2.1906   -0.4057 H   0  0  0  0  0  0  0  0  0  0  0  0
   -8.8726   -1.2322  -10.4022 H   0  0  0  0  0  0  0  0  0  0  0  0
   -7.3402   -1.7176   -9.6105 H   0  0  0  0  0  0  0  0  0  0  0  0
   -3.1939   -0.7771    5.7383 H   0  0  0  0  0  0  0  0  0  0  0  0
   -2.0426    0.3390    6.4864 H   0  0  0  0  0  0  0  0  0  0  0  0
    1.9333    6.8532   -0.9908 H   0  0  0  0  0  0  0  0  0  0  0  0
    0.3342    7.3437   -0.4137 H   0  0  0  0  0  0  0  0  0  0  0  0
    7.8673   -0.2619   -4.7285 H   0  0  0  0  0  0  0  0  0  0  0  0
    8.5826   -1.8751   -4.5990 H   0  0  0  0  0  0  0  0  0  0  0  0
    1.0293   -8.3352   -0.5257 H   0  0  0  0  0  0  0  0  0  0  0  0
    0.9110   -7.9973   -2.2585 H   0  0  0  0  0  0  0  0  0  0  0  0
    3.3982   -9.0558   -0.8301 H   0  0  0  0  0  0  0  0  0  0  0  0
    2.3111  -10.0078   -1.8470 H   0  0  0  0  0  0  0  0  0  0  0  0
    3.2835   -8.7143   -2.5566 H   0  0  0  0  0  0  0  0  0  0  0  0
    6.1270   -1.1598   -6.2746 H   0  0  0  0  0  0  0  0  0  0  0  0
    7.7504   -1.4598   -6.9045 H   0  0  0  0  0  0  0  0  0  0  0  0
    6.8376   -2.7684   -6.1448 H   0  0  0  0  0  0  0  0  0  0  0  0
   -4.6586    1.1486    5.1268 H   0  0  0  0  0  0  0  0  0  0  0  0
   -4.3803    1.0913    6.8707 H   0  0  0  0  0  0  0  0  0  0  0  0
   -3.5107    2.2611    5.8719 H   0  0  0  0  0  0  0  0  0  0  0  0
    2.7346    6.6980    1.3667 H   0  0  0  0  0  0  0  0  0  0  0  0
    2.1241    8.3171    1.0092 H   0  0  0  0  0  0  0  0  0  0  0  0
    1.1409    7.1846    1.9436 H   0  0  0  0  0  0  0  0  0  0  0  0
   10.1277   -3.4837   12.1860 H   0  0  0  0  0  0  0  0  0  0  0  0
    9.3933   -1.9371   12.6240 H   0  0  0  0  0  0  0  0  0  0  0  0
    8.6830   -2.9129   11.3325 H   0  0  0  0  0  0  0  0  0  0  0  0
  -10.1261   -2.7739   -8.8969 H   0  0  0  0  0  0  0  0  0  0  0  0
   -8.9054   -3.6588   -9.8188 H   0  0  0  0  0  0  0  0  0  0  0  0
   -8.6080   -3.2608   -8.1224 H   0  0  0  0  0  0  0  0  0  0  0  0
   -6.5737    2.7508    0.6514 H   0  0  0  0  0  0  0  0  0  0  0  0
   -7.6717    4.1246    0.8363 H   0  0  0  0  0  0  0  0  0  0  0  0
   -8.1275    2.7633   -0.1944 H   0  0  0  0  0  0  0  0  0  0  0  0
    7.7181   -7.5215    1.5479 H   0  0  0  0  0  0  0  0  0  0  0  0
    9.1267   -8.4850    1.0849 H   0  0  0  0  0  0  0  0  0  0  0  0
    8.8565   -8.0767    2.7831 H   0  0  0  0  0  0  0  0  0  0  0  0
  1  2  2  0  0  0  0
  2  3  1  0  0  0  0
  2  9  1  0  0  0  0
  3 93  1  0  0  0  0
  4 13  1  0  0  0  0
  4  3  2  0  0  0  0
  5  4  1  0  0  0  0
  6  5  2  0  0  0  0
  6  1  1  0  0  0  0
  7  1  1  0  0  0  0
  7  8  1  0  0  0  0
  8 10  1  0  0  0  0
  8  9  2  0  0  0  0
  9 12  1  0  0  0  0
 10 11  2  0  0  0  0
 11 12  1  0  0  0  0
 11 19  1  0  0  0  0
 13 21  1  0  0  0  0
 14 13  1  0  0  0  0
 15  5  1  0  0  0  0
 15 14  2  0  0  0  0
 16 96  1  0  0  0  0
 16 14  1  0  0  0  0
 17 16  2  0  0  0  0
 18 17  1  0  0  0  0
 18 15  1  0  0  0  0
 19 25  2  0  0  0  0
 20 34  1  0  0  0  0
 20 17  1  0  0  0  0
 21 72  2  0  0  0  0
 21 68  1  0  0  0  0
 22 13  1  0  0  0  0
 22 73  2  0  0  0  0
 23  7  1  0  0  0  0
 23 62  2  0  0  0  0
 24  7  1  0  0  0  0
 25 97  1  0  0  0  0
 25 26  1  0  0  0  0
 26 98  1  0  0  0  0
 27 26  2  0  0  0  0
 27 41  1  0  0  0  0
 28 27  1  0  0  0  0
 29 19  1  0  0  0  0
 29 28  1  0  0  0  0
 30 20  2  0  0  0  0
 31 32  2  0  0  0  0
 31 30  1  0  0  0  0
 32 33  1  0  0  0  0
 33 38  2  0  0  0  0
 33 34  1  0  0  0  0
 34 40  2  0  0  0  0
 35 28  2  0  0  0  0
 36 35  1  0  0  0  0
 37 36  1  0  0  0  0
 37 29  2  0  0  0  0
 38 39  1  0  0  0  0
 39 40  1  0  0  0  0
 39 45  1  0  0  0  0
 41 42  2  0  0  0  0
 42 54  1  0  0  0  0
 42 51  1  0  0  0  0
 43102  1  0  0  0  0
 43 32  1  0  0  0  0
 44 43  2  0  0  0  0
 45103  1  0  0  0  0
 45 91  1  0  0  0  0
 46 92  1  0  0  0  0
 46106  1  0  0  0  0
 46 36  1  0  0  0  0
 47 78  2  0  0  0  0
 47 44  1  0  0  0  0
 48 49  1  0  0  0  0
 48 47  1  0  0  0  0
 49 50  1  0  0  0  0
 50 44  1  0  0  0  0
 51 52  1  0  0  0  0
 52 53  1  0  0  0  0
 52 55  1  0  0  0  0
 53 57  2  0  0  0  0
 54 53  1  0  0  0  0
 55107  1  0  0  0  0
 55 89  1  0  0  0  0
 56 51  2  0  0  0  0
 58 23  1  0  0  0  0
 59 58  2  0  0  0  0
 59 60  1  0  0  0  0
 60 61  2  0  0  0  0
 61 62  1  0  0  0  0
 61111  1  0  0  0  0
 62112  1  0  0  0  0
 63 24  1  0  0  0  0
 63113  1  0  0  0  0
 64 63  2  0  0  0  0
 65 66  2  0  0  0  0
 65 64  1  0  0  0  0
 66 67  1  0  0  0  0
 67116  1  0  0  0  0
 67 24  2  0  0  0  0
 68 69  2  0  0  0  0
 69 70  1  0  0  0  0
 69118  1  0  0  0  0
 70 80  1  0  0  0  0
 71119  1  0  0  0  0
 71 70  2  0  0  0  0
 72 71  1  0  0  0  0
 73121  1  0  0  0  0
 74 73  1  0  0  0  0
 74122  1  0  0  0  0
 75 74  2  0  0  0  0
 76 77  2  0  0  0  0
 76 75  1  0  0  0  0
 77 22  1  0  0  0  0
 79 90  1  0  0  0  0
 79 48  1  0  0  0  0
 80127  1  0  0  0  0
 80 86  1  0  0  0  0
 80128  1  0  0  0  0
 81 75  1  0  0  0  0
 81 87  1  0  0  0  0
 82131  1  0  0  0  0
 82132  1  0  0  0  0
 82 65  1  0  0  0  0
 83 60  1  0  0  0  0
 83133  1  0  0  0  0
 84 83  1  0  0  0  0
 84135  1  0  0  0  0
 85 82  1  0  0  0  0
 86142  1  0  0  0  0
 87144  1  0  0  0  0
 87146  1  0  0  0  0
 88 49  2  0  0  0  0
 89147  1  0  0  0  0
 89148  1  0  0  0  0
 90150  1  0  0  0  0
 90152  1  0  0  0  0
 91153  1  0  0  0  0
 91154  1  0  0  0  0
 92158  1  0  0  0  0
 94  6  1  0  0  0  0
 95 10  1  0  0  0  0
 99 30  1  0  0  0  0
100 31  1  0  0  0  0
101 41  1  0  0  0  0
104 45  1  0  0  0  0
105 46  1  0  0  0  0
108 55  1  0  0  0  0
109 58  1  0  0  0  0
110 59  1  0  0  0  0
114 64  1  0  0  0  0
115 66  1  0  0  0  0
117 68  1  0  0  0  0
120 72  1  0  0  0  0
123 76  1  0  0  0  0
124 77  1  0  0  0  0
125 79  1  0  0  0  0
126 79  1  0  0  0  0
129 81  1  0  0  0  0
130 81  1  0  0  0  0
134 83  1  0  0  0  0
136 84  1  0  0  0  0
137 84  1  0  0  0  0
138 85  1  0  0  0  0
139 85  1  0  0  0  0
140 85  1  0  0  0  0
141 86  1  0  0  0  0
143 86  1  0  0  0  0
145 87  1  0  0  0  0
149 89  1  0  0  0  0
151 90  1  0  0  0  0
155 91  1  0  0  0  0
156 92  1  0  0  0  0
157 92  1  0  0  0  0
M  END
