SCF done       -198.946035123318          0.000587796002
 OpenBabel12282109493D

101113  0  0  1  0  0  0  0  0999 V2000
   -0.4864   -3.2621    0.2296 C   0  0  1  0  0  0  0  0  0  0  0  0
   -0.7501   -1.9656    0.7120 C   0  0  0  0  0  0  0  0  0  0  0  0
   -2.4616   -1.5997    0.8441 S   0  0  0  0  0  0  0  0  0  0  0  0
   -2.8102   -3.1866    0.2535 C   0  0  0  0  0  0  0  0  0  0  0  0
   -1.6735   -3.9522   -0.0229 C   0  0  0  0  0  0  0  0  0  0  0  0
   -2.0414   -5.1799   -0.5047 N   0  0  0  0  0  0  0  0  0  0  0  0
   -0.9739   -6.0628   -0.9196 C   0  0  0  0  0  0  0  0  0  0  0  0
   -3.4255   -5.2431   -0.5275 C   0  0  0  0  0  0  0  0  0  0  0  0
   -3.9164   -3.9759   -0.0734 C   0  0  0  0  0  0  0  0  0  0  0  0
   -5.2881   -3.6443   -0.0447 C   0  0  0  0  0  0  0  0  0  0  0  0
   -5.8590   -2.5096    0.3298 N   0  0  0  0  0  0  0  0  0  0  0  0
   -7.4586   -2.6527    0.1244 S   0  0  0  0  0  0  0  0  0  0  0  0
   -7.4813   -4.1662   -0.4477 N   0  0  0  0  0  0  0  0  0  0  0  0
   -6.2356   -4.6116   -0.4976 C   0  0  0  0  0  0  0  0  0  0  0  0
   -5.7629   -5.8806   -0.8941 C   0  0  0  0  0  0  0  0  0  0  0  0
   -4.3845   -6.2378   -0.8884 C   0  0  0  0  0  0  0  0  0  0  0  0
   -4.3066   -7.5771   -1.2375 N   0  0  0  0  0  0  0  0  0  0  0  0
   -3.1511   -8.4206   -1.3882 C   0  0  0  0  0  0  0  0  0  0  0  0
   -2.7057   -8.4926   -2.8508 C   0  0  0  0  0  0  0  0  0  0  0  0
   -5.5731   -8.0543   -1.4973 C   0  0  0  0  0  0  0  0  0  0  0  0
   -6.4847   -7.0083   -1.2932 C   0  0  0  0  0  0  0  0  0  0  0  0
   -8.1439   -7.3871   -1.5697 S   0  0  0  0  0  0  0  0  0  0  0  0
   -7.6376   -9.0011   -1.9666 C   0  0  0  0  0  0  0  0  0  0  0  0
   -6.2378   -9.2411   -1.8767 C   0  0  0  0  0  0  0  0  0  0  0  0
   -0.3849   -6.8351    0.2614 C   0  0  0  0  0  0  0  0  0  0  0  0
   -9.8773  -13.4531   -3.4838 C   0  0  0  0  0  0  0  0  0  0  0  0
   -9.6505  -14.7570   -3.8649 C   0  0  0  0  0  0  0  0  0  0  0  0
  -10.7135  -15.6604   -4.2716 C   0  0  0  0  0  0  0  0  0  0  0  0
  -12.0661  -15.4388   -4.2418 C   0  0  0  0  0  0  0  0  0  0  0  0
  -13.0290  -16.3818   -4.6626 C   0  0  0  0  0  0  0  0  0  0  0  0
  -13.8667  -17.0966   -4.9862 N   0  0  0  0  0  0  0  0  0  0  0  0
  -12.7254  -14.2777   -3.7831 C   0  0  0  0  0  0  0  0  0  0  0  0
  -13.3606  -13.3883   -3.4291 N   0  0  0  0  0  0  0  0  0  0  0  0
  -10.0932  -16.9117   -4.7104 C   0  0  0  0  0  0  0  0  0  0  0  0
  -10.6343  -18.0797   -5.2254 C   0  0  0  0  0  0  0  0  0  0  0  0
   -9.7668  -19.1122   -5.5504 C   0  0  0  0  0  0  0  0  0  0  0  0
  -10.2702  -20.2460   -6.0521 F   0  0  0  0  0  0  0  0  0  0  0  0
   -8.3887  -18.9981   -5.3688 C   0  0  0  0  0  0  0  0  0  0  0  0
   -7.8407  -17.8342   -4.8558 C   0  0  0  0  0  0  0  0  0  0  0  0
   -8.7055  -16.8063   -4.5365 C   0  0  0  0  0  0  0  0  0  0  0  0
   -8.3693  -15.4733   -3.9899 C   0  0  0  0  0  0  0  0  0  0  0  0
   -7.2425  -15.1036   -3.7182 O   0  0  0  0  0  0  0  0  0  0  0  0
   -5.9887  -10.5518   -2.2297 N   0  0  0  0  0  0  0  0  0  0  0  0
   -7.2007  -11.1358   -2.5106 C   0  0  0  0  0  0  0  0  0  0  0  0
   -8.2423  -10.1850   -2.3684 C   0  0  1  0  0  0  0  0  0  0  0  0
   -4.7990  -11.3615   -2.1135 C   0  0  0  0  0  0  0  0  0  0  0  0
   -4.6222  -11.8987   -0.6934 C   0  0  0  0  0  0  0  0  0  0  0  0
   -7.6312  -12.3906   -2.9044 C   0  0  0  0  0  0  0  0  0  0  0  0
   -9.0106  -12.4294   -3.0834 C   0  0  1  0  0  0  0  0  0  0  0  0
   -9.7732  -10.8596   -2.7358 S   0  0  0  0  0  0  0  0  0  0  0  0
   -7.5882  -20.0213   -5.6948 F   0  0  0  0  0  0  0  0  0  0  0  0
    4.3538   -3.3008    0.1077 C   0  0  0  0  0  0  0  0  0  0  0  0
    3.5526   -4.1649   -0.2054 O   0  0  0  0  0  0  0  0  0  0  0  0
    5.8243   -3.4044   -0.0000 C   0  0  0  0  0  0  0  0  0  0  0  0
    6.5777   -4.4584   -0.4757 C   0  0  0  0  0  0  0  0  0  0  0  0
    7.9557   -4.3125   -0.4790 C   0  0  0  0  0  0  0  0  0  0  0  0
    8.5463   -3.1376   -0.0148 C   0  0  0  0  0  0  0  0  0  0  0  0
    9.8790   -3.0228   -0.0307 F   0  0  0  0  0  0  0  0  0  0  0  0
    7.7875   -2.0793    0.4647 C   0  0  0  0  0  0  0  0  0  0  0  0
    6.4088   -2.2172    0.4713 C   0  0  0  0  0  0  0  0  0  0  0  0
    5.3437   -1.3080    0.9013 C   0  0  0  0  0  0  0  0  0  0  0  0
    5.5454   -0.0633    1.4418 C   0  0  0  0  0  0  0  0  0  0  0  0
    4.5370    0.8229    1.8743 C   0  0  0  0  0  0  0  0  0  0  0  0
    3.7783    1.6006    2.2488 N   0  0  0  0  0  0  0  0  0  0  0  0
    6.8175    0.5109    1.6503 C   0  0  0  0  0  0  0  0  0  0  0  0
    7.8195    1.0352    1.8467 N   0  0  0  0  0  0  0  0  0  0  0  0
    4.0822   -1.9756    0.6591 C   0  0  0  0  0  0  0  0  0  0  0  0
    2.8387   -1.4327    0.8996 C   0  0  0  0  0  0  0  0  0  0  0  0
    8.7263   -5.3092   -0.9329 F   0  0  0  0  0  0  0  0  0  0  0  0
    0.3862   -1.2238    0.9934 C   0  0  0  0  0  0  0  0  0  0  0  0
    1.5591   -1.9530    0.7117 C   0  0  1  0  0  0  0  0  0  0  0  0
    1.2034   -3.5727    0.1041 S   0  0  0  0  0  0  0  0  0  0  0  0
    0.3335    0.1898    1.4714 C   0  0  0  0  0  0  0  0  0  0  0  0
    0.4656    1.1653    0.2982 C   0  0  0  0  0  0  0  0  0  0  0  0
   -1.3112   -6.7201   -1.7148 H   0  0  0  0  0  0  0  0  0  0  0  0
   -0.1857   -5.4289   -1.3382 H   0  0  0  0  0  0  0  0  0  0  0  0
   -2.3562   -8.0612   -0.7428 H   0  0  0  0  0  0  0  0  0  0  0  0
   -3.4219   -9.4145   -1.0286 H   0  0  0  0  0  0  0  0  0  0  0  0
   -3.5031   -8.8979   -3.4702 H   0  0  0  0  0  0  0  0  0  0  0  0
   -2.4726   -7.5027   -3.2380 H   0  0  0  0  0  0  0  0  0  0  0  0
   -1.8263   -9.1242   -2.9486 H   0  0  0  0  0  0  0  0  0  0  0  0
   -1.1533   -7.3656    0.8210 H   0  0  0  0  0  0  0  0  0  0  0  0
    0.3511   -7.5492   -0.0964 H   0  0  0  0  0  0  0  0  0  0  0  0
    0.1109   -6.1473    0.9408 H   0  0  0  0  0  0  0  0  0  0  0  0
  -10.9126  -13.1356   -3.5081 H   0  0  0  0  0  0  0  0  0  0  0  0
  -11.6897  -18.2220   -5.3870 H   0  0  0  0  0  0  0  0  0  0  0  0
   -6.7761  -17.7384   -4.7138 H   0  0  0  0  0  0  0  0  0  0  0  0
   -4.9183  -12.1996   -2.8043 H   0  0  0  0  0  0  0  0  0  0  0  0
   -3.9249  -10.7945   -2.4309 H   0  0  0  0  0  0  0  0  0  0  0  0
   -5.4623  -12.5365   -0.4306 H   0  0  0  0  0  0  0  0  0  0  0  0
   -3.7089  -12.4835   -0.6278 H   0  0  0  0  0  0  0  0  0  0  0  0
   -4.5735  -11.0866    0.0299 H   0  0  0  0  0  0  0  0  0  0  0  0
   -7.0161  -13.2558   -3.0658 H   0  0  0  0  0  0  0  0  0  0  0  0
    6.1165   -5.3648   -0.8340 H   0  0  0  0  0  0  0  0  0  0  0  0
    8.2944   -1.1939    0.8113 H   0  0  0  0  0  0  0  0  0  0  0  0
    2.8360   -0.4270    1.2963 H   0  0  0  0  0  0  0  0  0  0  0  0
   -0.6304    0.3488    1.9587 H   0  0  0  0  0  0  0  0  0  0  0  0
    1.1217    0.3891    2.1988 H   0  0  0  0  0  0  0  0  0  0  0  0
   -0.3392    1.0089   -0.4162 H   0  0  0  0  0  0  0  0  0  0  0  0
    0.4156    2.1869    0.6633 H   0  0  0  0  0  0  0  0  0  0  0  0
    1.4158    1.0282   -0.2127 H   0  0  0  0  0  0  0  0  0  0  0  0
  1  5  1  6  0  0  0
  1  2  1  0  0  0  0
  2  3  1  0  0  0  0
  2 70  2  0  0  0  0
  4  3  1  0  0  0  0
  5  4  2  0  0  0  0
  6  5  1  0  0  0  0
  7  6  1  0  0  0  0
  7 25  1  0  0  0  0
  8  6  1  0  0  0  0
  8  9  2  0  0  0  0
  9 10  1  0  0  0  0
  9  4  1  0  0  0  0
 10 11  2  0  0  0  0
 12 11  1  0  0  0  0
 13 12  1  0  0  0  0
 14 13  2  0  0  0  0
 14 10  1  0  0  0  0
 15 16  2  0  0  0  0
 15 14  1  0  0  0  0
 16  8  1  0  0  0  0
 17 16  1  0  0  0  0
 18 17  1  0  0  0  0
 18 78  1  0  0  0  0
 18 77  1  0  0  0  0
 19 18  1  0  0  0  0
 20 21  2  0  0  0  0
 20 17  1  0  0  0  0
 21 15  1  0  0  0  0
 22 21  1  0  0  0  0
 23 24  2  0  0  0  0
 23 22  1  0  0  0  0
 24 20  1  0  0  0  0
 25 82  1  0  0  0  0
 25 84  1  0  0  0  0
 27 26  2  0  0  0  0
 28 29  2  0  0  0  0
 28 27  1  0  0  0  0
 29 32  1  0  0  0  0
 30 29  1  0  0  0  0
 31 30  3  0  0  0  0
 32 33  3  0  0  0  0
 34 40  1  0  0  0  0
 34 28  1  0  0  0  0
 35 34  2  0  0  0  0
 36 38  2  0  0  0  0
 36 35  1  0  0  0  0
 37 36  1  0  0  0  0
 38 39  1  0  0  0  0
 39 87  1  0  0  0  0
 39 40  2  0  0  0  0
 40 41  1  0  0  0  0
 41 27  1  0  0  0  0
 41 42  2  0  0  0  0
 43 46  1  0  0  0  0
 43 24  1  0  0  0  0
 44 45  1  0  0  0  0
 44 43  1  0  0  0  0
 45 50  1  1  0  0  0
 45 23  1  0  0  0  0
 46 47  1  0  0  0  0
 47 91  1  0  0  0  0
 47 90  1  0  0  0  0
 47 92  1  0  0  0  0
 48 44  2  0  0  0  0
 49 26  1  6  0  0  0
 49 48  1  0  0  0  0
 49 50  1  0  0  0  0
 51 38  1  0  0  0  0
 52 67  1  0  0  0  0
 53 52  2  0  0  0  0
 54 52  1  0  0  0  0
 54 60  2  0  0  0  0
 55 54  1  0  0  0  0
 56 55  2  0  0  0  0
 56 57  1  0  0  0  0
 57 59  2  0  0  0  0
 58 57  1  0  0  0  0
 59 60  1  0  0  0  0
 59 95  1  0  0  0  0
 60 61  1  0  0  0  0
 61 62  2  0  0  0  0
 62 65  1  0  0  0  0
 62 63  1  0  0  0  0
 63 64  3  0  0  0  0
 65 66  3  0  0  0  0
 67 68  2  0  0  0  0
 67 61  1  0  0  0  0
 68 96  1  0  0  0  0
 69 56  1  0  0  0  0
 70 73  1  0  0  0  0
 71 68  1  6  0  0  0
 71 70  1  0  0  0  0
 72  1  1  0  0  0  0
 72 71  1  0  0  0  0
 73 97  1  0  0  0  0
 73 98  1  0  0  0  0
 74100  1  0  0  0  0
 74 73  1  0  0  0  0
 75  7  1  0  0  0  0
 76  7  1  0  0  0  0
 79 19  1  0  0  0  0
 80 19  1  0  0  0  0
 81 19  1  0  0  0  0
 83 25  1  0  0  0  0
 85 26  1  0  0  0  0
 86 35  1  0  0  0  0
 88 46  1  0  0  0  0
 89 46  1  0  0  0  0
 93 48  1  0  0  0  0
 94 55  1  0  0  0  0
 99 74  1  0  0  0  0
101 74  1  0  0  0  0
M  RAD  4   1   2  45   2  49   2  71   2
M  END
