SCF done       -188.630125405034          0.002676796561
 OpenBabel12282109493D

 97108  0  0  1  0  0  0  0  0999 V2000
   -1.1028   -0.7274    2.2597 C   0  0  0  0  0  0  0  0  0  0  0  0
   -1.0771    0.4896    2.1900 O   0  0  0  0  0  0  0  0  0  0  0  0
   -2.2692   -1.5872    1.9717 C   0  0  0  0  0  0  0  0  0  0  0  0
   -3.5325   -1.2160    1.5641 C   0  0  0  0  0  0  0  0  0  0  0  0
   -4.4723   -2.2158    1.3486 C   0  0  0  0  0  0  0  0  0  0  0  0
   -6.2127   -1.7417    0.7815 Br  0  0  0  0  0  0  0  0  0  0  0  0
   -4.1330   -3.5550    1.5447 C   0  0  0  0  0  0  0  0  0  0  0  0
   -5.4176   -4.9110    1.2454 Br  0  0  0  0  0  0  0  0  0  0  0  0
   -2.8576   -3.9251    1.9579 C   0  0  0  0  0  0  0  0  0  0  0  0
   -1.9162   -2.9330    2.1735 C   0  0  0  0  0  0  0  0  0  0  0  0
   -0.5163   -2.9936    2.5972 C   0  0  0  0  0  0  0  0  0  0  0  0
    0.1658   -4.1486    2.8899 C   0  0  0  0  0  0  0  0  0  0  0  0
    1.5143   -4.2306    3.2937 C   0  0  0  0  0  0  0  0  0  0  0  0
    2.6051   -4.3823    3.6209 N   0  0  0  0  0  0  0  0  0  0  0  0
   -0.4030   -5.4385    2.8277 C   0  0  0  0  0  0  0  0  0  0  0  0
   -0.8075   -6.5120    2.8004 N   0  0  0  0  0  0  0  0  0  0  0  0
   -0.0213   -1.6336    2.6404 C   0  0  0  0  0  0  0  0  0  0  0  0
    1.2619   -1.2675    2.9829 C   0  0  0  0  0  0  0  0  0  0  0  0
    1.8690   -0.0145    3.0566 C   0  0  0  0  0  0  0  0  0  0  0  0
    1.0685    1.5249    2.7252 S   0  0  0  0  0  0  0  0  0  0  0  0
    2.5323    2.3719    3.0532 C   0  0  0  0  0  0  0  0  0  0  0  0
    3.5799    1.4971    3.3992 C   0  0  0  0  0  0  0  0  0  0  0  0
    3.2220    0.1579    3.4104 C   0  0  0  0  0  0  0  0  0  0  0  0
    4.1948   -0.9371    3.7024 C   0  0  0  0  0  0  0  0  0  0  0  0
    4.7812   -1.5023    2.4044 C   0  0  0  0  0  0  0  0  0  0  0  0
    5.0945    2.3115    3.7433 S   0  0  0  0  0  0  0  0  0  0  0  0
    4.3143    3.8197    3.4229 C   0  0  0  0  0  0  0  0  0  0  0  0
    2.9651    3.7004    3.0652 C   0  0  0  0  0  0  0  0  0  0  0  0
    2.4341    4.9396    2.8251 N   0  0  0  0  0  0  0  0  0  0  0  0
    0.9958    5.0884    2.7694 C   0  0  0  0  0  0  0  0  0  0  0  0
    3.4302    5.8784    3.0329 C   0  0  0  0  0  0  0  0  0  0  0  0
    4.6152    5.1855    3.4284 C   0  0  0  0  0  0  0  0  0  0  0  0
    5.7968    5.8593    3.8084 C   0  0  0  0  0  0  0  0  0  0  0  0
    6.9450    5.3473    4.2221 N   0  0  0  0  0  0  0  0  0  0  0  0
    7.9458    6.5649    4.5891 S   0  0  0  0  0  0  0  0  0  0  0  0
    6.9528    7.7919    4.2319 N   0  0  0  0  0  0  0  0  0  0  0  0
    5.8023    7.2899    3.8120 C   0  0  0  0  0  0  0  0  0  0  0  0
    4.6578    7.9737    3.3467 C   0  0  0  0  0  0  0  0  0  0  0  0
    3.4848    7.2932    2.9026 C   0  0  0  0  0  0  0  0  0  0  0  0
    2.5958    8.2413    2.4209 N   0  0  0  0  0  0  0  0  0  0  0  0
    1.4393    8.0958    1.5649 C   0  0  0  0  0  0  0  0  0  0  0  0
    1.8048    7.4366    0.2371 C   0  0  0  0  0  0  0  0  0  0  0  0
    3.1778    9.4730    2.5586 C   0  0  0  0  0  0  0  0  0  0  0  0
    4.4425    9.3415    3.1432 C   0  0  2  0  0  0  0  0  0  0  0  0
    5.2761   10.8376    3.3505 S   0  0  0  0  0  0  0  0  0  0  0  0
    3.9122   11.6771    2.6408 C   0  0  0  0  0  0  0  0  0  0  0  0
    2.8739   10.8058    2.2696 C   0  0  0  0  0  0  0  0  0  0  0  0
    1.5569   11.6620    1.5674 S   0  0  0  0  0  0  0  0  0  0  0  0
    2.3771   13.2010    1.8488 C   0  0  1  0  0  0  0  0  0  0  0  0
    3.6500   13.0312    2.3972 C   0  0  0  0  0  0  0  0  0  0  0  0
    4.6369   14.1339    2.5695 C   0  0  0  0  0  0  0  0  0  0  0  0
    6.0532   13.7567    2.1431 C   0  0  0  0  0  0  0  0  0  0  0  0
    1.6996   14.3499    1.4091 C   0  0  0  0  0  0  0  0  0  0  0  0
    1.7847   15.6212    1.9232 C   0  0  1  0  0  0  0  0  0  0  0  0
    1.2508   16.8154    1.3054 C   0  0  0  0  0  0  0  0  0  0  0  0
    0.8440   16.9474    0.0030 C   0  0  0  0  0  0  0  0  0  0  0  0
    0.3498   18.1467   -0.5521 C   0  0  0  0  0  0  0  0  0  0  0  0
   -0.0657   19.0929   -1.0523 N   0  0  0  0  0  0  0  0  0  0  0  0
    0.8952   15.9191   -0.9624 C   0  0  0  0  0  0  0  0  0  0  0  0
    0.9337   15.1409   -1.8060 N   0  0  0  0  0  0  0  0  0  0  0  0
    1.3170   17.8909    2.2926 C   0  0  0  0  0  0  0  0  0  0  0  0
    0.9353   19.2202    2.2283 C   0  0  0  0  0  0  0  0  0  0  0  0
    1.1362   20.0242    3.3454 C   0  0  0  0  0  0  0  0  0  0  0  0
    0.6189   21.8421    3.2576 Br  0  0  0  0  0  0  0  0  0  0  0  0
    1.7050   19.5133    4.5131 C   0  0  0  0  0  0  0  0  0  0  0  0
    1.9708   20.6294    6.0156 Br  0  0  0  0  0  0  0  0  0  0  0  0
    2.0848   18.1786    4.5834 C   0  0  0  0  0  0  0  0  0  0  0  0
    1.8907   17.3857    3.4722 C   0  0  0  0  0  0  0  0  0  0  0  0
    2.2030   15.9478    3.2999 C   0  0  0  0  0  0  0  0  0  0  0  0
    2.6168   15.1951    4.1568 O   0  0  0  0  0  0  0  0  0  0  0  0
    0.4539    5.7333    4.0427 C   0  0  0  0  0  0  0  0  0  0  0  0
   -3.7809   -0.1762    1.4144 H   0  0  0  0  0  0  0  0  0  0  0  0
   -2.6344   -4.9698    2.0966 H   0  0  0  0  0  0  0  0  0  0  0  0
    1.9290   -2.0803    3.2350 H   0  0  0  0  0  0  0  0  0  0  0  0
    5.0039   -0.5220    4.3065 H   0  0  0  0  0  0  0  0  0  0  0  0
    3.7244   -1.7428    4.2683 H   0  0  0  0  0  0  0  0  0  0  0  0
    5.2960   -0.7209    1.8500 H   0  0  0  0  0  0  0  0  0  0  0  0
    5.4895   -2.2928    2.6360 H   0  0  0  0  0  0  0  0  0  0  0  0
    3.9973   -1.9168    1.7744 H   0  0  0  0  0  0  0  0  0  0  0  0
    0.6996    5.6403    1.8780 H   0  0  0  0  0  0  0  0  0  0  0  0
    0.5836    4.0811    2.6738 H   0  0  0  0  0  0  0  0  0  0  0  0
    0.6460    7.5555    2.0808 H   0  0  0  0  0  0  0  0  0  0  0  0
    1.0664    9.1050    1.3729 H   0  0  0  0  0  0  0  0  0  0  0  0
    2.2569    6.4595    0.3912 H   0  0  0  0  0  0  0  0  0  0  0  0
    0.9151    7.3208   -0.3757 H   0  0  0  0  0  0  0  0  0  0  0  0
    2.5162    8.0576   -0.3020 H   0  0  0  0  0  0  0  0  0  0  0  0
    4.3007   14.9974    1.9894 H   0  0  0  0  0  0  0  0  0  0  0  0
    4.6355   14.4340    3.6232 H   0  0  0  0  0  0  0  0  0  0  0  0
    6.0543   13.3507    1.1333 H   0  0  0  0  0  0  0  0  0  0  0  0
    6.6817   14.6436    2.1581 H   0  0  0  0  0  0  0  0  0  0  0  0
    6.4882   13.0220    2.8150 H   0  0  0  0  0  0  0  0  0  0  0  0
    0.9961   14.1827    0.6009 H   0  0  0  0  0  0  0  0  0  0  0  0
    0.4869   19.6471    1.3459 H   0  0  0  0  0  0  0  0  0  0  0  0
    2.5238   17.7728    5.4820 H   0  0  0  0  0  0  0  0  0  0  0  0
    0.6840    5.1069    4.9017 H   0  0  0  0  0  0  0  0  0  0  0  0
    0.8956    6.7131    4.2106 H   0  0  0  0  0  0  0  0  0  0  0  0
   -0.6254    5.8393    3.9733 H   0  0  0  0  0  0  0  0  0  0  0  0
  1 17  1  0  0  0  0
  2  1  2  0  0  0  0
  3 10  1  0  0  0  0
  3  1  1  0  0  0  0
  4  3  2  0  0  0  0
  5  7  2  0  0  0  0
  5  4  1  0  0  0  0
  6  5  1  0  0  0  0
  7  9  1  0  0  0  0
  8  7  1  0  0  0  0
  9 73  1  0  0  0  0
  9 10  2  0  0  0  0
 10 11  1  0  0  0  0
 11 17  2  0  0  0  0
 11 12  1  0  0  0  0
 12 13  1  0  0  0  0
 13 14  3  0  0  0  0
 15 12  1  0  0  0  0
 16 15  3  0  0  0  0
 17 18  1  0  0  0  0
 18 19  1  0  0  0  0
 18 74  1  0  0  0  0
 19 23  2  0  0  0  0
 20 21  1  0  0  0  0
 20 19  1  0  0  0  0
 21 28  1  0  0  0  0
 21 22  2  0  0  0  0
 22 23  1  0  0  0  0
 22 26  1  0  0  0  0
 23 24  1  0  0  0  0
 24 76  1  0  0  0  0
 24 75  1  0  0  0  0
 25 78  1  0  0  0  0
 25 24  1  0  0  0  0
 27 32  1  0  0  0  0
 27 26  1  0  0  0  0
 28 27  2  0  0  0  0
 29 31  1  0  0  0  0
 29 28  1  0  0  0  0
 30 29  1  0  0  0  0
 30 71  1  0  0  0  0
 31 32  2  0  0  0  0
 32 33  1  0  0  0  0
 33 37  1  0  0  0  0
 33 34  2  0  0  0  0
 34 35  1  0  0  0  0
 36 35  1  0  0  0  0
 37 36  2  0  0  0  0
 38 37  1  0  0  0  0
 39 31  1  0  0  0  0
 39 38  2  0  0  0  0
 40 43  1  0  0  0  0
 40 39  1  0  0  0  0
 41 82  1  0  0  0  0
 41 40  1  0  0  0  0
 42 84  1  0  0  0  0
 42 41  1  0  0  0  0
 44 43  1  6  0  0  0
 44 38  1  0  0  0  0
 44 45  1  0  0  0  0
 46 45  1  0  0  0  0
 47 43  2  0  0  0  0
 47 46  1  0  0  0  0
 48 49  1  0  0  0  0
 48 47  1  0  0  0  0
 49 53  1  6  0  0  0
 49 50  1  0  0  0  0
 50 51  1  0  0  0  0
 50 46  2  0  0  0  0
 51 88  1  0  0  0  0
 52 90  1  0  0  0  0
 52 51  1  0  0  0  0
 52 91  1  0  0  0  0
 54 53  1  1  0  0  0
 54 69  1  0  0  0  0
 55 54  1  0  0  0  0
 55 61  1  0  0  0  0
 56 55  2  0  0  0  0
 57 56  1  0  0  0  0
 58 57  3  0  0  0  0
 59 56  1  0  0  0  0
 60 59  3  0  0  0  0
 61 68  1  0  0  0  0
 62 61  2  0  0  0  0
 62 63  1  0  0  0  0
 63 65  2  0  0  0  0
 64 63  1  0  0  0  0
 65 67  1  0  0  0  0
 65 66  1  0  0  0  0
 67 94  1  0  0  0  0
 68 67  2  0  0  0  0
 69 68  1  0  0  0  0
 69 70  2  0  0  0  0
 71 96  1  0  0  0  0
 71 95  1  0  0  0  0
 72  4  1  0  0  0  0
 77 25  1  0  0  0  0
 79 25  1  0  0  0  0
 80 30  1  0  0  0  0
 81 30  1  0  0  0  0
 83 41  1  0  0  0  0
 85 42  1  0  0  0  0
 86 42  1  0  0  0  0
 87 51  1  0  0  0  0
 89 52  1  0  0  0  0
 92 53  1  0  0  0  0
 93 62  1  0  0  0  0
 97 71  1  0  0  0  0
M  RAD  6  12   2  18   2  44   2  49   2  53   2  54   2
M  END
