BTIC-COOMe.sdf
  xtb     12202114143D
 energy: -201.221945488792 gnorm: 0.000247615898 xtb: 6.4.1 (unknown)
109120  0     0  0            999 V2000
    1.3605    2.6366    6.2988 C   0  0  0  0  0  0  0  0  0  0  0  0
    1.7905    2.0116    5.3453 O   0  0  0  0  0  0  0  0  0  0  0  0
    1.8152    3.9688    6.7449 C   0  0  0  0  0  0  0  0  0  0  0  0
    2.7291    4.8129    6.1547 C   0  0  0  0  0  0  0  0  0  0  0  0
    2.9638    6.0530    6.7519 C   0  0  0  0  0  0  0  0  0  0  0  0
    2.2940    6.4060    7.9220 C   0  0  0  0  0  0  0  0  0  0  0  0
    1.3798    5.5489    8.5177 C   0  0  0  0  0  0  0  0  0  0  0  0
    1.1315    4.3209    7.9231 C   0  0  0  0  0  0  0  0  0  0  0  0
    0.2155    3.2346    8.2766 C   0  0  0  0  0  0  0  0  0  0  0  0
   -0.5602    3.1934    9.4076 C   0  0  0  0  0  0  0  0  0  0  0  0
   -1.4297    2.1431    9.7679 C   0  0  0  0  0  0  0  0  0  0  0  0
   -2.1566    1.3301   10.1302 N   0  0  0  0  0  0  0  0  0  0  0  0
   -0.5813    4.2045   10.3909 C   0  0  0  0  0  0  0  0  0  0  0  0
   -0.6495    4.9874   11.2279 N   0  0  0  0  0  0  0  0  0  0  0  0
    0.3059    2.2356    7.2325 C   0  0  0  0  0  0  0  0  0  0  0  0
   -0.5327    1.1537    7.0944 C   0  0  0  0  0  0  0  0  0  0  0  0
   -0.6163    0.1878    6.0890 C   0  0  0  0  0  0  0  0  0  0  0  0
    0.5168    0.0306    4.7435 S   0  0  0  0  0  0  0  0  0  0  0  0
   -0.4419   -1.2324    4.0760 C   0  0  0  0  0  0  0  0  0  0  0  0
   -1.5809   -1.5069    4.8545 C   0  0  0  0  0  0  0  0  0  0  0  0
   -1.6744   -0.7380    6.0051 C   0  0  0  0  0  0  0  0  0  0  0  0
   -2.8182   -0.8429    6.9601 C   0  0  0  0  0  0  0  0  0  0  0  0
   -3.9177    0.1625    6.6058 C   0  0  0  0  0  0  0  0  0  0  0  0
   -2.6457   -2.7031    4.1348 S   0  0  0  0  0  0  0  0  0  0  0  0
   -1.5777   -2.7948    2.7763 C   0  0  0  0  0  0  0  0  0  0  0  0
   -0.4438   -1.9818    2.8992 C   0  0  0  0  0  0  0  0  0  0  0  0
    0.3381   -2.0879    1.7763 N   0  0  0  0  0  0  0  0  0  0  0  0
    1.7623   -1.8432    1.8835 C   0  0  0  0  0  0  0  0  0  0  0  0
    2.3890   -2.6917    2.9898 C   0  0  0  0  0  0  0  0  0  0  0  0
   -0.3260   -2.9155    0.8901 C   0  0  0  0  0  0  0  0  0  0  0  0
   -1.5081   -3.4080    1.5163 C   0  0  0  0  0  0  0  0  0  0  0  0
   -2.3535   -4.3345    0.8656 C   0  0  0  0  0  0  0  0  0  0  0  0
   -3.4369   -4.9333    1.3338 N   0  0  0  0  0  0  0  0  0  0  0  0
   -4.0132   -5.9226    0.1898 S   0  0  0  0  0  0  0  0  0  0  0  0
   -2.9080   -5.6183   -0.9525 N   0  0  0  0  0  0  0  0  0  0  0  0
   -2.0452   -4.7339   -0.4786 C   0  0  0  0  0  0  0  0  0  0  0  0
   -0.9656   -4.1131   -1.1474 C   0  0  0  0  0  0  0  0  0  0  0  0
   -0.1153   -3.1818   -0.4850 C   0  0  0  0  0  0  0  0  0  0  0  0
    0.7362   -2.6232   -1.4184 N   0  0  0  0  0  0  0  0  0  0  0  0
    1.5542   -1.4320   -1.3538 C   0  0  0  0  0  0  0  0  0  0  0  0
    3.0441   -1.7552   -1.4618 C   0  0  0  0  0  0  0  0  0  0  0  0
    0.4442   -3.1787   -2.6346 C   0  0  0  0  0  0  0  0  0  0  0  0
   -0.5963   -4.1063   -2.5003 C   0  0  0  0  0  0  0  0  0  0  0  0
   -1.1324   -4.7672   -4.0048 S   0  0  0  0  0  0  0  0  0  0  0  0
    0.0223   -3.7535   -4.8421 C   0  0  0  0  0  0  0  0  0  0  0  0
    0.8103   -2.9898   -3.9702 C   0  0  0  0  0  0  0  0  0  0  0  0
    1.9459   -2.0240   -4.8334 S   0  0  0  0  0  0  0  0  0  0  0  0
    1.2522   -2.5510   -6.3662 C   0  0  0  0  0  0  0  0  0  0  0  0
    0.2533   -3.4989   -6.2021 C   0  0  0  0  0  0  0  0  0  0  0  0
   -0.4126   -4.2358   -7.3148 C   0  0  0  0  0  0  0  0  0  0  0  0
   -0.2100   -5.7458   -7.1942 C   0  0  0  0  0  0  0  0  0  0  0  0
    1.7624   -1.9493   -7.5413 C   0  0  0  0  0  0  0  0  0  0  0  0
    0.9966   -1.4846   -8.5723 C   0  0  0  0  0  0  0  0  0  0  0  0
    1.4822   -0.9048   -9.8061 C   0  0  0  0  0  0  0  0  0  0  0  0
    2.6874   -1.1799  -10.3944 C   0  0  0  0  0  0  0  0  0  0  0  0
    3.6191   -2.0945   -9.8577 C   0  0  0  0  0  0  0  0  0  0  0  0
    4.3969   -2.8463   -9.4741 N   0  0  0  0  0  0  0  0  0  0  0  0
    3.1167   -0.6263  -11.6179 C   0  0  0  0  0  0  0  0  0  0  0  0
    3.5149   -0.2000  -12.6062 N   0  0  0  0  0  0  0  0  0  0  0  0
    0.4243   -0.0511  -10.3372 C   0  0  0  0  0  0  0  0  0  0  0  0
    0.4026    0.8201  -11.4161 C   0  0  0  0  0  0  0  0  0  0  0  0
   -0.7492    1.5568  -11.6433 C   0  0  0  0  0  0  0  0  0  0  0  0
   -1.8681    1.4370  -10.8187 C   0  0  0  0  0  0  0  0  0  0  0  0
   -1.8596    0.5486   -9.7429 C   0  0  0  0  0  0  0  0  0  0  0  0
   -0.7137   -0.1844   -9.5193 C   0  0  0  0  0  0  0  0  0  0  0  0
   -0.4404   -1.1464   -8.4280 C   0  0  0  0  0  0  0  0  0  0  0  0
   -1.2070   -1.4960   -7.5580 O   0  0  0  0  0  0  0  0  0  0  0  0
    3.9272    6.9725    6.0914 C   0  0  0  0  0  0  0  0  0  0  0  0
   -3.0446    2.2997  -11.1087 C   0  0  0  0  0  0  0  0  0  0  0  0
   -4.0163    2.1570  -10.1999 O   0  0  0  0  0  0  0  0  0  0  0  0
   -3.1145    3.0553  -12.0456 O   0  0  0  0  0  0  0  0  0  0  0  0
   -5.1666    2.9677  -10.3894 C   0  0  0  0  0  0  0  0  0  0  0  0
    4.0321    8.1486    6.7232 O   0  0  0  0  0  0  0  0  0  0  0  0
    4.5427    6.6994    5.0911 O   0  0  0  0  0  0  0  0  0  0  0  0
    4.9251    9.0859    6.1394 C   0  0  0  0  0  0  0  0  0  0  0  0
    3.2482    4.5383    5.2492 H   0  0  0  0  0  0  0  0  0  0  0  0
    2.4905    7.3687    8.3670 H   0  0  0  0  0  0  0  0  0  0  0  0
    0.8738    5.8524    9.4194 H   0  0  0  0  0  0  0  0  0  0  0  0
   -1.2994    1.0527    7.8505 H   0  0  0  0  0  0  0  0  0  0  0  0
   -2.4880   -0.6764    7.9865 H   0  0  0  0  0  0  0  0  0  0  0  0
   -3.2271   -1.8529    6.8918 H   0  0  0  0  0  0  0  0  0  0  0  0
   -3.5404    1.1813    6.6576 H   0  0  0  0  0  0  0  0  0  0  0  0
   -4.7449    0.0646    7.3029 H   0  0  0  0  0  0  0  0  0  0  0  0
   -4.2859   -0.0201    5.5989 H   0  0  0  0  0  0  0  0  0  0  0  0
    1.9227   -0.7821    2.0991 H   0  0  0  0  0  0  0  0  0  0  0  0
    2.2379   -2.1063    0.9451 H   0  0  0  0  0  0  0  0  0  0  0  0
    3.4642   -2.5361    2.9959 H   0  0  0  0  0  0  0  0  0  0  0  0
    1.9983   -2.4167    3.9649 H   0  0  0  0  0  0  0  0  0  0  0  0
    2.1887   -3.7472    2.8162 H   0  0  0  0  0  0  0  0  0  0  0  0
    1.3202   -0.8846   -0.4414 H   0  0  0  0  0  0  0  0  0  0  0  0
    1.2760   -0.7956   -2.2014 H   0  0  0  0  0  0  0  0  0  0  0  0
    3.6272   -0.8514   -1.3118 H   0  0  0  0  0  0  0  0  0  0  0  0
    3.2699   -2.1502   -2.4488 H   0  0  0  0  0  0  0  0  0  0  0  0
    3.3506   -2.4968   -0.7273 H   0  0  0  0  0  0  0  0  0  0  0  0
   -1.4798   -4.0024   -7.2902 H   0  0  0  0  0  0  0  0  0  0  0  0
   -0.0143   -3.8907   -8.2696 H   0  0  0  0  0  0  0  0  0  0  0  0
    0.8509   -5.9870   -7.1980 H   0  0  0  0  0  0  0  0  0  0  0  0
   -0.6516   -6.1274   -6.2777 H   0  0  0  0  0  0  0  0  0  0  0  0
   -0.6803   -6.2464   -8.0365 H   0  0  0  0  0  0  0  0  0  0  0  0
    2.8289   -1.7529   -7.5534 H   0  0  0  0  0  0  0  0  0  0  0  0
    1.2597    0.9433  -12.0583 H   0  0  0  0  0  0  0  0  0  0  0  0
   -0.7981    2.2548  -12.4657 H   0  0  0  0  0  0  0  0  0  0  0  0
   -2.7173    0.4419   -9.0982 H   0  0  0  0  0  0  0  0  0  0  0  0
   -5.8479    2.7223   -9.5789 H   0  0  0  0  0  0  0  0  0  0  0  0
   -4.8942    4.0247  -10.3558 H   0  0  0  0  0  0  0  0  0  0  0  0
   -5.6259    2.7554  -11.3568 H   0  0  0  0  0  0  0  0  0  0  0  0
    5.9392    8.6818    6.1192 H   0  0  0  0  0  0  0  0  0  0  0  0
    4.8796    9.9766    6.7604 H   0  0  0  0  0  0  0  0  0  0  0  0
    4.6189    9.3139    5.1163 H   0  0  0  0  0  0  0  0  0  0  0  0
  1  2  2  0  0  0  0
  1  3  1  0  0  0  0
  3  4  2  0  0  0  0
  4  5  1  0  0  0  0
  5  6  2  0  0  0  0
  6  7  1  0  0  0  0
  7  8  2  0  0  0  0
  3  8  1  0  0  0  0
  8  9  1  0  0  0  0
  9 10  2  0  0  0  0
 10 11  1  0  0  0  0
 11 12  3  0  0  0  0
 10 13  1  0  0  0  0
 13 14  3  0  0  0  0
  9 15  1  0  0  0  0
  1 15  1  0  0  0  0
 15 16  2  0  0  0  0
 16 17  1  0  0  0  0
 17 18  1  0  0  0  0
 18 19  1  0  0  0  0
 19 20  2  0  0  0  0
 20 21  1  0  0  0  0
 21 22  1  0  0  0  0
 22 23  1  0  0  0  0
 17 21  2  0  0  0  0
 20 24  1  0  0  0  0
 24 25  1  0  0  0  0
 25 26  2  0  0  0  0
 19 26  1  0  0  0  0
 26 27  1  0  0  0  0
 27 28  1  0  0  0  0
 28 29  1  0  0  0  0
 27 30  1  0  0  0  0
 30 31  2  0  0  0  0
 25 31  1  0  0  0  0
 31 32  1  0  0  0  0
 32 33  2  0  0  0  0
 33 34  1  0  0  0  0
 34 35  1  0  0  0  0
 35 36  2  0  0  0  0
 32 36  1  0  0  0  0
 36 37  1  0  0  0  0
 37 38  2  0  0  0  0
 30 38  1  0  0  0  0
 38 39  1  0  0  0  0
 39 40  1  0  0  0  0
 40 41  1  0  0  0  0
 39 42  1  0  0  0  0
 42 43  2  0  0  0  0
 37 43  1  0  0  0  0
 43 44  1  0  0  0  0
 44 45  1  0  0  0  0
 45 46  2  0  0  0  0
 42 46  1  0  0  0  0
 46 47  1  0  0  0  0
 47 48  1  0  0  0  0
 48 49  2  0  0  0  0
 45 49  1  0  0  0  0
 49 50  1  0  0  0  0
 50 51  1  0  0  0  0
 48 52  1  0  0  0  0
 52 53  2  0  0  0  0
 53 54  1  0  0  0  0
 54 55  2  0  0  0  0
 55 56  1  0  0  0  0
 56 57  3  0  0  0  0
 55 58  1  0  0  0  0
 58 59  3  0  0  0  0
 54 60  1  0  0  0  0
 60 61  2  0  0  0  0
 61 62  1  0  0  0  0
 62 63  2  0  0  0  0
 63 64  1  0  0  0  0
 64 65  2  0  0  0  0
 60 65  1  0  0  0  0
 65 66  1  0  0  0  0
 66 67  2  0  0  0  0
 53 66  1  0  0  0  0
  5 68  1  0  0  0  0
 63 69  1  0  0  0  0
 69 70  1  0  0  0  0
 69 71  2  0  0  0  0
 70 72  1  0  0  0  0
 68 73  1  0  0  0  0
 68 74  2  0  0  0  0
 73 75  1  0  0  0  0
  4 76  1  0  0  0  0
  6 77  1  0  0  0  0
  7 78  1  0  0  0  0
 16 79  1  0  0  0  0
 22 80  1  0  0  0  0
 22 81  1  0  0  0  0
 23 82  1  0  0  0  0
 23 83  1  0  0  0  0
 23 84  1  0  0  0  0
 28 85  1  0  0  0  0
 28 86  1  0  0  0  0
 29 87  1  0  0  0  0
 29 88  1  0  0  0  0
 29 89  1  0  0  0  0
 40 90  1  0  0  0  0
 40 91  1  0  0  0  0
 41 92  1  0  0  0  0
 41 93  1  0  0  0  0
 41 94  1  0  0  0  0
 50 95  1  0  0  0  0
 50 96  1  0  0  0  0
 51 97  1  0  0  0  0
 51 98  1  0  0  0  0
 51 99  1  0  0  0  0
 52100  1  0  0  0  0
 61101  1  0  0  0  0
 62102  1  0  0  0  0
 64103  1  0  0  0  0
 72104  1  0  0  0  0
 72105  1  0  0  0  0
 72106  1  0  0  0  0
 75107  1  0  0  0  0
 75108  1  0  0  0  0
 75109  1  0  0  0  0
M  END
