SCF done       -225.093790934621          0.000927765135
 OpenBabel12282109493D

120132  0  0  0  0  0  0  0  0999 V2000
    3.8403   -1.7351   -9.6071 C   0  0  0  0  0  0  0  0  0  0  0  0
    2.9709   -2.3130  -10.2276 O   0  0  0  0  0  0  0  0  0  0  0  0
    5.1866   -1.4151  -10.1323 C   0  0  0  0  0  0  0  0  0  0  0  0
    5.7109   -1.7282  -11.3707 C   0  0  0  0  0  0  0  0  0  0  0  0
    7.0117   -1.3328  -11.6359 C   0  0  0  0  0  0  0  0  0  0  0  0
    7.7531   -0.6435  -10.6760 C   0  0  0  0  0  0  0  0  0  0  0  0
    7.2235   -0.3261   -9.4341 C   0  0  0  0  0  0  0  0  0  0  0  0
    5.9217   -0.7178   -9.1619 C   0  0  0  0  0  0  0  0  0  0  0  0
    5.0816   -0.5423   -7.9768 C   0  0  0  0  0  0  0  0  0  0  0  0
    5.4462    0.1744   -6.8667 C   0  0  0  0  0  0  0  0  0  0  0  0
    4.6501    0.4287   -5.7287 C   0  0  0  0  0  0  0  0  0  0  0  0
    4.0798    0.7030   -4.7700 N   0  0  0  0  0  0  0  0  0  0  0  0
    6.7010    0.8026   -6.7098 C   0  0  0  0  0  0  0  0  0  0  0  0
    7.6997    1.3323   -6.5115 N   0  0  0  0  0  0  0  0  0  0  0  0
    3.8186   -1.2159   -8.2265 C   0  0  0  0  0  0  0  0  0  0  0  0
    2.8448   -1.3673   -7.2675 C   0  0  0  0  0  0  0  0  0  0  0  0
  -18.0627  -14.2124   -5.4577 C   0  0  0  0  0  0  0  0  0  0  0  0
  -17.2739  -13.6241   -4.7402 O   0  0  0  0  0  0  0  0  0  0  0  0
  -19.1582  -15.0953   -5.0057 C   0  0  0  0  0  0  0  0  0  0  0  0
  -19.5064  -15.4377   -3.7147 C   0  0  0  0  0  0  0  0  0  0  0  0
  -20.5840  -16.2926   -3.5462 C   0  0  0  0  0  0  0  0  0  0  0  0
  -21.2824  -16.7804   -4.6506 C   0  0  0  0  0  0  0  0  0  0  0  0
  -20.9310  -16.4353   -5.9478 C   0  0  0  0  0  0  0  0  0  0  0  0
  -19.8537  -15.5817   -6.1251 C   0  0  0  0  0  0  0  0  0  0  0  0
  -19.2366  -15.0366   -7.3368 C   0  0  0  0  0  0  0  0  0  0  0  0
  -19.6558  -15.2968   -8.6163 C   0  0  0  0  0  0  0  0  0  0  0  0
  -19.0776  -14.7826   -9.7957 C   0  0  0  0  0  0  0  0  0  0  0  0
  -18.6703  -14.4059  -10.8019 N   0  0  0  0  0  0  0  0  0  0  0  0
  -20.7461  -16.1336   -8.9367 C   0  0  0  0  0  0  0  0  0  0  0  0
  -21.6232  -16.7967   -9.2660 N   0  0  0  0  0  0  0  0  0  0  0  0
  -18.1325  -14.1982   -6.9192 C   0  0  0  0  0  0  0  0  0  0  0  0
  -17.2826  -13.5103   -7.7555 C   0  0  0  0  0  0  0  0  0  0  0  0
  -16.1889  -12.6904   -7.4685 C   0  0  0  0  0  0  0  0  0  0  0  0
  -15.5704  -12.2776   -5.8721 S   0  0  0  0  0  0  0  0  0  0  0  0
  -14.3432  -11.3385   -6.5981 C   0  0  0  0  0  0  0  0  0  0  0  0
  -14.3920  -11.3315   -8.0059 C   0  0  0  0  0  0  0  0  0  0  0  0
  -15.4289  -12.0885   -8.4892 C   0  0  0  0  0  0  0  0  0  0  0  0
  -13.2492  -10.5462   -6.1915 C   0  0  0  0  0  0  0  0  0  0  0  0
  -12.5975  -10.0345   -7.3166 C   0  0  0  0  0  0  0  0  0  0  0  0
  -13.2757  -10.4944   -8.5829 C   0  0  0  0  0  0  0  0  0  0  0  0
  -12.5124  -10.0591   -4.7199 S   0  0  0  0  0  0  0  0  0  0  0  0
  -11.3116   -9.1598   -5.6205 C   0  0  0  0  0  0  0  0  0  0  0  0
  -11.5010   -9.2494   -6.9912 C   0  0  0  0  0  0  0  0  0  0  0  0
  -10.2872   -8.4584   -4.9341 C   0  0  0  0  0  0  0  0  0  0  0  0
   -3.9234   -4.5251   -5.5897 C   0  0  0  0  0  0  0  0  0  0  0  0
   -2.7366   -3.6103   -4.6881 S   0  0  0  0  0  0  0  0  0  0  0  0
   -1.8169   -3.4010   -6.1218 C   0  0  0  0  0  0  0  0  0  0  0  0
   -2.4090   -3.9908   -7.2426 C   0  0  0  0  0  0  0  0  0  0  0  0
   -3.5993   -4.6358   -6.9329 C   0  0  0  0  0  0  0  0  0  0  0  0
   -0.5786   -2.8384   -6.4904 C   0  0  0  0  0  0  0  0  0  0  0  0
   -0.3680   -3.0696   -7.8605 C   0  0  0  0  0  0  0  0  0  0  0  0
   -1.5521   -3.7867   -8.4687 C   0  0  0  0  0  0  0  0  0  0  0  0
    0.7162   -2.0129   -5.7533 S   0  0  0  0  0  0  0  0  0  0  0  0
    1.5840   -1.9768   -7.2973 C   0  0  0  0  0  0  0  0  0  0  0  0
    0.8394   -2.5827   -8.3118 C   0  0  0  0  0  0  0  0  0  0  0  0
   -2.2160   -2.8296   -9.4848 C   0  0  0  0  0  0  0  0  0  0  0  0
   -3.5348   -3.3213  -10.0654 C   0  0  0  0  0  0  0  0  0  0  0  0
   -1.1471   -5.1176   -9.1213 C   0  0  0  0  0  0  0  0  0  0  0  0
   -0.3785   -6.0292   -8.1718 C   0  0  0  0  0  0  0  0  0  0  0  0
  -13.8178   -9.3076   -9.4011 C   0  0  0  0  0  0  0  0  0  0  0  0
  -14.7569   -8.4114   -8.6033 C   0  0  0  0  0  0  0  0  0  0  0  0
  -12.3296  -11.3393   -9.4569 C   0  0  0  0  0  0  0  0  0  0  0  0
  -11.7357  -12.5311   -8.7161 C   0  0  0  0  0  0  0  0  0  0  0  0
  -22.3194  -17.6036   -4.4595 F   0  0  0  0  0  0  0  0  0  0  0  0
  -20.9579  -16.6534   -2.3128 F   0  0  0  0  0  0  0  0  0  0  0  0
    7.5631   -1.6166  -12.8224 F   0  0  0  0  0  0  0  0  0  0  0  0
    9.0093   -0.2784  -10.9559 F   0  0  0  0  0  0  0  0  0  0  0  0
   -9.0693   -7.5609   -5.8019 S   0  0  0  0  0  0  0  0  0  0  0  0
   -8.3023   -7.0824   -4.3177 C   0  0  0  0  0  0  0  0  0  0  0  0
   -8.9610   -7.6032   -3.2132 C   0  0  0  0  0  0  0  0  0  0  0  0
  -10.0752   -8.3820   -3.5801 C   0  0  0  0  0  0  0  0  0  0  0  0
   -7.1277   -6.3089   -4.3163 C   0  0  0  0  0  0  0  0  0  0  0  0
   -6.5463   -5.6676   -3.2317 C   0  0  0  0  0  0  0  0  0  0  0  0
   -7.0055   -5.5516   -1.8385 C   0  0  0  0  0  0  0  0  0  0  0  0
   -7.8649   -6.4813   -1.2644 N   0  0  0  0  0  0  0  0  0  0  0  0
   -8.6141   -7.5293   -1.7857 C   0  0  0  0  0  0  0  0  0  0  0  0
   -6.2265   -6.0368   -5.7770 S   0  0  0  0  0  0  0  0  0  0  0  0
   -5.0483   -5.0754   -4.9228 C   0  0  0  0  0  0  0  0  0  0  0  0
   -5.3764   -4.9725   -3.5943 C   0  0  0  0  0  0  0  0  0  0  0  0
   -7.9346   -6.3832    0.2017 C   0  0  0  0  0  0  0  0  0  0  0  0
   -6.7991   -7.1561    0.8581 C   0  0  0  0  0  0  0  0  0  0  0  0
   -9.0738   -8.3634   -1.0314 O   0  0  0  0  0  0  0  0  0  0  0  0
   -6.5592   -4.6504   -1.1567 O   0  0  0  0  0  0  0  0  0  0  0  0
    5.1329   -2.2624  -12.1077 H   0  0  0  0  0  0  0  0  0  0  0  0
    7.8406    0.2063   -8.7295 H   0  0  0  0  0  0  0  0  0  0  0  0
    3.0886   -0.9632   -6.2922 H   0  0  0  0  0  0  0  0  0  0  0  0
  -18.9629  -15.0573   -2.8646 H   0  0  0  0  0  0  0  0  0  0  0  0
  -21.5043  -16.8411   -6.7648 H   0  0  0  0  0  0  0  0  0  0  0  0
  -17.4674  -13.6098   -8.8181 H   0  0  0  0  0  0  0  0  0  0  0  0
  -15.6665  -12.2336   -9.5283 H   0  0  0  0  0  0  0  0  0  0  0  0
  -10.8522   -8.7569   -7.6936 H   0  0  0  0  0  0  0  0  0  0  0  0
   -4.2159   -5.1842   -7.6226 H   0  0  0  0  0  0  0  0  0  0  0  0
    1.2074   -2.6545   -9.3185 H   0  0  0  0  0  0  0  0  0  0  0  0
   -2.3852   -1.8722   -8.9855 H   0  0  0  0  0  0  0  0  0  0  0  0
   -1.5025   -2.6606  -10.2934 H   0  0  0  0  0  0  0  0  0  0  0  0
   -4.2774   -3.4552   -9.2836 H   0  0  0  0  0  0  0  0  0  0  0  0
   -3.9139   -2.5838  -10.7689 H   0  0  0  0  0  0  0  0  0  0  0  0
   -3.4091   -4.2598  -10.5979 H   0  0  0  0  0  0  0  0  0  0  0  0
   -2.0475   -5.6325   -9.4576 H   0  0  0  0  0  0  0  0  0  0  0  0
   -0.5294   -4.8989   -9.9938 H   0  0  0  0  0  0  0  0  0  0  0  0
   -0.9721   -6.2577   -7.2892 H   0  0  0  0  0  0  0  0  0  0  0  0
   -0.1346   -6.9634   -8.6714 H   0  0  0  0  0  0  0  0  0  0  0  0
    0.5494   -5.5613   -7.8516 H   0  0  0  0  0  0  0  0  0  0  0  0
  -12.9703   -8.7193   -9.7583 H   0  0  0  0  0  0  0  0  0  0  0  0
  -14.3448   -9.7029  -10.2712 H   0  0  0  0  0  0  0  0  0  0  0  0
  -14.2459   -7.9821   -7.7446 H   0  0  0  0  0  0  0  0  0  0  0  0
  -15.1149   -7.5986   -9.2302 H   0  0  0  0  0  0  0  0  0  0  0  0
  -15.6169   -8.9730   -8.2464 H   0  0  0  0  0  0  0  0  0  0  0  0
  -12.8890  -11.6933  -10.3246 H   0  0  0  0  0  0  0  0  0  0  0  0
  -11.5236  -10.6956   -9.8145 H   0  0  0  0  0  0  0  0  0  0  0  0
  -12.5198  -13.1947   -8.3593 H   0  0  0  0  0  0  0  0  0  0  0  0
  -11.0867  -13.0950   -9.3814 H   0  0  0  0  0  0  0  0  0  0  0  0
  -11.1482  -12.2026   -7.8619 H   0  0  0  0  0  0  0  0  0  0  0  0
  -10.6959   -8.8744   -2.8532 H   0  0  0  0  0  0  0  0  0  0  0  0
   -4.7986   -4.4117   -2.8814 H   0  0  0  0  0  0  0  0  0  0  0  0
   -7.8755   -5.3255    0.4605 H   0  0  0  0  0  0  0  0  0  0  0  0
   -8.8963   -6.7911    0.5135 H   0  0  0  0  0  0  0  0  0  0  0  0
   -5.8381   -6.7553    0.5438 H   0  0  0  0  0  0  0  0  0  0  0  0
   -6.8773   -7.0673    1.9378 H   0  0  0  0  0  0  0  0  0  0  0  0
   -6.8560   -8.2079    0.5883 H   0  0  0  0  0  0  0  0  0  0  0  0
  1 15  1  0  0  0  0
  2  1  2  0  0  0  0
  3  1  1  0  0  0  0
  3  8  2  0  0  0  0
  4  3  1  0  0  0  0
  5  4  2  0  0  0  0
  5  6  1  0  0  0  0
  6  7  2  0  0  0  0
  7  8  1  0  0  0  0
  7 85  1  0  0  0  0
  8  9  1  0  0  0  0
  9 10  1  0  0  0  0
 10 13  1  0  0  0  0
 10 11  1  0  0  0  0
 11 12  3  0  0  0  0
 13 14  3  0  0  0  0
 15  9  2  0  0  0  0
 15 16  1  0  0  0  0
 16 86  1  0  0  0  0
 17 19  1  0  0  0  0
 17 18  2  0  0  0  0
 19 20  2  0  0  0  0
 20 21  1  0  0  0  0
 20 87  1  0  0  0  0
 21 65  1  0  0  0  0
 22 64  1  0  0  0  0
 22 21  2  0  0  0  0
 23 22  1  0  0  0  0
 24 23  2  0  0  0  0
 24 19  1  0  0  0  0
 25 31  1  0  0  0  0
 25 24  1  0  0  0  0
 26 25  2  0  0  0  0
 27 26  1  0  0  0  0
 28 27  3  0  0  0  0
 29 26  1  0  0  0  0
 30 29  3  0  0  0  0
 31 17  1  0  0  0  0
 32 33  1  0  0  0  0
 32 31  2  0  0  0  0
 33 34  1  0  0  0  0
 35 38  1  0  0  0  0
 35 34  1  0  0  0  0
 36 35  2  0  0  0  0
 37 36  1  0  0  0  0
 37 33  2  0  0  0  0
 38 41  1  0  0  0  0
 39 43  1  0  0  0  0
 39 38  2  0  0  0  0
 40 36  1  0  0  0  0
 40 39  1  0  0  0  0
 42 44  1  0  0  0  0
 42 41  1  0  0  0  0
 43 42  2  0  0  0  0
 44 71  2  0  0  0  0
 45 78  1  0  0  0  0
 45 46  1  0  0  0  0
 47 46  1  0  0  0  0
 48 49  1  0  0  0  0
 48 47  2  0  0  0  0
 49 45  2  0  0  0  0
 50 47  1  0  0  0  0
 50 53  1  0  0  0  0
 51 50  2  0  0  0  0
 52 51  1  0  0  0  0
 52 48  1  0  0  0  0
 54 16  1  0  0  0  0
 54 53  1  0  0  0  0
 55 51  1  0  0  0  0
 55 54  2  0  0  0  0
 56 94  1  0  0  0  0
 56 52  1  0  0  0  0
 57 56  1  0  0  0  0
 57 96  1  0  0  0  0
 58 52  1  0  0  0  0
 58 59  1  0  0  0  0
 59103  1  0  0  0  0
 59101  1  0  0  0  0
 60 61  1  0  0  0  0
 60 40  1  0  0  0  0
 61108  1  0  0  0  0
 61106  1  0  0  0  0
 62 63  1  0  0  0  0
 62 40  1  0  0  0  0
 63111  1  0  0  0  0
 63113  1  0  0  0  0
 66  5  1  0  0  0  0
 67  6  1  0  0  0  0
 68 44  1  0  0  0  0
 68 69  1  0  0  0  0
 69 72  1  0  0  0  0
 69 70  2  0  0  0  0
 70 76  1  0  0  0  0
 71 70  1  0  0  0  0
 71114  1  0  0  0  0
 72 73  2  0  0  0  0
 73 74  1  0  0  0  0
 74 75  1  0  0  0  0
 74 83  2  0  0  0  0
 75 80  1  0  0  0  0
 76 75  1  0  0  0  0
 76 82  2  0  0  0  0
 77 78  1  0  0  0  0
 77 72  1  0  0  0  0
 78 79  2  0  0  0  0
 79 73  1  0  0  0  0
 79115  1  0  0  0  0
 80116  1  0  0  0  0
 80117  1  0  0  0  0
 80 81  1  0  0  0  0
 81119  1  0  0  0  0
 84  4  1  0  0  0  0
 88 23  1  0  0  0  0
 89 32  1  0  0  0  0
 90 37  1  0  0  0  0
 91 43  1  0  0  0  0
 92 49  1  0  0  0  0
 93 55  1  0  0  0  0
 95 56  1  0  0  0  0
 97 57  1  0  0  0  0
 98 57  1  0  0  0  0
 99 58  1  0  0  0  0
100 58  1  0  0  0  0
102 59  1  0  0  0  0
104 60  1  0  0  0  0
105 60  1  0  0  0  0
107 61  1  0  0  0  0
109 62  1  0  0  0  0
110 62  1  0  0  0  0
112 63  1  0  0  0  0
118 81  1  0  0  0  0
120 81  1  0  0  0  0
M  RAD  2  10   2  16   2
M  END
