BTP-ClBr.sdf
  xtb     12202114293D
 energy: -189.575514632630 gnorm: 0.000434876419 xtb: 6.4.1 (unknown)
 97108  0     0  0            999 V2000
    5.4518    5.8335    2.2103 C   0  0  0  0  0  0  0  0  0  0  0  0
    4.4689    5.1151    2.1700 O   0  0  0  0  0  0  0  0  0  0  0  0
    5.7739    6.8199    3.2635 C   0  0  0  0  0  0  0  0  0  0  0  0
    5.0533    7.1480    4.3997 C   0  0  0  0  0  0  0  0  0  0  0  0
    5.5866    8.1333    5.2385 C   0  0  0  0  0  0  0  0  0  0  0  0
    6.7896    8.7529    4.9385 C   0  0  0  0  0  0  0  0  0  0  0  0
    7.5063    8.4188    3.7984 C   0  0  0  0  0  0  0  0  0  0  0  0
    6.9957    7.4461    2.9545 C   0  0  0  0  0  0  0  0  0  0  0  0
    7.5034    6.8883    1.7002 C   0  0  0  0  0  0  0  0  0  0  0  0
    8.6870    7.2470    1.1046 C   0  0  0  0  0  0  0  0  0  0  0  0
    9.2034    6.7113   -0.0935 C   0  0  0  0  0  0  0  0  0  0  0  0
    9.6948    6.3239   -1.0574 N   0  0  0  0  0  0  0  0  0  0  0  0
    9.5744    8.2144    1.6211 C   0  0  0  0  0  0  0  0  0  0  0  0
   10.3391    8.9917    1.9803 N   0  0  0  0  0  0  0  0  0  0  0  0
    6.5428    5.9098    1.2407 C   0  0  0  0  0  0  0  0  0  0  0  0
    6.6356    5.1932    0.0685 C   0  0  0  0  0  0  0  0  0  0  0  0
    5.7935    4.2318   -0.4904 C   0  0  0  0  0  0  0  0  0  0  0  0
    4.2972    3.6435    0.2412 S   0  0  0  0  0  0  0  0  0  0  0  0
    4.0488    2.5805   -1.0914 C   0  0  0  0  0  0  0  0  0  0  0  0
    5.0721    2.6913   -2.0514 C   0  0  0  0  0  0  0  0  0  0  0  0
    6.0575    3.6110   -1.7271 C   0  0  0  0  0  0  0  0  0  0  0  0
    7.2644    3.8347   -2.5773 C   0  0  0  0  0  0  0  0  0  0  0  0
    8.4359    2.9772   -2.0894 C   0  0  0  0  0  0  0  0  0  0  0  0
    4.8544    1.6387   -3.4379 S   0  0  0  0  0  0  0  0  0  0  0  0
    3.3947    1.0537   -2.7204 C   0  0  0  0  0  0  0  0  0  0  0  0
    3.0985    1.6329   -1.4796 C   0  0  0  0  0  0  0  0  0  0  0  0
    1.9408    1.1004   -0.9791 N   0  0  0  0  0  0  0  0  0  0  0  0
    1.2676    1.7706    0.1122 C   0  0  0  0  0  0  0  0  0  0  0  0
    1.4704    0.1726   -1.8916 C   0  0  0  0  0  0  0  0  0  0  0  0
    2.3628    0.1530   -3.0064 C   0  0  0  0  0  0  0  0  0  0  0  0
    2.1044   -0.6117   -4.1656 C   0  0  0  0  0  0  0  0  0  0  0  0
    2.8180   -0.6953   -5.2774 N   0  0  0  0  0  0  0  0  0  0  0  0
    2.0360   -1.6580   -6.3171 S   0  0  0  0  0  0  0  0  0  0  0  0
    0.7585   -2.0082   -5.3871 N   0  0  0  0  0  0  0  0  0  0  0  0
    0.8998   -1.3829   -4.2289 C   0  0  0  0  0  0  0  0  0  0  0  0
    0.0672   -1.4377   -3.0892 C   0  0  0  0  0  0  0  0  0  0  0  0
    0.3633   -0.7184   -1.8936 C   0  0  0  0  0  0  0  0  0  0  0  0
   -0.5674   -1.0780   -0.9324 N   0  0  0  0  0  0  0  0  0  0  0  0
   -0.5316   -0.9321    0.5058 C   0  0  0  0  0  0  0  0  0  0  0  0
    0.7077   -1.5920    1.1047 C   0  0  0  0  0  0  0  0  0  0  0  0
   -1.4237   -1.9850   -1.4963 C   0  0  0  0  0  0  0  0  0  0  0  0
   -1.0721   -2.2102   -2.8319 C   0  0  0  0  0  0  0  0  0  0  0  0
   -2.0835   -3.3554   -3.6346 S   0  0  0  0  0  0  0  0  0  0  0  0
   -3.0033   -3.5568   -2.1574 C   0  0  0  0  0  0  0  0  0  0  0  0
   -2.5216   -2.7569   -1.1079 C   0  0  0  0  0  0  0  0  0  0  0  0
   -3.4319   -2.9941    0.3326 S   0  0  0  0  0  0  0  0  0  0  0  0
   -4.5112   -4.1112   -0.5070 C   0  0  0  0  0  0  0  0  0  0  0  0
   -4.1219   -4.3340   -1.8283 C   0  0  0  0  0  0  0  0  0  0  0  0
   -4.7365   -5.3598   -2.7175 C   0  0  0  0  0  0  0  0  0  0  0  0
   -3.7114   -6.1872   -3.4883 C   0  0  0  0  0  0  0  0  0  0  0  0
   -5.5351   -4.6790    0.2713 C   0  0  0  0  0  0  0  0  0  0  0  0
   -6.7770   -5.0833   -0.1502 C   0  0  0  0  0  0  0  0  0  0  0  0
   -7.7274   -5.8438    0.6282 C   0  0  0  0  0  0  0  0  0  0  0  0
   -7.4553   -6.5632    1.7636 C   0  0  0  0  0  0  0  0  0  0  0  0
   -6.1752   -6.6812    2.3451 C   0  0  0  0  0  0  0  0  0  0  0  0
   -5.1583   -6.8406    2.8541 N   0  0  0  0  0  0  0  0  0  0  0  0
   -8.4144   -7.3091    2.4790 C   0  0  0  0  0  0  0  0  0  0  0  0
   -9.1518   -7.9266    3.1055 N   0  0  0  0  0  0  0  0  0  0  0  0
   -9.0112   -5.7963   -0.0667 C   0  0  0  0  0  0  0  0  0  0  0  0
  -10.2465   -6.3323    0.2593 C   0  0  0  0  0  0  0  0  0  0  0  0
  -11.3074   -6.1304   -0.6112 C   0  0  0  0  0  0  0  0  0  0  0  0
  -11.1456   -5.4098   -1.7845 C   0  0  0  0  0  0  0  0  0  0  0  0
   -9.9071   -4.8551   -2.1285 C   0  0  0  0  0  0  0  0  0  0  0  0
   -8.8512   -5.0613   -1.2560 C   0  0  0  0  0  0  0  0  0  0  0  0
   -7.4536   -4.5782   -1.3610 C   0  0  0  0  0  0  0  0  0  0  0  0
   -7.0026   -3.8382   -2.2084 O   0  0  0  0  0  0  0  0  0  0  0  0
    0.0015    2.4783   -0.3633 C   0  0  0  0  0  0  0  0  0  0  0  0
    3.5678    6.3810    4.7656 Cl  0  0  0  0  0  0  0  0  0  0  0  0
   -9.7065   -3.9635   -3.5759 Cl  0  0  0  0  0  0  0  0  0  0  0  0
    4.6573    8.6342    6.8062 Br  0  0  0  0  0  0  0  0  0  0  0  0
  -12.6286   -5.1762   -2.9322 Br  0  0  0  0  0  0  0  0  0  0  0  0
    7.1703    9.5091    5.6076 H   0  0  0  0  0  0  0  0  0  0  0  0
    8.4372    8.9197    3.5931 H   0  0  0  0  0  0  0  0  0  0  0  0
    7.5051    5.4024   -0.5392 H   0  0  0  0  0  0  0  0  0  0  0  0
    7.0172    3.5494   -3.6017 H   0  0  0  0  0  0  0  0  0  0  0  0
    7.5597    4.8847   -2.5763 H   0  0  0  0  0  0  0  0  0  0  0  0
    9.2995    3.1390   -2.7276 H   0  0  0  0  0  0  0  0  0  0  0  0
    8.7084    3.2403   -1.0701 H   0  0  0  0  0  0  0  0  0  0  0  0
    8.1709    1.9229   -2.1185 H   0  0  0  0  0  0  0  0  0  0  0  0
    1.9693    2.5127    0.5002 H   0  0  0  0  0  0  0  0  0  0  0  0
    1.0605    1.0730    0.9236 H   0  0  0  0  0  0  0  0  0  0  0  0
   -1.4247   -1.4305    0.8906 H   0  0  0  0  0  0  0  0  0  0  0  0
   -0.6063    0.1182    0.7867 H   0  0  0  0  0  0  0  0  0  0  0  0
    0.7163   -1.4535    2.1823 H   0  0  0  0  0  0  0  0  0  0  0  0
    1.6202   -1.1721    0.6877 H   0  0  0  0  0  0  0  0  0  0  0  0
    0.6984   -2.6589    0.8942 H   0  0  0  0  0  0  0  0  0  0  0  0
   -5.3559   -6.0241   -2.1102 H   0  0  0  0  0  0  0  0  0  0  0  0
   -5.4028   -4.8495   -3.4204 H   0  0  0  0  0  0  0  0  0  0  0  0
   -4.2187   -6.9950   -4.0096 H   0  0  0  0  0  0  0  0  0  0  0  0
   -3.1878   -5.5851   -4.2249 H   0  0  0  0  0  0  0  0  0  0  0  0
   -2.9811   -6.6210   -2.8087 H   0  0  0  0  0  0  0  0  0  0  0  0
   -5.3186   -4.7444    1.3318 H   0  0  0  0  0  0  0  0  0  0  0  0
  -10.4014   -6.8919    1.1666 H   0  0  0  0  0  0  0  0  0  0  0  0
  -12.2785   -6.5382   -0.3768 H   0  0  0  0  0  0  0  0  0  0  0  0
   -0.6947    1.7810   -0.8238 H   0  0  0  0  0  0  0  0  0  0  0  0
    0.2555    3.2383   -1.0985 H   0  0  0  0  0  0  0  0  0  0  0  0
   -0.4881    2.9625    0.4771 H   0  0  0  0  0  0  0  0  0  0  0  0
  1  2  2  0  0  0  0
  1  3  1  0  0  0  0
  3  4  2  0  0  0  0
  4  5  1  0  0  0  0
  5  6  2  0  0  0  0
  6  7  1  0  0  0  0
  7  8  2  0  0  0  0
  3  8  1  0  0  0  0
  8  9  1  0  0  0  0
  9 10  2  0  0  0  0
 10 11  1  0  0  0  0
 11 12  3  0  0  0  0
 10 13  1  0  0  0  0
 13 14  3  0  0  0  0
  9 15  1  0  0  0  0
  1 15  1  0  0  0  0
 15 16  2  0  0  0  0
 16 17  1  0  0  0  0
 17 18  1  0  0  0  0
 18 19  1  0  0  0  0
 19 20  2  0  0  0  0
 20 21  1  0  0  0  0
 21 22  1  0  0  0  0
 22 23  1  0  0  0  0
 17 21  2  0  0  0  0
 20 24  1  0  0  0  0
 24 25  1  0  0  0  0
 25 26  2  0  0  0  0
 19 26  1  0  0  0  0
 26 27  1  0  0  0  0
 27 28  1  0  0  0  0
 27 29  1  0  0  0  0
 29 30  2  0  0  0  0
 25 30  1  0  0  0  0
 30 31  1  0  0  0  0
 31 32  2  0  0  0  0
 32 33  1  0  0  0  0
 33 34  1  0  0  0  0
 34 35  2  0  0  0  0
 31 35  1  0  0  0  0
 35 36  1  0  0  0  0
 36 37  2  0  0  0  0
 29 37  1  0  0  0  0
 37 38  1  0  0  0  0
 38 39  1  0  0  0  0
 39 40  1  0  0  0  0
 38 41  1  0  0  0  0
 41 42  2  0  0  0  0
 36 42  1  0  0  0  0
 42 43  1  0  0  0  0
 43 44  1  0  0  0  0
 44 45  2  0  0  0  0
 41 45  1  0  0  0  0
 45 46  1  0  0  0  0
 46 47  1  0  0  0  0
 47 48  2  0  0  0  0
 44 48  1  0  0  0  0
 48 49  1  0  0  0  0
 49 50  1  0  0  0  0
 47 51  1  0  0  0  0
 51 52  2  0  0  0  0
 52 53  1  0  0  0  0
 53 54  2  0  0  0  0
 54 55  1  0  0  0  0
 55 56  3  0  0  0  0
 54 57  1  0  0  0  0
 57 58  3  0  0  0  0
 53 59  1  0  0  0  0
 59 60  2  0  0  0  0
 60 61  1  0  0  0  0
 61 62  2  0  0  0  0
 62 63  1  0  0  0  0
 63 64  2  0  0  0  0
 59 64  1  0  0  0  0
 64 65  1  0  0  0  0
 65 66  2  0  0  0  0
 52 65  1  0  0  0  0
 28 67  1  0  0  0  0
  4 68  1  0  0  0  0
 63 69  1  0  0  0  0
  5 70  1  0  0  0  0
 62 71  1  0  0  0  0
  6 72  1  0  0  0  0
  7 73  1  0  0  0  0
 16 74  1  0  0  0  0
 22 75  1  0  0  0  0
 22 76  1  0  0  0  0
 23 77  1  0  0  0  0
 23 78  1  0  0  0  0
 23 79  1  0  0  0  0
 28 80  1  0  0  0  0
 28 81  1  0  0  0  0
 39 82  1  0  0  0  0
 39 83  1  0  0  0  0
 40 84  1  0  0  0  0
 40 85  1  0  0  0  0
 40 86  1  0  0  0  0
 49 87  1  0  0  0  0
 49 88  1  0  0  0  0
 50 89  1  0  0  0  0
 50 90  1  0  0  0  0
 50 91  1  0  0  0  0
 51 92  1  0  0  0  0
 60 93  1  0  0  0  0
 61 94  1  0  0  0  0
 67 95  1  0  0  0  0
 67 96  1  0  0  0  0
 67 97  1  0  0  0  0
M  END
