BTP-6F.sdf
  xtb     12202114283D
 energy: -199.657718631804 gnorm: 0.000421251591 xtb: 6.4.1 (unknown)
 97108  0     0  0            999 V2000
    3.0040   -2.4980    7.5060 C   0  0  0  0  0  0  0  0  0  0  0  0
    2.2925   -2.1105    6.5992 O   0  0  0  0  0  0  0  0  0  0  0  0
    2.5978   -2.7021    8.9164 C   0  0  0  0  0  0  0  0  0  0  0  0
    1.3647   -2.5182    9.5147 C   0  0  0  0  0  0  0  0  0  0  0  0
    1.2307   -2.7839   10.8794 C   0  0  0  0  0  0  0  0  0  0  0  0
    0.0520   -2.6155   11.4842 F   0  0  0  0  0  0  0  0  0  0  0  0
    2.3352   -3.2261   11.6036 C   0  0  0  0  0  0  0  0  0  0  0  0
    2.1919   -3.4777   12.9067 F   0  0  0  0  0  0  0  0  0  0  0  0
    3.5779   -3.4128   11.0140 C   0  0  0  0  0  0  0  0  0  0  0  0
    3.7043   -3.1468    9.6616 C   0  0  0  0  0  0  0  0  0  0  0  0
    4.8611   -3.2423    8.7664 C   0  0  0  0  0  0  0  0  0  0  0  0
    6.1220   -3.6211    9.1546 C   0  0  0  0  0  0  0  0  0  0  0  0
    7.2517   -3.7089    8.3144 C   0  0  0  0  0  0  0  0  0  0  0  0
    8.2183   -3.8025    7.7001 N   0  0  0  0  0  0  0  0  0  0  0  0
    6.4736   -3.9771   10.4739 C   0  0  0  0  0  0  0  0  0  0  0  0
    6.8276   -4.2759   11.5240 N   0  0  0  0  0  0  0  0  0  0  0  0
    4.4200   -2.8548    7.4462 C   0  0  0  0  0  0  0  0  0  0  0  0
    5.2122   -2.8325    6.3179 C   0  0  0  0  0  0  0  0  0  0  0  0
    4.9274   -2.4747    5.0018 C   0  0  0  0  0  0  0  0  0  0  0  0
    3.3623   -1.8973    4.4203 S   0  0  0  0  0  0  0  0  0  0  0  0
    4.0023   -1.7268    2.8310 C   0  0  0  0  0  0  0  0  0  0  0  0
    5.3574   -2.1064    2.7634 C   0  0  0  0  0  0  0  0  0  0  0  0
    5.8897   -2.5250    3.9719 C   0  0  0  0  0  0  0  0  0  0  0  0
    7.2924   -3.0163    4.1134 C   0  0  0  0  0  0  0  0  0  0  0  0
    6.0568   -1.9395    1.1631 S   0  0  0  0  0  0  0  0  0  0  0  0
    4.5321   -1.3555    0.5958 C   0  0  0  0  0  0  0  0  0  0  0  0
    3.5378   -1.3056    1.5830 C   0  0  0  0  0  0  0  0  0  0  0  0
    2.3709   -0.8323    1.0475 N   0  0  0  0  0  0  0  0  0  0  0  0
    2.5966   -0.5582   -0.2891 C   0  0  0  0  0  0  0  0  0  0  0  0
    3.9611   -0.8638   -0.5822 C   0  0  0  0  0  0  0  0  0  0  0  0
    4.5431   -0.5845   -1.8393 C   0  0  0  0  0  0  0  0  0  0  0  0
    5.7878   -0.7921   -2.2382 N   0  0  0  0  0  0  0  0  0  0  0  0
    5.9464   -0.2176   -3.7431 S   0  0  0  0  0  0  0  0  0  0  0  0
    4.4318    0.3170   -3.9430 N   0  0  0  0  0  0  0  0  0  0  0  0
    3.7482    0.0623   -2.8387 C   0  0  0  0  0  0  0  0  0  0  0  0
    2.3805    0.2988   -2.5733 C   0  0  0  0  0  0  0  0  0  0  0  0
    1.7693   -0.0709   -1.3362 C   0  0  0  0  0  0  0  0  0  0  0  0
    0.4120    0.1778   -1.4337 N   0  0  0  0  0  0  0  0  0  0  0  0
    0.1703    0.7093   -2.6717 C   0  0  0  0  0  0  0  0  0  0  0  0
    1.3693    0.8134   -3.3909 C   0  0  0  0  0  0  0  0  0  0  0  0
    1.1846    1.4903   -4.9705 S   0  0  0  0  0  0  0  0  0  0  0  0
   -0.5371    1.6385   -4.6670 C   0  0  0  0  0  0  0  0  0  0  0  0
   -0.9298    1.1714   -3.3972 C   0  0  0  0  0  0  0  0  0  0  0  0
   -2.6268    1.3231   -3.1496 S   0  0  0  0  0  0  0  0  0  0  0  0
   -2.8090    2.0406   -4.7539 C   0  0  0  0  0  0  0  0  0  0  0  0
   -1.5773    2.1366   -5.4344 C   0  0  0  0  0  0  0  0  0  0  0  0
   -1.3864    2.6508   -6.8231 C   0  0  0  0  0  0  0  0  0  0  0  0
   -4.0101    2.4867   -5.3014 C   0  0  0  0  0  0  0  0  0  0  0  0
   -5.2970    2.4686   -4.8065 C   0  0  0  0  0  0  0  0  0  0  0  0
   -6.4590    2.9949   -5.4849 C   0  0  0  0  0  0  0  0  0  0  0  0
   -6.5073    3.6304   -6.7007 C   0  0  0  0  0  0  0  0  0  0  0  0
   -7.6888    4.1265   -7.2911 C   0  0  0  0  0  0  0  0  0  0  0  0
   -8.6102    4.5518   -7.8272 N   0  0  0  0  0  0  0  0  0  0  0  0
   -5.4027    3.8904   -7.5386 C   0  0  0  0  0  0  0  0  0  0  0  0
   -4.5587    4.1416   -8.2768 N   0  0  0  0  0  0  0  0  0  0  0  0
   -7.6201    2.7454   -4.6255 C   0  0  0  0  0  0  0  0  0  0  0  0
   -8.9611    3.0390   -4.8020 C   0  0  0  0  0  0  0  0  0  0  0  0
   -9.8476    2.6759   -3.7974 C   0  0  0  0  0  0  0  0  0  0  0  0
  -11.1453    2.9495   -3.9482 F   0  0  0  0  0  0  0  0  0  0  0  0
   -9.4273    2.0337   -2.6351 C   0  0  0  0  0  0  0  0  0  0  0  0
  -10.3121    1.7007   -1.6918 F   0  0  0  0  0  0  0  0  0  0  0  0
   -8.0727    1.7402   -2.4631 C   0  0  0  0  0  0  0  0  0  0  0  0
   -7.1806    2.0972   -3.4577 C   0  0  0  0  0  0  0  0  0  0  0  0
   -5.7126    1.9064   -3.5231 C   0  0  0  0  0  0  0  0  0  0  0  0
   -5.0145    1.3866   -2.6739 O   0  0  0  0  0  0  0  0  0  0  0  0
    1.3085   -0.3996    1.9295 C   0  0  0  0  0  0  0  0  0  0  0  0
   -0.6936   -0.3371   -0.6541 C   0  0  0  0  0  0  0  0  0  0  0  0
    0.3093   -2.0966    8.8239 F   0  0  0  0  0  0  0  0  0  0  0  0
   -7.6721    1.1266   -1.3532 F   0  0  0  0  0  0  0  0  0  0  0  0
   -1.7007    1.5643   -7.8556 C   0  0  0  0  0  0  0  0  0  0  0  0
   -0.6888   -1.8631   -0.6210 C   0  0  0  0  0  0  0  0  0  0  0  0
    1.1986    1.1223    1.9661 C   0  0  0  0  0  0  0  0  0  0  0  0
    7.3427   -4.5449    4.0316 C   0  0  0  0  0  0  0  0  0  0  0  0
    4.3946   -3.7567   11.6264 H   0  0  0  0  0  0  0  0  0  0  0  0
    6.2370   -3.1451    6.4622 H   0  0  0  0  0  0  0  0  0  0  0  0
    7.7313   -2.6897    5.0572 H   0  0  0  0  0  0  0  0  0  0  0  0
    7.8844   -2.5971    3.2976 H   0  0  0  0  0  0  0  0  0  0  0  0
   -0.3435    2.9543   -6.9332 H   0  0  0  0  0  0  0  0  0  0  0  0
   -2.0170    3.5212   -7.0102 H   0  0  0  0  0  0  0  0  0  0  0  0
   -3.8953    2.9195   -6.2855 H   0  0  0  0  0  0  0  0  0  0  0  0
   -9.3467    3.5333   -5.6780 H   0  0  0  0  0  0  0  0  0  0  0  0
    1.5642   -0.7648    2.9269 H   0  0  0  0  0  0  0  0  0  0  0  0
    0.3642   -0.8665    1.6508 H   0  0  0  0  0  0  0  0  0  0  0  0
   -1.6069    0.0086   -1.1438 H   0  0  0  0  0  0  0  0  0  0  0  0
   -0.6888    0.0884    0.3491 H   0  0  0  0  0  0  0  0  0  0  0  0
   -1.5427    1.9539   -8.8569 H   0  0  0  0  0  0  0  0  0  0  0  0
   -1.0523    0.7038   -7.7086 H   0  0  0  0  0  0  0  0  0  0  0  0
   -2.7349    1.2388   -7.7716 H   0  0  0  0  0  0  0  0  0  0  0  0
    0.2378   -2.2493   -0.2024 H   0  0  0  0  0  0  0  0  0  0  0  0
   -1.5218   -2.2205   -0.0222 H   0  0  0  0  0  0  0  0  0  0  0  0
   -0.7953   -2.2569   -1.6292 H   0  0  0  0  0  0  0  0  0  0  0  0
    1.0136    1.5320    0.9757 H   0  0  0  0  0  0  0  0  0  0  0  0
    0.3878    1.4166    2.6265 H   0  0  0  0  0  0  0  0  0  0  0  0
    2.1235    1.5523    2.3435 H   0  0  0  0  0  0  0  0  0  0  0  0
    6.9451   -4.8860    3.0787 H   0  0  0  0  0  0  0  0  0  0  0  0
    6.7600   -4.9942    4.8323 H   0  0  0  0  0  0  0  0  0  0  0  0
    8.3707   -4.8832    4.1229 H   0  0  0  0  0  0  0  0  0  0  0  0
  1  2  2  0  0  0  0
  1  3  1  0  0  0  0
  3  4  2  0  0  0  0
  4  5  1  0  0  0  0
  5  6  1  0  0  0  0
  5  7  2  0  0  0  0
  7  8  1  0  0  0  0
  7  9  1  0  0  0  0
  9 10  2  0  0  0  0
  3 10  1  0  0  0  0
 10 11  1  0  0  0  0
 11 12  2  0  0  0  0
 12 13  1  0  0  0  0
 13 14  3  0  0  0  0
 12 15  1  0  0  0  0
 15 16  3  0  0  0  0
 11 17  1  0  0  0  0
  1 17  1  0  0  0  0
 17 18  2  0  0  0  0
 18 19  1  0  0  0  0
 19 20  1  0  0  0  0
 20 21  1  0  0  0  0
 21 22  2  0  0  0  0
 22 23  1  0  0  0  0
 23 24  1  0  0  0  0
 19 23  2  0  0  0  0
 22 25  1  0  0  0  0
 25 26  1  0  0  0  0
 26 27  2  0  0  0  0
 21 27  1  0  0  0  0
 27 28  1  0  0  0  0
 28 29  1  0  0  0  0
 29 30  2  0  0  0  0
 26 30  1  0  0  0  0
 30 31  1  0  0  0  0
 31 32  2  0  0  0  0
 32 33  1  0  0  0  0
 33 34  1  0  0  0  0
 34 35  2  0  0  0  0
 31 35  1  0  0  0  0
 35 36  1  0  0  0  0
 36 37  2  0  0  0  0
 29 37  1  0  0  0  0
 37 38  1  0  0  0  0
 38 39  1  0  0  0  0
 39 40  2  0  0  0  0
 36 40  1  0  0  0  0
 40 41  1  0  0  0  0
 41 42  1  0  0  0  0
 42 43  2  0  0  0  0
 39 43  1  0  0  0  0
 43 44  1  0  0  0  0
 44 45  1  0  0  0  0
 45 46  2  0  0  0  0
 42 46  1  0  0  0  0
 46 47  1  0  0  0  0
 45 48  1  0  0  0  0
 48 49  2  0  0  0  0
 49 50  1  0  0  0  0
 50 51  2  0  0  0  0
 51 52  1  0  0  0  0
 52 53  3  0  0  0  0
 51 54  1  0  0  0  0
 54 55  3  0  0  0  0
 50 56  1  0  0  0  0
 56 57  2  0  0  0  0
 57 58  1  0  0  0  0
 58 59  1  0  0  0  0
 58 60  2  0  0  0  0
 60 61  1  0  0  0  0
 60 62  1  0  0  0  0
 62 63  2  0  0  0  0
 56 63  1  0  0  0  0
 63 64  1  0  0  0  0
 64 65  2  0  0  0  0
 49 64  1  0  0  0  0
 28 66  1  0  0  0  0
 38 67  1  0  0  0  0
  4 68  1  0  0  0  0
 62 69  1  0  0  0  0
 47 70  1  0  0  0  0
 67 71  1  0  0  0  0
 66 72  1  0  0  0  0
 24 73  1  0  0  0  0
  9 74  1  0  0  0  0
 18 75  1  0  0  0  0
 24 76  1  0  0  0  0
 24 77  1  0  0  0  0
 47 78  1  0  0  0  0
 47 79  1  0  0  0  0
 48 80  1  0  0  0  0
 57 81  1  0  0  0  0
 66 82  1  0  0  0  0
 66 83  1  0  0  0  0
 67 84  1  0  0  0  0
 67 85  1  0  0  0  0
 70 86  1  0  0  0  0
 70 87  1  0  0  0  0
 70 88  1  0  0  0  0
 71 89  1  0  0  0  0
 71 90  1  0  0  0  0
 71 91  1  0  0  0  0
 72 92  1  0  0  0  0
 72 93  1  0  0  0  0
 72 94  1  0  0  0  0
 73 95  1  0  0  0  0
 73 96  1  0  0  0  0
 73 97  1  0  0  0  0
M  END
