SCF done       -202.870319153206          0.000482880150
 OpenBabel12282109493D

108118  0  0  1  0  0  0  0  0999 V2000
    4.4214    0.9984    0.2461 C   0  0  0  0  0  0  0  0  0  0  0  0
    4.9698    0.4456    1.1784 O   0  0  0  0  0  0  0  0  0  0  0  0
    5.0421    1.3440   -1.0524 C   0  0  0  0  0  0  0  0  0  0  0  0
    6.3621    1.2058   -1.4323 C   0  0  0  0  0  0  0  0  0  0  0  0
    6.7020    1.5800   -2.7225 C   0  0  0  0  0  0  0  0  0  0  0  0
    7.9715    1.4694   -3.1316 F   0  0  0  0  0  0  0  0  0  0  0  0
    5.7338    2.0692   -3.5997 C   0  0  0  0  0  0  0  0  0  0  0  0
    6.0892    2.4158   -4.8418 F   0  0  0  0  0  0  0  0  0  0  0  0
    4.4068    2.2038   -3.2191 C   0  0  0  0  0  0  0  0  0  0  0  0
    4.0607    1.8371   -1.9280 C   0  0  0  0  0  0  0  0  0  0  0  0
    2.7784    1.8656   -1.2262 C   0  0  0  0  0  0  0  0  0  0  0  0
    1.6106    2.3826   -1.7225 C   0  0  0  0  0  0  0  0  0  0  0  0
    0.4047    2.5054   -0.9993 C   0  0  0  0  0  0  0  0  0  0  0  0
   -0.6008    2.6625   -0.4673 N   0  0  0  0  0  0  0  0  0  0  0  0
    1.4656    2.8935   -3.0300 C   0  0  0  0  0  0  0  0  0  0  0  0
    1.2848    3.3149   -4.0820 N   0  0  0  0  0  0  0  0  0  0  0  0
    2.9972    1.3436    0.1081 C   0  0  1  0  0  0  0  0  0  0  0  0
    2.0056    1.0436    1.0081 C   0  0  0  0  0  0  0  0  0  0  0  0
    2.0846    0.7181    2.3741 C   0  0  2  0  0  0  0  0  0  0  0  0
    0.7302   -0.2736    2.9456 S   0  0  0  0  0  0  0  0  0  0  0  0
    1.3593   -0.2836    4.5462 C   0  0  1  0  0  0  0  0  0  0  0  0
    2.5227    0.4971    4.6222 C   0  0  0  0  0  0  0  0  0  0  0  0
    2.9428    1.0718    3.4173 C   0  0  0  0  0  0  0  0  0  0  0  0
    4.0891    2.0227    3.3833 C   0  0  0  0  0  0  0  0  0  0  0  0
    3.7306    3.3843    2.7916 C   0  0  0  0  0  0  0  0  0  0  0  0
    3.1816    0.6016    6.2384 S   0  0  0  0  0  0  0  0  0  0  0  0
    1.8916   -0.4032    6.8000 C   0  0  0  0  0  0  0  0  0  0  0  0
    1.0075   -0.8158    5.7901 C   0  0  0  0  0  0  0  0  0  0  0  0
    0.0046   -1.5750    6.3284 N   0  0  0  0  0  0  0  0  0  0  0  0
   -1.2172   -1.8092    5.5858 C   0  0  0  0  0  0  0  0  0  0  0  0
    0.2273   -1.6507    7.6952 C   0  0  0  0  0  0  0  0  0  0  0  0
    1.3915   -0.8921    8.0109 C   0  0  2  0  0  0  0  0  0  0  0  0
    1.7491   -0.6529    9.3557 C   0  0  0  0  0  0  0  0  0  0  0  0
    2.7423    0.0414    9.9127 N   0  0  0  0  0  0  0  0  0  0  0  0
    2.4858   -0.0081   11.1953 N   0  0  0  0  0  0  0  0  0  0  0  0
    1.4129   -0.6706   11.5521 N   0  0  0  0  0  0  0  0  0  0  0  0
    0.9022   -1.1083   10.4020 C   0  0  0  0  0  0  0  0  0  0  0  0
   -0.2088   -1.9267   10.0971 C   0  0  1  0  0  0  0  0  0  0  0  0
   -0.4860   -2.2885    8.7392 C   0  0  0  0  0  0  0  0  0  0  0  0
   -1.4995   -3.2107    8.7186 N   0  0  0  0  0  0  0  0  0  0  0  0
   -1.7897   -4.1785    7.6833 C   0  0  0  0  0  0  0  0  0  0  0  0
   -1.6571   -5.6100    8.1970 C   0  0  0  0  0  0  0  0  0  0  0  0
   -1.9354   -3.4007   10.0128 C   0  0  0  0  0  0  0  0  0  0  0  0
   -1.1375   -2.5933   10.8913 C   0  0  0  0  0  0  0  0  0  0  0  0
   -1.5776   -2.7044   12.5247 S   0  0  0  0  0  0  0  0  0  0  0  0
   -2.9072   -3.9512   11.9804 C   0  0  0  0  0  0  0  0  0  0  0  0
   -2.9111   -4.1640   10.6002 C   0  0  0  0  0  0  0  0  0  0  0  0
   -3.1539   -5.4958   15.3632 S   0  0  0  0  0  0  0  0  0  0  0  0
   -3.5135   -4.2394   14.3388 C   0  0  0  0  0  0  0  0  0  0  0  0
   -3.6790   -4.5417   12.9201 C   0  0  2  0  0  0  0  0  0  0  0  0
   -4.7051   -5.5639   12.5466 C   0  0  0  0  0  0  0  0  0  0  0  0
   -6.1064   -4.9824   12.7518 C   0  0  0  0  0  0  0  0  0  0  0  0
   -3.6624   -2.9217   14.8408 C   0  0  0  0  0  0  0  0  0  0  0  0
   -1.0522   -2.8685    4.4984 C   0  0  0  0  0  0  0  0  0  0  0  0
   -4.3651   -0.6042   14.6646 C   0  0  0  0  0  0  0  0  0  0  0  0
   -4.8784    0.4645   13.9754 C   0  0  0  0  0  0  0  0  0  0  0  0
   -5.0786    1.8085   14.4783 C   0  0  0  0  0  0  0  0  0  0  0  0
   -4.7677    2.2830   15.7265 C   0  0  0  0  0  0  0  0  0  0  0  0
   -4.9920    3.6119   16.1460 C   0  0  0  0  0  0  0  0  0  0  0  0
   -5.1448    4.6761   16.5477 N   0  0  0  0  0  0  0  0  0  0  0  0
   -4.1804    1.5372   16.7709 C   0  0  0  0  0  0  0  0  0  0  0  0
   -3.7080    1.0089   17.6742 N   0  0  0  0  0  0  0  0  0  0  0  0
   -5.6801    2.5988   13.4034 C   0  0  0  0  0  0  0  0  0  0  0  0
   -6.0874    3.9235   13.3585 C   0  0  0  0  0  0  0  0  0  0  0  0
   -6.6355    4.3976   12.1758 C   0  0  0  0  0  0  0  0  0  0  0  0
   -7.0346    5.6722   12.1131 F   0  0  0  0  0  0  0  0  0  0  0  0
   -6.7801    3.5800   11.0544 C   0  0  0  0  0  0  0  0  0  0  0  0
   -7.3138    4.0797    9.9332 F   0  0  0  0  0  0  0  0  0  0  0  0
   -6.3761    2.2554   11.0915 C   0  0  0  0  0  0  0  0  0  0  0  0
   -5.8310    1.7837   12.2693 C   0  0  0  0  0  0  0  0  0  0  0  0
   -5.3348    0.4211   12.5650 C   0  0  0  0  0  0  0  0  0  0  0  0
   -5.3184   -0.5144   11.7937 O   0  0  0  0  0  0  0  0  0  0  0  0
   -4.1982   -1.8922   14.1208 C   0  0  0  0  0  0  0  0  0  0  0  0
    3.3610    0.5858   12.1640 C   0  0  0  0  0  0  0  0  0  0  0  0
    4.3858   -0.4324   12.6553 C   0  0  0  0  0  0  0  0  0  0  0  0
    7.1072    0.8231   -0.7533 H   0  0  0  0  0  0  0  0  0  0  0  0
    3.6959    2.5809   -3.9357 H   0  0  0  0  0  0  0  0  0  0  0  0
    0.9964    0.9963    0.6127 H   0  0  0  0  0  0  0  0  0  0  0  0
    4.4436    2.1547    4.4080 H   0  0  0  0  0  0  0  0  0  0  0  0
    4.9002    1.5720    2.8033 H   0  0  0  0  0  0  0  0  0  0  0  0
    2.9054    3.8319    3.3415 H   0  0  0  0  0  0  0  0  0  0  0  0
    4.5887    4.0479    2.8566 H   0  0  0  0  0  0  0  0  0  0  0  0
    3.4411    3.3003    1.7475 H   0  0  0  0  0  0  0  0  0  0  0  0
   -1.5005   -0.8647    5.1065 H   0  0  0  0  0  0  0  0  0  0  0  0
   -2.0076   -2.0761    6.2861 H   0  0  0  0  0  0  0  0  0  0  0  0
   -2.8080   -4.0250    7.3091 H   0  0  0  0  0  0  0  0  0  0  0  0
   -1.0730   -4.0307    6.8786 H   0  0  0  0  0  0  0  0  0  0  0  0
   -2.3829   -5.7973    8.9847 H   0  0  0  0  0  0  0  0  0  0  0  0
   -1.8330   -6.3032    7.3790 H   0  0  0  0  0  0  0  0  0  0  0  0
   -0.6590   -5.7813    8.5942 H   0  0  0  0  0  0  0  0  0  0  0  0
   -4.5694   -5.8536   11.5055 H   0  0  0  0  0  0  0  0  0  0  0  0
   -4.5800   -6.4375   13.1901 H   0  0  0  0  0  0  0  0  0  0  0  0
   -6.2423   -4.0998   12.1312 H   0  0  0  0  0  0  0  0  0  0  0  0
   -6.8548   -5.7203   12.4761 H   0  0  0  0  0  0  0  0  0  0  0  0
   -6.2597   -4.7038   13.7924 H   0  0  0  0  0  0  0  0  0  0  0  0
   -3.3907   -2.7697   15.8779 H   0  0  0  0  0  0  0  0  0  0  0  0
   -0.3410   -2.5340    3.7487 H   0  0  0  0  0  0  0  0  0  0  0  0
   -0.6977   -3.8139    4.9008 H   0  0  0  0  0  0  0  0  0  0  0  0
   -2.0086   -3.0358    4.0116 H   0  0  0  0  0  0  0  0  0  0  0  0
   -4.0581   -0.4665   15.6930 H   0  0  0  0  0  0  0  0  0  0  0  0
   -5.9995    4.5969   14.1949 H   0  0  0  0  0  0  0  0  0  0  0  0
   -6.4875    1.6185   10.2285 H   0  0  0  0  0  0  0  0  0  0  0  0
   -4.5074   -2.0553   13.0990 H   0  0  0  0  0  0  0  0  0  0  0  0
    3.8581    1.4284   11.6800 H   0  0  0  0  0  0  0  0  0  0  0  0
    2.7447    0.9359   12.9944 H   0  0  0  0  0  0  0  0  0  0  0  0
    4.9898   -0.7887   11.8244 H   0  0  0  0  0  0  0  0  0  0  0  0
    5.0384    0.0274   13.3917 H   0  0  0  0  0  0  0  0  0  0  0  0
    3.8804   -1.2790   13.1137 H   0  0  0  0  0  0  0  0  0  0  0  0
  1  2  2  0  0  0  0
  3  1  1  0  0  0  0
  4  3  1  0  0  0  0
  4 76  1  0  0  0  0
  5  4  2  0  0  0  0
  6  5  1  0  0  0  0
  7  9  2  0  0  0  0
  7  5  1  0  0  0  0
  8  7  1  0  0  0  0
  9 10  1  0  0  0  0
 10 11  1  0  0  0  0
 10  3  2  0  0  0  0
 11 17  1  0  0  0  0
 12 11  2  0  0  0  0
 12 13  1  0  0  0  0
 13 14  3  0  0  0  0
 15 12  1  0  0  0  0
 16 15  3  0  0  0  0
 17  1  1  0  0  0  0
 17 18  1  6  0  0  0
 19 18  1  1  0  0  0
 19 20  1  0  0  0  0
 19 23  1  0  0  0  0
 21 20  1  1  0  0  0
 21 22  1  0  0  0  0
 21 28  1  0  0  0  0
 22 26  1  0  0  0  0
 23 22  2  0  0  0  0
 24 23  1  0  0  0  0
 24 79  1  0  0  0  0
 25 82  1  0  0  0  0
 25 81  1  0  0  0  0
 25 24  1  0  0  0  0
 26 27  1  0  0  0  0
 28 29  1  0  0  0  0
 28 27  2  0  0  0  0
 29 31  1  0  0  0  0
 30 85  1  0  0  0  0
 30 29  1  0  0  0  0
 31 32  1  0  0  0  0
 31 39  2  0  0  0  0
 32 27  1  6  0  0  0
 32 33  1  0  0  0  0
 33 34  2  0  0  0  0
 33 37  1  0  0  0  0
 34 35  1  0  0  0  0
 35 36  1  0  0  0  0
 35 74  1  0  0  0  0
 37 36  2  0  0  0  0
 38 39  1  1  0  0  0
 38 37  1  0  0  0  0
 38 44  1  0  0  0  0
 40 39  1  0  0  0  0
 40 43  1  0  0  0  0
 41 42  1  0  0  0  0
 41 40  1  0  0  0  0
 42 90  1  0  0  0  0
 42 88  1  0  0  0  0
 43 47  1  0  0  0  0
 43 44  2  0  0  0  0
 44 45  1  0  0  0  0
 46 45  1  0  0  0  0
 46 50  1  0  0  0  0
 47 46  2  0  0  0  0
 49 53  1  0  0  0  0
 49 48  2  0  0  0  0
 50 49  1  1  0  0  0
 51 52  1  0  0  0  0
 51 50  1  0  0  0  0
 51 92  1  0  0  0  0
 52 95  1  0  0  0  0
 53 96  1  0  0  0  0
 54 98  1  0  0  0  0
 54 30  1  0  0  0  0
 55100  1  0  0  0  0
 56 57  2  0  0  0  0
 56 55  1  0  0  0  0
 57 58  1  0  0  0  0
 58 59  1  0  0  0  0
 58 61  1  0  0  0  0
 59 60  3  0  0  0  0
 61 62  3  0  0  0  0
 63 57  1  0  0  0  0
 64 63  1  0  0  0  0
 64101  1  0  0  0  0
 65 64  2  0  0  0  0
 66 65  1  0  0  0  0
 67 69  2  0  0  0  0
 67 65  1  0  0  0  0
 68 67  1  0  0  0  0
 69 70  1  0  0  0  0
 70 71  1  0  0  0  0
 70 63  2  0  0  0  0
 71 56  1  0  0  0  0
 72 71  2  0  0  0  0
 73 55  1  0  0  0  0
 73 53  2  0  0  0  0
 74 75  1  0  0  0  0
 74105  1  0  0  0  0
 75108  1  0  0  0  0
 75107  1  0  0  0  0
 77  9  1  0  0  0  0
 78 18  1  0  0  0  0
 80 24  1  0  0  0  0
 83 25  1  0  0  0  0
 84 30  1  0  0  0  0
 86 41  1  0  0  0  0
 87 41  1  0  0  0  0
 89 42  1  0  0  0  0
 91 51  1  0  0  0  0
 93 52  1  0  0  0  0
 94 52  1  0  0  0  0
 97 54  1  0  0  0  0
 99 54  1  0  0  0  0
102 69  1  0  0  0  0
103 73  1  0  0  0  0
104 74  1  0  0  0  0
106 75  1  0  0  0  0
M  RAD  8  17   2  18   2  19   2  21   2  32   2  38   2  47   2  50   2
M  RAD  2  55   2  58   2
M  END
