BTP-2F-2Cl.sdf
  xtb     12202114233D
 energy: -190.867608279152 gnorm: 0.000358053520 xtb: 6.4.1 (unknown)
 97108  0     0  0            999 V2000
    6.9372    0.2223    4.4447 C   0  0  0  0  0  0  0  0  0  0  0  0
    5.8034    0.5806    4.6787 O   0  0  0  0  0  0  0  0  0  0  0  0
    8.1790    0.9600    4.7763 C   0  0  0  0  0  0  0  0  0  0  0  0
    8.3037    2.1643    5.4396 C   0  0  0  0  0  0  0  0  0  0  0  0
    9.5809    2.6729    5.6143 C   0  0  0  0  0  0  0  0  0  0  0  0
    9.7484    3.8373    6.2529 F   0  0  0  0  0  0  0  0  0  0  0  0
   10.6939    1.9857    5.1290 C   0  0  0  0  0  0  0  0  0  0  0  0
   11.9136    2.5056    5.3050 F   0  0  0  0  0  0  0  0  0  0  0  0
   10.5689    0.7763    4.4611 C   0  0  0  0  0  0  0  0  0  0  0  0
    9.2945    0.2613    4.2849 C   0  0  0  0  0  0  0  0  0  0  0  0
    8.8300   -0.9600    3.6312 C   0  0  0  0  0  0  0  0  0  0  0  0
    9.6194   -1.9722    3.1524 C   0  0  0  0  0  0  0  0  0  0  0  0
    9.1165   -3.1843    2.6331 C   0  0  0  0  0  0  0  0  0  0  0  0
    8.7678   -4.1989    2.2248 N   0  0  0  0  0  0  0  0  0  0  0  0
   11.0293   -1.9457    3.1611 C   0  0  0  0  0  0  0  0  0  0  0  0
   12.1764   -1.9698    3.1393 N   0  0  0  0  0  0  0  0  0  0  0  0
    7.3847   -0.9575    3.6748 C   0  0  0  0  0  0  0  0  0  0  0  0
    6.5543   -1.7314    2.9055 C   0  0  0  0  0  0  0  0  0  0  0  0
    5.1563   -1.8345    3.0397 C   0  0  0  0  0  0  0  0  0  0  0  0
    4.2291   -2.0137    1.5477 S   0  0  0  0  0  0  0  0  0  0  0  0
    2.7594   -1.9935    2.4414 C   0  0  0  0  0  0  0  0  0  0  0  0
    2.9962   -1.9396    3.8243 C   0  0  0  0  0  0  0  0  0  0  0  0
    4.3493   -1.8510    4.1751 C   0  0  0  0  0  0  0  0  0  0  0  0
    4.8598   -1.9024    5.5748 C   0  0  0  0  0  0  0  0  0  0  0  0
    4.2619   -3.0620    6.3698 C   0  0  0  0  0  0  0  0  0  0  0  0
    1.5177   -1.9260    4.7624 S   0  0  0  0  0  0  0  0  0  0  0  0
    0.6033   -1.9564    3.2976 C   0  0  0  0  0  0  0  0  0  0  0  0
    1.3962   -1.9881    2.1435 C   0  0  0  0  0  0  0  0  0  0  0  0
    0.6030   -1.9759    1.0239 N   0  0  0  0  0  0  0  0  0  0  0  0
    1.1063   -2.5538   -0.2048 C   0  0  0  0  0  0  0  0  0  0  0  0
   -0.7110   -1.9104    1.4542 C   0  0  0  0  0  0  0  0  0  0  0  0
   -0.7358   -1.9475    2.8765 C   0  0  0  0  0  0  0  0  0  0  0  0
   -1.9551   -2.0301    3.5867 C   0  0  0  0  0  0  0  0  0  0  0  0
   -2.1434   -2.1397    4.8920 N   0  0  0  0  0  0  0  0  0  0  0  0
   -3.7312   -2.2739    5.1741 S   0  0  0  0  0  0  0  0  0  0  0  0
   -4.2424   -2.1903    3.6409 N   0  0  0  0  0  0  0  0  0  0  0  0
   -3.1889   -2.0558    2.8519 C   0  0  0  0  0  0  0  0  0  0  0  0
   -3.1575   -1.8492    1.4531 C   0  0  0  0  0  0  0  0  0  0  0  0
   -1.9241   -1.7052    0.7530 C   0  0  0  0  0  0  0  0  0  0  0  0
   -2.1920   -1.3057   -0.5387 N   0  0  0  0  0  0  0  0  0  0  0  0
   -1.3173   -0.7137   -1.5274 C   0  0  0  0  0  0  0  0  0  0  0  0
   -1.2015   -1.5736   -2.7857 C   0  0  0  0  0  0  0  0  0  0  0  0
   -3.5518   -1.2166   -0.6749 C   0  0  0  0  0  0  0  0  0  0  0  0
   -4.1748   -1.5737    0.5305 C   0  0  0  0  0  0  0  0  0  0  0  0
   -5.8990   -1.4512    0.4884 S   0  0  0  0  0  0  0  0  0  0  0  0
   -5.7846   -0.8648   -1.1609 C   0  0  0  0  0  0  0  0  0  0  0  0
   -4.4645   -0.7912   -1.6427 C   0  0  0  0  0  0  0  0  0  0  0  0
   -4.3970   -0.1546   -3.2415 S   0  0  0  0  0  0  0  0  0  0  0  0
   -6.1540    0.0134   -3.2633 C   0  0  0  0  0  0  0  0  0  0  0  0
   -6.7436   -0.4321   -2.0646 C   0  0  0  0  0  0  0  0  0  0  0  0
   -8.2002   -0.3879   -1.7381 C   0  0  0  0  0  0  0  0  0  0  0  0
   -8.5929    0.9880   -1.1923 C   0  0  0  0  0  0  0  0  0  0  0  0
   -6.8925    0.5521   -4.3184 C   0  0  0  0  0  0  0  0  0  0  0  0
   -6.4918    1.0894   -5.5206 C   0  0  0  0  0  0  0  0  0  0  0  0
   -7.3761    1.6629   -6.5149 C   0  0  0  0  0  0  0  0  0  0  0  0
   -8.7452    1.7404   -6.4753 C   0  0  0  0  0  0  0  0  0  0  0  0
   -9.5704    1.2667   -5.4343 C   0  0  0  0  0  0  0  0  0  0  0  0
  -10.3115    0.9104   -4.6315 N   0  0  0  0  0  0  0  0  0  0  0  0
   -9.5341    2.3140   -7.4951 C   0  0  0  0  0  0  0  0  0  0  0  0
  -10.2364    2.7640   -8.2835 N   0  0  0  0  0  0  0  0  0  0  0  0
   -6.5390    2.1617   -7.6065 C   0  0  0  0  0  0  0  0  0  0  0  0
   -6.8568    2.8145   -8.7856 C   0  0  0  0  0  0  0  0  0  0  0  0
   -5.8253    3.1820   -9.6441 C   0  0  0  0  0  0  0  0  0  0  0  0
   -6.2113    3.9959  -11.1063 Cl  0  0  0  0  0  0  0  0  0  0  0  0
   -4.4900    2.9026   -9.3361 C   0  0  0  0  0  0  0  0  0  0  0  0
   -3.2418    3.3721  -10.4182 Cl  0  0  0  0  0  0  0  0  0  0  0  0
   -4.1671    2.2469   -8.1544 C   0  0  0  0  0  0  0  0  0  0  0  0
   -5.1936    1.8874   -7.3064 C   0  0  0  0  0  0  0  0  0  0  0  0
   -5.1150    1.2000   -6.0023 C   0  0  0  0  0  0  0  0  0  0  0  0
   -4.0967    0.8071   -5.4593 O   0  0  0  0  0  0  0  0  0  0  0  0
    1.4575   -4.0294   -0.0155 C   0  0  0  0  0  0  0  0  0  0  0  0
    7.4415    2.6953    5.8103 H   0  0  0  0  0  0  0  0  0  0  0  0
   11.4570    0.2857    4.0977 H   0  0  0  0  0  0  0  0  0  0  0  0
    6.9826   -2.2554    2.0584 H   0  0  0  0  0  0  0  0  0  0  0  0
    5.9465   -1.9994    5.5572 H   0  0  0  0  0  0  0  0  0  0  0  0
    4.6194   -0.9545    6.0643 H   0  0  0  0  0  0  0  0  0  0  0  0
    3.1895   -2.9440    6.4950 H   0  0  0  0  0  0  0  0  0  0  0  0
    4.4531   -4.0065    5.8649 H   0  0  0  0  0  0  0  0  0  0  0  0
    4.7187   -3.0998    7.3552 H   0  0  0  0  0  0  0  0  0  0  0  0
    0.3496   -2.4755   -0.9769 H   0  0  0  0  0  0  0  0  0  0  0  0
    1.9974   -1.9953   -0.5076 H   0  0  0  0  0  0  0  0  0  0  0  0
   -0.3452   -0.5257   -1.0706 H   0  0  0  0  0  0  0  0  0  0  0  0
   -1.7451    0.2542   -1.8112 H   0  0  0  0  0  0  0  0  0  0  0  0
   -2.1403   -1.5660   -3.3320 H   0  0  0  0  0  0  0  0  0  0  0  0
   -0.4288   -1.1700   -3.4334 H   0  0  0  0  0  0  0  0  0  0  0  0
   -0.9583   -2.6072   -2.5483 H   0  0  0  0  0  0  0  0  0  0  0  0
   -8.8074   -0.6170   -2.6147 H   0  0  0  0  0  0  0  0  0  0  0  0
   -8.4013   -1.1426   -0.9752 H   0  0  0  0  0  0  0  0  0  0  0  0
   -9.6513    0.9978   -0.9490 H   0  0  0  0  0  0  0  0  0  0  0  0
   -8.4020    1.7641   -1.9298 H   0  0  0  0  0  0  0  0  0  0  0  0
   -8.0247    1.2145   -0.2932 H   0  0  0  0  0  0  0  0  0  0  0  0
   -7.9576    0.5595   -4.1328 H   0  0  0  0  0  0  0  0  0  0  0  0
   -7.8726    3.0481   -9.0586 H   0  0  0  0  0  0  0  0  0  0  0  0
   -3.1418    2.0257   -7.9036 H   0  0  0  0  0  0  0  0  0  0  0  0
    1.7927   -4.4470   -0.9606 H   0  0  0  0  0  0  0  0  0  0  0  0
    2.2519   -4.1524    0.7152 H   0  0  0  0  0  0  0  0  0  0  0  0
    0.5842   -4.5839    0.3222 H   0  0  0  0  0  0  0  0  0  0  0  0
  1  2  2  0  0  0  0
  1  3  1  0  0  0  0
  3  4  2  0  0  0  0
  4  5  1  0  0  0  0
  5  6  1  0  0  0  0
  5  7  2  0  0  0  0
  7  8  1  0  0  0  0
  7  9  1  0  0  0  0
  9 10  2  0  0  0  0
  3 10  1  0  0  0  0
 10 11  1  0  0  0  0
 11 12  2  0  0  0  0
 12 13  1  0  0  0  0
 13 14  3  0  0  0  0
 12 15  1  0  0  0  0
 15 16  3  0  0  0  0
 11 17  1  0  0  0  0
  1 17  1  0  0  0  0
 17 18  2  0  0  0  0
 18 19  1  0  0  0  0
 19 20  1  0  0  0  0
 20 21  1  0  0  0  0
 21 22  2  0  0  0  0
 22 23  1  0  0  0  0
 23 24  1  0  0  0  0
 24 25  1  0  0  0  0
 19 23  2  0  0  0  0
 22 26  1  0  0  0  0
 26 27  1  0  0  0  0
 27 28  2  0  0  0  0
 21 28  1  0  0  0  0
 28 29  1  0  0  0  0
 29 30  1  0  0  0  0
 29 31  1  0  0  0  0
 31 32  2  0  0  0  0
 27 32  1  0  0  0  0
 32 33  1  0  0  0  0
 33 34  2  0  0  0  0
 34 35  1  0  0  0  0
 35 36  1  0  0  0  0
 36 37  2  0  0  0  0
 33 37  1  0  0  0  0
 37 38  1  0  0  0  0
 38 39  2  0  0  0  0
 31 39  1  0  0  0  0
 39 40  1  0  0  0  0
 40 41  1  0  0  0  0
 41 42  1  0  0  0  0
 40 43  1  0  0  0  0
 43 44  2  0  0  0  0
 38 44  1  0  0  0  0
 44 45  1  0  0  0  0
 45 46  1  0  0  0  0
 46 47  2  0  0  0  0
 43 47  1  0  0  0  0
 47 48  1  0  0  0  0
 48 49  1  0  0  0  0
 49 50  2  0  0  0  0
 46 50  1  0  0  0  0
 50 51  1  0  0  0  0
 51 52  1  0  0  0  0
 49 53  1  0  0  0  0
 53 54  2  0  0  0  0
 54 55  1  0  0  0  0
 55 56  2  0  0  0  0
 56 57  1  0  0  0  0
 57 58  3  0  0  0  0
 56 59  1  0  0  0  0
 59 60  3  0  0  0  0
 55 61  1  0  0  0  0
 61 62  2  0  0  0  0
 62 63  1  0  0  0  0
 63 64  1  0  0  0  0
 63 65  2  0  0  0  0
 65 66  1  0  0  0  0
 65 67  1  0  0  0  0
 67 68  2  0  0  0  0
 61 68  1  0  0  0  0
 68 69  1  0  0  0  0
 69 70  2  0  0  0  0
 54 69  1  0  0  0  0
 30 71  1  0  0  0  0
  4 72  1  0  0  0  0
  9 73  1  0  0  0  0
 18 74  1  0  0  0  0
 24 75  1  0  0  0  0
 24 76  1  0  0  0  0
 25 77  1  0  0  0  0
 25 78  1  0  0  0  0
 25 79  1  0  0  0  0
 30 80  1  0  0  0  0
 30 81  1  0  0  0  0
 41 82  1  0  0  0  0
 41 83  1  0  0  0  0
 42 84  1  0  0  0  0
 42 85  1  0  0  0  0
 42 86  1  0  0  0  0
 51 87  1  0  0  0  0
 51 88  1  0  0  0  0
 52 89  1  0  0  0  0
 52 90  1  0  0  0  0
 52 91  1  0  0  0  0
 53 92  1  0  0  0  0
 62 93  1  0  0  0  0
 67 94  1  0  0  0  0
 71 95  1  0  0  0  0
 71 96  1  0  0  0  0
 71 97  1  0  0  0  0
M  END
