BTTPC-Br.sdf
  xtb     12202113223D
 energy: -196.565825442505 gnorm: 0.000559855967 xtb: 6.4.1 (unknown)
103116  0     0  0            999 V2000
   -0.7216    7.0678    0.6494 C   0  0  0  0  0  0  0  0  0  0  0  0
   -0.3761    5.9420    0.3301 O   0  0  0  0  0  0  0  0  0  0  0  0
   -0.6081    8.2781   -0.1847 C   0  0  0  0  0  0  0  0  0  0  0  0
   -0.1269    8.3838   -1.4663 C   0  0  0  0  0  0  0  0  0  0  0  0
   -0.1318    9.6501   -2.0615 C   0  0  0  0  0  0  0  0  0  0  0  0
   -0.6230   10.7545   -1.3266 C   0  0  0  0  0  0  0  0  0  0  0  0
   -1.1079   10.6462   -0.0285 C   0  0  0  0  0  0  0  0  0  0  0  0
   -1.0989    9.3888    0.5444 C   0  0  0  0  0  0  0  0  0  0  0  0
   -1.5362    8.9283    1.8598 C   0  0  0  0  0  0  0  0  0  0  0  0
   -2.0355    9.7367    2.8510 C   0  0  0  0  0  0  0  0  0  0  0  0
   -2.2022   11.1314    2.7247 C   0  0  0  0  0  0  0  0  0  0  0  0
   -2.3641   12.2676    2.6879 N   0  0  0  0  0  0  0  0  0  0  0  0
   -2.4435    9.3166    4.1333 C   0  0  0  0  0  0  0  0  0  0  0  0
   -2.7918    9.0585    5.1979 N   0  0  0  0  0  0  0  0  0  0  0  0
   -1.3286    7.4954    1.9101 C   0  0  0  0  0  0  0  0  0  0  0  0
   -1.6841    6.6795    2.9586 C   0  0  0  0  0  0  0  0  0  0  0  0
   -1.5584    5.2994    3.1320 C   0  0  0  0  0  0  0  0  0  0  0  0
   -0.8327    4.1926    1.9628 S   0  0  0  0  0  0  0  0  0  0  0  0
   -1.1391    2.8627    3.0147 C   0  0  0  0  0  0  0  0  0  0  0  0
   -1.7717    3.2669    4.2042 C   0  0  0  0  0  0  0  0  0  0  0  0
   -2.0138    4.6304    4.2834 C   0  0  0  0  0  0  0  0  0  0  0  0
   -2.6288    5.2725    5.4833 C   0  0  0  0  0  0  0  0  0  0  0  0
   -1.5484    5.8038    6.4296 C   0  0  0  0  0  0  0  0  0  0  0  0
   -2.1122    1.9439    5.3049 S   0  0  0  0  0  0  0  0  0  0  0  0
   -1.4078    0.8559    4.1612 C   0  0  0  0  0  0  0  0  0  0  0  0
   -0.9406    1.4799    2.9977 C   0  0  0  0  0  0  0  0  0  0  0  0
   -0.3999    0.5495    2.1470 N   0  0  0  0  0  0  0  0  0  0  0  0
    0.5649    1.0032    1.1664 C   0  0  0  0  0  0  0  0  0  0  0  0
    1.9795    0.9636    1.7405 C   0  0  0  0  0  0  0  0  0  0  0  0
   -0.5062   -0.6876    2.7621 C   0  0  0  0  0  0  0  0  0  0  0  0
   -1.1152   -0.5085    4.0391 C   0  0  0  0  0  0  0  0  0  0  0  0
   -1.2497   -1.5724    4.9593 C   0  0  0  0  0  0  0  0  0  0  0  0
   -1.7584   -1.5475    6.1809 N   0  0  0  0  0  0  0  0  0  0  0  0
   -1.5944   -3.0187    6.8354 S   0  0  0  0  0  0  0  0  0  0  0  0
   -0.8697   -3.7454    5.5839 N   0  0  0  0  0  0  0  0  0  0  0  0
   -0.7319   -2.8622    4.6079 C   0  0  0  0  0  0  0  0  0  0  0  0
   -0.2178   -3.0588    3.3067 C   0  0  0  0  0  0  0  0  0  0  0  0
   -0.1707   -2.0025    2.3481 C   0  0  0  0  0  0  0  0  0  0  0  0
    0.2256   -2.5318    1.1365 N   0  0  0  0  0  0  0  0  0  0  0  0
    0.0768   -2.0079   -0.2032 C   0  0  0  0  0  0  0  0  0  0  0  0
    1.4208   -1.7204   -0.8698 C   0  0  0  0  0  0  0  0  0  0  0  0
    0.4655   -3.8680    1.3186 C   0  0  0  0  0  0  0  0  0  0  0  0
    0.2097   -4.2195    2.6512 C   0  0  0  0  0  0  0  0  0  0  0  0
    0.4396   -5.8992    2.9891 S   0  0  0  0  0  0  0  0  0  0  0  0
    0.8734   -6.1431    1.3071 C   0  0  0  0  0  0  0  0  0  0  0  0
    0.8408   -4.9646    0.5388 C   0  0  0  0  0  0  0  0  0  0  0  0
    1.2951   -5.2517   -1.0980 S   0  0  0  0  0  0  0  0  0  0  0  0
    1.5116   -6.9685   -0.7511 C   0  0  0  0  0  0  0  0  0  0  0  0
    1.2358   -7.2764    0.5944 C   0  0  0  0  0  0  0  0  0  0  0  0
    1.3649   -8.6236    1.2259 C   0  0  0  0  0  0  0  0  0  0  0  0
    2.8158   -8.8983    1.6311 C   0  0  0  0  0  0  0  0  0  0  0  0
    1.9051   -7.9307   -1.6836 C   0  0  0  0  0  0  0  0  0  0  0  0
    2.2657   -7.8127   -3.0056 C   0  0  0  0  0  0  0  0  0  0  0  0
    2.6642   -8.9098   -3.8639 C   0  0  0  0  0  0  0  0  0  0  0  0
    2.6676  -10.2491   -3.5609 C   0  0  0  0  0  0  0  0  0  0  0  0
    2.2740  -10.8183   -2.3329 C   0  0  0  0  0  0  0  0  0  0  0  0
    1.9723  -11.3610   -1.3655 N   0  0  0  0  0  0  0  0  0  0  0  0
    3.0622  -11.2612   -4.4601 C   0  0  0  0  0  0  0  0  0  0  0  0
    3.3723  -12.1323   -5.1408 N   0  0  0  0  0  0  0  0  0  0  0  0
    3.0554   -8.3400   -5.1506 C   0  0  0  0  0  0  0  0  0  0  0  0
    3.5387   -8.9347   -6.3006 C   0  0  0  0  0  0  0  0  0  0  0  0
    3.8322   -8.0981   -7.3712 C   0  0  0  0  0  0  0  0  0  0  0  0
    3.6554   -6.6953   -7.3257 C   0  0  0  0  0  0  0  0  0  0  0  0
    3.1618   -6.1088   -6.1554 C   0  0  0  0  0  0  0  0  0  0  0  0
    2.8749   -6.9362   -5.0979 C   0  0  0  0  0  0  0  0  0  0  0  0
    2.3594   -6.5674   -3.7673 C   0  0  0  0  0  0  0  0  0  0  0  0
    2.0761   -5.4401   -3.3959 O   0  0  0  0  0  0  0  0  0  0  0  0
    4.0318   -6.0664   -8.5438 C   0  0  0  0  0  0  0  0  0  0  0  0
    4.4713   -6.9603   -9.4613 C   0  0  0  0  0  0  0  0  0  0  0  0
    4.4557   -8.6139   -8.9090 S   0  0  0  0  0  0  0  0  0  0  0  0
   -0.5417   12.2241   -2.2501 S   0  0  0  0  0  0  0  0  0  0  0  0
    0.1408   11.3464   -3.5930 C   0  0  0  0  0  0  0  0  0  0  0  0
    0.3012   10.0214   -3.3638 C   0  0  0  0  0  0  0  0  0  0  0  0
    0.5762   12.2614   -5.1716 Br  0  0  0  0  0  0  0  0  0  0  0  0
    5.0683   -6.5688  -11.1959 Br  0  0  0  0  0  0  0  0  0  0  0  0
    0.2394    7.5178   -1.9950 H   0  0  0  0  0  0  0  0  0  0  0  0
   -1.4730   11.5189    0.4862 H   0  0  0  0  0  0  0  0  0  0  0  0
   -2.1533    7.1727    3.7987 H   0  0  0  0  0  0  0  0  0  0  0  0
   -3.2210    4.5189    6.0064 H   0  0  0  0  0  0  0  0  0  0  0  0
   -3.2918    6.0900    5.1969 H   0  0  0  0  0  0  0  0  0  0  0  0
   -2.0136    6.2495    7.3039 H   0  0  0  0  0  0  0  0  0  0  0  0
   -0.8973    4.9948    6.7527 H   0  0  0  0  0  0  0  0  0  0  0  0
   -0.9449    6.5629    5.9380 H   0  0  0  0  0  0  0  0  0  0  0  0
    0.5112    0.4146    0.2560 H   0  0  0  0  0  0  0  0  0  0  0  0
    0.2971    2.0327    0.9167 H   0  0  0  0  0  0  0  0  0  0  0  0
    2.0460    1.5967    2.6223 H   0  0  0  0  0  0  0  0  0  0  0  0
    2.6891    1.3251    1.0016 H   0  0  0  0  0  0  0  0  0  0  0  0
    2.2504   -0.0513    2.0258 H   0  0  0  0  0  0  0  0  0  0  0  0
   -0.5648   -1.1266   -0.1636 H   0  0  0  0  0  0  0  0  0  0  0  0
   -0.4457   -2.7672   -0.7957 H   0  0  0  0  0  0  0  0  0  0  0  0
    1.9460   -2.6517   -1.0630 H   0  0  0  0  0  0  0  0  0  0  0  0
    1.2575   -1.2220   -1.8212 H   0  0  0  0  0  0  0  0  0  0  0  0
    2.0521   -1.0948   -0.2451 H   0  0  0  0  0  0  0  0  0  0  0  0
    1.0221   -9.4089    0.5505 H   0  0  0  0  0  0  0  0  0  0  0  0
    0.7370   -8.6424    2.1188 H   0  0  0  0  0  0  0  0  0  0  0  0
    3.4688   -8.8828    0.7616 H   0  0  0  0  0  0  0  0  0  0  0  0
    2.8878   -9.8760    2.0988 H   0  0  0  0  0  0  0  0  0  0  0  0
    3.1599   -8.1464    2.3375 H   0  0  0  0  0  0  0  0  0  0  0  0
    1.9410   -8.9308   -1.2741 H   0  0  0  0  0  0  0  0  0  0  0  0
    3.6933   -9.9970   -6.3869 H   0  0  0  0  0  0  0  0  0  0  0  0
    3.0130   -5.0429   -6.0823 H   0  0  0  0  0  0  0  0  0  0  0  0
    3.9758   -5.0073   -8.7170 H   0  0  0  0  0  0  0  0  0  0  0  0
    0.7069    9.3332   -4.0826 H   0  0  0  0  0  0  0  0  0  0  0  0
  1  2  2  0  0  0  0
  1  3  1  0  0  0  0
  3  4  2  0  0  0  0
  4  5  1  0  0  0  0
  5  6  2  0  0  0  0
  6  7  1  0  0  0  0
  7  8  2  0  0  0  0
  3  8  1  0  0  0  0
  8  9  1  0  0  0  0
  9 10  2  0  0  0  0
 10 11  1  0  0  0  0
 11 12  3  0  0  0  0
 10 13  1  0  0  0  0
 13 14  3  0  0  0  0
  9 15  1  0  0  0  0
  1 15  1  0  0  0  0
 15 16  2  0  0  0  0
 16 17  1  0  0  0  0
 17 18  1  0  0  0  0
 18 19  1  0  0  0  0
 19 20  2  0  0  0  0
 20 21  1  0  0  0  0
 21 22  1  0  0  0  0
 22 23  1  0  0  0  0
 17 21  2  0  0  0  0
 20 24  1  0  0  0  0
 24 25  1  0  0  0  0
 25 26  2  0  0  0  0
 19 26  1  0  0  0  0
 26 27  1  0  0  0  0
 27 28  1  0  0  0  0
 28 29  1  0  0  0  0
 27 30  1  0  0  0  0
 30 31  2  0  0  0  0
 25 31  1  0  0  0  0
 31 32  1  0  0  0  0
 32 33  2  0  0  0  0
 33 34  1  0  0  0  0
 34 35  1  0  0  0  0
 35 36  2  0  0  0  0
 32 36  1  0  0  0  0
 36 37  1  0  0  0  0
 37 38  2  0  0  0  0
 30 38  1  0  0  0  0
 38 39  1  0  0  0  0
 39 40  1  0  0  0  0
 40 41  1  0  0  0  0
 39 42  1  0  0  0  0
 42 43  2  0  0  0  0
 37 43  1  0  0  0  0
 43 44  1  0  0  0  0
 44 45  1  0  0  0  0
 45 46  2  0  0  0  0
 42 46  1  0  0  0  0
 46 47  1  0  0  0  0
 47 48  1  0  0  0  0
 48 49  2  0  0  0  0
 45 49  1  0  0  0  0
 49 50  1  0  0  0  0
 50 51  1  0  0  0  0
 48 52  1  0  0  0  0
 52 53  2  0  0  0  0
 53 54  1  0  0  0  0
 54 55  2  0  0  0  0
 55 56  1  0  0  0  0
 56 57  3  0  0  0  0
 55 58  1  0  0  0  0
 58 59  3  0  0  0  0
 54 60  1  0  0  0  0
 60 61  2  0  0  0  0
 61 62  1  0  0  0  0
 62 63  2  0  0  0  0
 63 64  1  0  0  0  0
 64 65  2  0  0  0  0
 60 65  1  0  0  0  0
 65 66  1  0  0  0  0
 66 67  2  0  0  0  0
 53 66  1  0  0  0  0
 63 68  1  0  0  0  0
 68 69  2  0  0  0  0
 69 70  1  0  0  0  0
 70 62  1  0  0  0  0
  6 71  1  0  0  0  0
 71 72  1  0  0  0  0
 72 73  2  0  0  0  0
 73  5  1  0  0  0  0
 72 74  1  0  0  0  0
 69 75  1  0  0  0  0
  4 76  1  0  0  0  0
  7 77  1  0  0  0  0
 16 78  1  0  0  0  0
 22 79  1  0  0  0  0
 22 80  1  0  0  0  0
 23 81  1  0  0  0  0
 23 82  1  0  0  0  0
 23 83  1  0  0  0  0
 28 84  1  0  0  0  0
 28 85  1  0  0  0  0
 29 86  1  0  0  0  0
 29 87  1  0  0  0  0
 29 88  1  0  0  0  0
 40 89  1  0  0  0  0
 40 90  1  0  0  0  0
 41 91  1  0  0  0  0
 41 92  1  0  0  0  0
 41 93  1  0  0  0  0
 50 94  1  0  0  0  0
 50 95  1  0  0  0  0
 51 96  1  0  0  0  0
 51 97  1  0  0  0  0
 51 98  1  0  0  0  0
 52 99  1  0  0  0  0
 61100  1  0  0  0  0
 64101  1  0  0  0  0
 68102  1  0  0  0  0
 73103  1  0  0  0  0
M  END
