SCF done       -223.741983189000          0.000425723993
 OpenBabel12282109493D

134147  0  0  1  0  0  0  0  0999 V2000
   -1.4936   -0.1227   -0.8757 C   0  0  0  0  0  0  0  0  0  0  0  0
   -2.6144    0.6680   -0.9425 C   0  0  0  0  0  0  0  0  0  0  0  0
   -3.8313    0.4861   -0.1451 C   0  0  0  0  0  0  0  0  0  0  0  0
   -4.7407    1.5798   -0.5305 C   0  0  0  0  0  0  0  0  0  0  0  0
   -4.1203    2.3759   -1.5097 C   0  0  0  0  0  0  0  0  0  0  0  0
   -2.7939    1.8254   -1.7949 C   0  0  0  0  0  0  0  0  0  0  0  0
   -4.0580   -0.3896    0.6725 O   0  0  0  0  0  0  0  0  0  0  0  0
   -1.9092    2.3330   -2.7117 C   0  0  0  0  0  0  0  0  0  0  0  0
   -0.6357    1.8058   -3.0100 C   0  0  0  0  0  0  0  0  0  0  0  0
   -2.1565    3.4724   -3.5059 C   0  0  0  0  0  0  0  0  0  0  0  0
    0.4113    1.4439   -3.3155 N   0  0  0  0  0  0  0  0  0  0  0  0
   -2.2868    4.3916   -4.1815 N   0  0  0  0  0  0  0  0  0  0  0  0
   -6.0085    1.8584   -0.0607 C   0  0  0  0  0  0  0  0  0  0  0  0
   -6.6719    2.9610   -0.5814 C   0  0  0  0  0  0  0  0  0  0  0  0
   -6.0679    3.7527   -1.5468 C   0  0  0  0  0  0  0  0  0  0  0  0
   -4.7924    3.4738   -2.0223 C   0  0  0  0  0  0  0  0  0  0  0  0
    0.4878   -9.6428   10.3498 C   0  0  0  0  0  0  0  0  0  0  0  0
   -0.1458  -10.4035   11.2930 C   0  0  1  0  0  0  0  0  0  0  0  0
    0.3746  -10.3941   12.6871 C   0  0  0  0  0  0  0  0  0  0  0  0
   -0.7289  -10.9283   13.5135 C   0  0  0  0  0  0  0  0  0  0  0  0
   -1.7813  -11.3443   12.6773 C   0  0  0  0  0  0  0  0  0  0  0  0
   -1.3693  -11.1679   11.2854 C   0  0  0  0  0  0  0  0  0  0  0  0
    1.4530   -9.9892   13.0568 O   0  0  0  0  0  0  0  0  0  0  0  0
   -1.9087  -11.8327   10.2124 C   0  0  0  0  0  0  0  0  0  0  0  0
   -1.2702  -11.8940    8.9596 C   0  0  0  0  0  0  0  0  0  0  0  0
   -3.1037  -12.5749   10.2549 C   0  0  0  0  0  0  0  0  0  0  0  0
   -0.7494  -12.0049    7.9422 N   0  0  0  0  0  0  0  0  0  0  0  0
   -4.0936  -13.1560   10.2186 N   0  0  0  0  0  0  0  0  0  0  0  0
   -0.8187  -11.0287   14.8877 C   0  0  0  0  0  0  0  0  0  0  0  0
   -1.9869  -11.5442   15.4332 C   0  0  0  0  0  0  0  0  0  0  0  0
   -3.0333  -11.9419   14.6138 C   0  0  0  0  0  0  0  0  0  0  0  0
   -2.9447  -11.8519   13.2305 C   0  0  0  0  0  0  0  0  0  0  0  0
    2.5555   -3.3347    0.5032 C   0  0  0  0  0  0  0  0  0  0  0  0
    0.9552   -5.2207    0.0654 C   0  0  0  0  0  0  0  0  0  0  0  0
    2.9853   -3.3531   -0.8169 C   0  0  0  0  0  0  0  0  0  0  0  0
    4.1671   -2.7303   -1.1715 C   0  0  0  0  0  0  0  0  0  0  0  0
    4.9447   -2.0793   -0.2223 C   0  0  0  0  0  0  0  0  0  0  0  0
    4.5089   -2.0703    1.0961 C   0  0  0  0  0  0  0  0  0  0  0  0
    3.3240   -2.6839    1.4571 C   0  0  0  0  0  0  0  0  0  0  0  0
    0.0564   -5.2393   -0.9914 C   0  0  0  0  0  0  0  0  0  0  0  0
   -0.1663   -6.4093   -1.6944 C   0  0  0  0  0  0  0  0  0  0  0  0
    0.4923   -7.5842   -1.3571 C   0  0  0  0  0  0  0  0  0  0  0  0
    1.3928   -7.5568   -0.2997 C   0  0  0  0  0  0  0  0  0  0  0  0
    1.6257   -6.3898    0.4017 C   0  0  0  0  0  0  0  0  0  0  0  0
    6.2503   -1.4444   -0.6041 C   0  0  0  0  0  0  0  0  0  0  0  0
    7.3921   -2.4546   -0.4736 C   0  0  0  0  0  0  0  0  0  0  0  0
    0.2766   -8.8383   -2.1536 C   0  0  0  0  0  0  0  0  0  0  0  0
    1.2060   -8.8633   -3.3687 C   0  0  0  0  0  0  0  0  0  0  0  0
   -3.8955   -8.5096    7.2954 C   0  0  0  0  0  0  0  0  0  0  0  0
   -2.5261   -9.1873    5.3221 C   0  0  0  0  0  0  0  0  0  0  0  0
   -4.7190   -7.4718    7.7001 C   0  0  0  0  0  0  0  0  0  0  0  0
   -5.8602   -7.7401    8.4356 C   0  0  0  0  0  0  0  0  0  0  0  0
   -6.1920   -9.0395    8.7940 C   0  0  0  0  0  0  0  0  0  0  0  0
   -5.3615  -10.0751    8.3806 C   0  0  0  0  0  0  0  0  0  0  0  0
   -4.2288   -9.8169    7.6342 C   0  0  0  0  0  0  0  0  0  0  0  0
   -1.7295  -10.3221    5.3015 C   0  0  0  0  0  0  0  0  0  0  0  0
   -1.6488  -11.0900    4.1534 C   0  0  0  0  0  0  0  0  0  0  0  0
   -2.3496  -10.7422    3.0071 C   0  0  0  0  0  0  0  0  0  0  0  0
   -3.1602   -9.6143    3.0433 C   0  0  0  0  0  0  0  0  0  0  0  0
   -3.2544   -8.8487    4.1883 C   0  0  0  0  0  0  0  0  0  0  0  0
   -7.4470   -9.3323    9.5640 C   0  0  0  0  0  0  0  0  0  0  0  0
   -8.6042   -9.6194    8.6052 C   0  0  0  0  0  0  0  0  0  0  0  0
   -2.1945  -11.5311    1.7393 C   0  0  0  0  0  0  0  0  0  0  0  0
   -1.0751  -10.9378    0.8807 C   0  0  0  0  0  0  0  0  0  0  0  0
   -1.2183   -1.2366   -0.0739 C   0  0  0  0  0  0  0  0  0  0  0  0
   -2.2725   -1.9790    1.1143 S   0  0  0  0  0  0  0  0  0  0  0  0
   -1.0565   -3.1382    1.4867 C   0  0  0  0  0  0  0  0  0  0  0  0
    0.1090   -2.9692    0.7305 C   0  0  0  0  0  0  0  0  0  0  0  0
    0.0128   -1.9025   -0.1366 C   0  0  0  0  0  0  0  0  0  0  0  0
   -1.0559   -4.1263    2.4920 C   0  0  0  0  0  0  0  0  0  0  0  0
    0.1706   -4.6793    2.8624 C   0  0  0  0  0  0  0  0  0  0  0  0
    1.3331   -4.3684    2.2735 O   0  0  0  0  0  0  0  0  0  0  0  0
    1.2320   -3.9650    0.8878 C   0  0  0  0  0  0  0  0  0  0  0  0
   -2.3884   -4.7024    3.4551 S   0  0  0  0  0  0  0  0  0  0  0  0
   -1.2970   -5.6724    4.3817 C   0  0  0  0  0  0  0  0  0  0  0  0
    0.0311   -5.5390    3.9577 C   0  0  0  0  0  0  0  0  0  0  0  0
   -1.4438   -6.5824    5.4341 C   0  0  0  0  0  0  0  0  0  0  0  0
   -0.2090   -7.0989    5.8333 C   0  0  0  0  0  0  0  0  0  0  0  0
    1.1246   -6.5054    4.8854 S   0  0  0  0  0  0  0  0  0  0  0  0
   -2.6034   -6.9051    6.0320 O   0  0  0  0  0  0  0  0  0  0  0  0
   -2.6141   -8.2610    6.5339 C   0  0  0  0  0  0  0  0  0  0  0  0
   -1.4108   -8.4404    7.4280 C   0  0  0  0  0  0  0  0  0  0  0  0
   -0.1936   -7.9305    6.9735 C   0  0  0  0  0  0  0  0  0  0  0  0
   -1.3026   -9.0925    8.6428 C   0  0  0  0  0  0  0  0  0  0  0  0
   -0.0016   -9.1357    9.1328 C   0  0  0  0  0  0  0  0  0  0  0  0
    1.0950   -8.2977    8.0489 S   0  0  0  0  0  0  0  0  0  0  0  0
   -0.6689    0.1410   -1.5267 H   0  0  0  0  0  0  0  0  0  0  0  0
   -6.4579    1.2277    0.6909 H   0  0  0  0  0  0  0  0  0  0  0  0
   -7.6646    3.2049   -0.2341 H   0  0  0  0  0  0  0  0  0  0  0  0
   -6.5975    4.6068   -1.9414 H   0  0  0  0  0  0  0  0  0  0  0  0
   -4.3502    4.1086   -2.7723 H   0  0  0  0  0  0  0  0  0  0  0  0
    1.4777   -9.3032   10.6390 H   0  0  0  0  0  0  0  0  0  0  0  0
    0.0048  -10.7121   15.5090 H   0  0  0  0  0  0  0  0  0  0  0  0
   -2.0839  -11.6351   16.5046 H   0  0  0  0  0  0  0  0  0  0  0  0
   -3.9372  -12.3318   15.0574 H   0  0  0  0  0  0  0  0  0  0  0  0
   -3.7723  -12.1621   12.6126 H   0  0  0  0  0  0  0  0  0  0  0  0
    2.3946   -3.8560   -1.5686 H   0  0  0  0  0  0  0  0  0  0  0  0
    4.4884   -2.7478   -2.2029 H   0  0  0  0  0  0  0  0  0  0  0  0
    5.0998   -1.5697    1.8496 H   0  0  0  0  0  0  0  0  0  0  0  0
    2.9943   -2.6663    2.4844 H   0  0  0  0  0  0  0  0  0  0  0  0
   -0.4713   -4.3400   -1.2739 H   0  0  0  0  0  0  0  0  0  0  0  0
   -0.8691   -6.4086   -2.5153 H   0  0  0  0  0  0  0  0  0  0  0  0
    1.9177   -8.4594   -0.0220 H   0  0  0  0  0  0  0  0  0  0  0  0
    2.3284   -6.3779    1.2219 H   0  0  0  0  0  0  0  0  0  0  0  0
    6.2010   -1.0877   -1.6345 H   0  0  0  0  0  0  0  0  0  0  0  0
    6.4503   -0.5898    0.0451 H   0  0  0  0  0  0  0  0  0  0  0  0
    7.2152   -3.3108   -1.1208 H   0  0  0  0  0  0  0  0  0  0  0  0
    8.3383   -1.9970   -0.7527 H   0  0  0  0  0  0  0  0  0  0  0  0
    7.4668   -2.8110    0.5513 H   0  0  0  0  0  0  0  0  0  0  0  0
    0.4762   -9.7112   -1.5299 H   0  0  0  0  0  0  0  0  0  0  0  0
   -0.7600   -8.8881   -2.4932 H   0  0  0  0  0  0  0  0  0  0  0  0
    2.2453   -8.8285   -3.0498 H   0  0  0  0  0  0  0  0  0  0  0  0
    1.0501   -9.7703   -3.9478 H   0  0  0  0  0  0  0  0  0  0  0  0
    1.0164   -8.0050   -4.0093 H   0  0  0  0  0  0  0  0  0  0  0  0
   -4.4655   -6.4574    7.4347 H   0  0  0  0  0  0  0  0  0  0  0  0
   -6.4979   -6.9234    8.7427 H   0  0  0  0  0  0  0  0  0  0  0  0
   -5.6001  -11.0941    8.6494 H   0  0  0  0  0  0  0  0  0  0  0  0
   -3.5988  -10.6331    7.3106 H   0  0  0  0  0  0  0  0  0  0  0  0
   -1.1724  -10.6220    6.1765 H   0  0  0  0  0  0  0  0  0  0  0  0
   -1.0240  -11.9709    4.1541 H   0  0  0  0  0  0  0  0  0  0  0  0
   -3.7241   -9.3318    2.1658 H   0  0  0  0  0  0  0  0  0  0  0  0
   -3.8871   -7.9730    4.2065 H   0  0  0  0  0  0  0  0  0  0  0  0
   -7.2903  -10.2008   10.2068 H   0  0  0  0  0  0  0  0  0  0  0  0
   -7.7042   -8.4789   10.1947 H   0  0  0  0  0  0  0  0  0  0  0  0
   -8.3709  -10.4776    7.9793 H   0  0  0  0  0  0  0  0  0  0  0  0
   -9.5148   -9.8309    9.1607 H   0  0  0  0  0  0  0  0  0  0  0  0
   -8.7814   -8.7626    7.9588 H   0  0  0  0  0  0  0  0  0  0  0  0
   -1.9558  -12.5698    1.9751 H   0  0  0  0  0  0  0  0  0  0  0  0
   -3.1287  -11.5134    1.1744 H   0  0  0  0  0  0  0  0  0  0  0  0
   -0.1323  -10.9603    1.4230 H   0  0  0  0  0  0  0  0  0  0  0  0
   -0.9623  -11.5069   -0.0393 H   0  0  0  0  0  0  0  0  0  0  0  0
   -1.2978   -9.9033    0.6267 H   0  0  0  0  0  0  0  0  0  0  0  0
    0.7959   -1.5964   -0.8078 H   0  0  0  0  0  0  0  0  0  0  0  0
   -2.1495   -9.4797    9.1784 H   0  0  0  0  0  0  0  0  0  0  0  0
  1 65  1  0  0  0  0
  2  1  2  0  0  0  0
  2  3  1  0  0  0  0
  3  7  2  0  0  0  0
  4  3  1  0  0  0  0
  4 13  1  0  0  0  0
  5  4  2  0  0  0  0
  6  5  1  0  0  0  0
  6  2  1  0  0  0  0
  8  6  2  0  0  0  0
  9  8  1  0  0  0  0
 10  8  1  0  0  0  0
 11  9  3  0  0  0  0
 12 10  3  0  0  0  0
 13 88  1  0  0  0  0
 14 89  1  0  0  0  0
 14 13  2  0  0  0  0
 15 14  1  0  0  0  0
 16 15  2  0  0  0  0
 16  5  1  0  0  0  0
 17 92  1  0  0  0  0
 18 17  1  1  0  0  0
 18 19  1  0  0  0  0
 19 23  2  0  0  0  0
 19 20  1  0  0  0  0
 20 29  2  0  0  0  0
 21 32  2  0  0  0  0
 21 20  1  0  0  0  0
 22 18  1  0  0  0  0
 22 21  1  0  0  0  0
 24 26  1  0  0  0  0
 24 22  2  0  0  0  0
 25 24  1  0  0  0  0
 27 25  3  0  0  0  0
 28 26  3  0  0  0  0
 29 30  1  0  0  0  0
 29 93  1  0  0  0  0
 30 94  1  0  0  0  0
 31 95  1  0  0  0  0
 31 30  2  0  0  0  0
 32 31  1  0  0  0  0
 33 73  1  0  0  0  0
 33 39  2  0  0  0  0
 34 44  1  0  0  0  0
 34 73  1  0  0  0  0
 35 33  1  0  0  0  0
 36 35  2  0  0  0  0
 36 37  1  0  0  0  0
 37 38  2  0  0  0  0
 38 39  1  0  0  0  0
 38 99  1  0  0  0  0
 39100  1  0  0  0  0
 40 34  2  0  0  0  0
 41 42  2  0  0  0  0
 41 40  1  0  0  0  0
 42 43  1  0  0  0  0
 43103  1  0  0  0  0
 43 44  2  0  0  0  0
 44104  1  0  0  0  0
 45 46  1  0  0  0  0
 45 37  1  0  0  0  0
 45106  1  0  0  0  0
 46109  1  0  0  0  0
 47110  1  0  0  0  0
 47 42  1  0  0  0  0
 48112  1  0  0  0  0
 48 47  1  0  0  0  0
 49 55  2  0  0  0  0
 49 51  1  0  0  0  0
 50 81  1  0  0  0  0
 51 52  2  0  0  0  0
 52116  1  0  0  0  0
 52 53  1  0  0  0  0
 53 61  1  0  0  0  0
 54117  1  0  0  0  0
 54 53  2  0  0  0  0
 55 54  1  0  0  0  0
 56 50  1  0  0  0  0
 56119  1  0  0  0  0
 57120  1  0  0  0  0
 57 56  2  0  0  0  0
 58 59  2  0  0  0  0
 58 57  1  0  0  0  0
 59 60  1  0  0  0  0
 60122  1  0  0  0  0
 60 50  2  0  0  0  0
 61124  1  0  0  0  0
 61123  1  0  0  0  0
 62126  1  0  0  0  0
 62 61  1  0  0  0  0
 63128  1  0  0  0  0
 63 58  1  0  0  0  0
 64130  1  0  0  0  0
 64 63  1  0  0  0  0
 65 66  1  0  0  0  0
 66 67  1  0  0  0  0
 67 70  1  0  0  0  0
 68 73  1  0  0  0  0
 68 67  2  0  0  0  0
 69 65  2  0  0  0  0
 69 68  1  0  0  0  0
 70 71  2  0  0  0  0
 70 74  1  0  0  0  0
 71 76  1  0  0  0  0
 72 71  1  0  0  0  0
 73 72  1  0  0  0  0
 74 75  1  0  0  0  0
 75 77  1  0  0  0  0
 76 75  2  0  0  0  0
 76 79  1  0  0  0  0
 77 78  2  0  0  0  0
 77 80  1  0  0  0  0
 78 83  1  0  0  0  0
 79 78  1  0  0  0  0
 80 81  1  0  0  0  0
 81 49  1  0  0  0  0
 81 82  1  0  0  0  0
 82 84  1  0  0  0  0
 83 82  2  0  0  0  0
 83 86  1  0  0  0  0
 84 85  2  0  0  0  0
 84134  1  0  0  0  0
 85 17  1  0  0  0  0
 86 85  1  0  0  0  0
 87  1  1  0  0  0  0
 90 15  1  0  0  0  0
 91 16  1  0  0  0  0
 96 32  1  0  0  0  0
 97 35  1  0  0  0  0
 98 36  1  0  0  0  0
101 40  1  0  0  0  0
102 41  1  0  0  0  0
105 45  1  0  0  0  0
107 46  1  0  0  0  0
108 46  1  0  0  0  0
111 47  1  0  0  0  0
113 48  1  0  0  0  0
114 48  1  0  0  0  0
115 51  1  0  0  0  0
118 55  1  0  0  0  0
121 59  1  0  0  0  0
125 62  1  0  0  0  0
127 62  1  0  0  0  0
129 63  1  0  0  0  0
131 64  1  0  0  0  0
132 64  1  0  0  0  0
133 69  1  0  0  0  0
M  RAD  2  17   2  18   2
M  END
