CPDT-4F.sdf
  xtb     12202113523D
 energy: -178.229920575043 gnorm: 0.000701181744 xtb: 6.4.1 (unknown)
 96105  0     0  0            999 V2000
   -9.7174    7.4115    3.2362 C   0  0  0  0  0  0  0  0  0  0  0  0
   -9.2599    8.7168    3.1248 C   0  0  0  0  0  0  0  0  0  0  0  0
   -7.9774    9.0080    2.6610 C   0  0  0  0  0  0  0  0  0  0  0  0
   -7.1127    7.9897    2.2922 C   0  0  0  0  0  0  0  0  0  0  0  0
   -7.5692    6.6920    2.4034 C   0  0  0  0  0  0  0  0  0  0  0  0
   -8.8585    6.3873    2.8709 C   0  0  0  0  0  0  0  0  0  0  0  0
   -6.8576    5.4369    2.0816 C   0  0  0  0  0  0  0  0  0  0  0  0
   -7.7910    4.3540    2.3903 C   0  0  0  0  0  0  0  0  0  0  0  0
   -9.0282    4.9322    2.8697 C   0  0  0  0  0  0  0  0  0  0  0  0
   -7.5290    3.0083    2.2600 C   0  0  0  0  0  0  0  0  0  0  0  0
   -6.3845    2.3424    1.8182 C   0  0  0  0  0  0  0  0  0  0  0  0
   -6.3192    0.9365    1.7796 C   0  0  0  0  0  0  0  0  0  0  0  0
   -5.1171    0.4667    1.3136 C   0  0  0  0  0  0  0  0  0  0  0  0
   -4.2295    1.5173    1.0052 C   0  0  0  0  0  0  0  0  0  0  0  0
   -4.8832    3.0747    1.2646 S   0  0  0  0  0  0  0  0  0  0  0  0
   -4.4641   -0.8808    1.0914 C   0  0  0  0  0  0  0  0  0  0  0  0
   -3.0919   -0.4410    0.6320 C   0  0  0  0  0  0  0  0  0  0  0  0
   -3.0084    0.9542    0.5887 C   0  0  0  0  0  0  0  0  0  0  0  0
   -1.9241   -1.0573    0.2075 C   0  0  0  0  0  0  0  0  0  0  0  0
   -0.9399   -0.1433   -0.1429 C   0  0  0  0  0  0  0  0  0  0  0  0
   -1.4798    1.5128    0.0417 S   0  0  0  0  0  0  0  0  0  0  0  0
    0.3736   -0.4231   -0.5881 C   0  0  0  0  0  0  0  0  0  0  0  0
    0.9598   -2.0731   -0.6396 S   0  0  0  0  0  0  0  0  0  0  0  0
    2.4816   -1.5154   -1.2065 C   0  0  0  0  0  0  0  0  0  0  0  0
    2.5327   -0.1247   -1.3427 C   0  0  0  0  0  0  0  0  0  0  0  0
    1.3355    0.4876   -1.0027 C   0  0  0  0  0  0  0  0  0  0  0  0
    3.7165   -2.0763   -1.5833 C   0  0  0  0  0  0  0  0  0  0  0  0
    4.5746   -1.0298   -1.9772 C   0  0  0  0  0  0  0  0  0  0  0  0
    3.8824    0.3122   -1.8673 C   0  0  0  0  0  0  0  0  0  0  0  0
    4.4385   -3.6238   -1.6428 S   0  0  0  0  0  0  0  0  0  0  0  0
    5.9427   -2.8910   -2.1882 C   0  0  0  0  0  0  0  0  0  0  0  0
    5.8240   -1.4930   -2.3054 C   0  0  0  0  0  0  0  0  0  0  0  0
    7.1416   -3.5488   -2.4690 C   0  0  0  0  0  0  0  0  0  0  0  0
    7.4741   -4.8830   -2.3914 C   0  0  0  0  0  0  0  0  0  0  0  0
    8.7713   -5.4507   -2.6905 C   0  0  0  0  0  0  0  0  0  0  0  0
    8.6857   -6.8917   -2.4400 C   0  0  0  0  0  0  0  0  0  0  0  0
    7.3818   -7.2002   -2.0177 C   0  0  0  0  0  0  0  0  0  0  0  0
    6.5772   -5.9608   -1.9745 C   0  0  0  0  0  0  0  0  0  0  0  0
    9.6293   -7.9002   -2.5518 C   0  0  0  0  0  0  0  0  0  0  0  0
    9.2402   -9.1948   -2.2384 C   0  0  0  0  0  0  0  0  0  0  0  0
    7.9423   -9.4905   -1.8227 C   0  0  0  0  0  0  0  0  0  0  0  0
    6.9929   -8.4875   -1.7070 C   0  0  0  0  0  0  0  0  0  0  0  0
    7.6099  -10.7543   -1.5317 F   0  0  0  0  0  0  0  0  0  0  0  0
   10.1380  -10.1816   -2.3391 F   0  0  0  0  0  0  0  0  0  0  0  0
    5.4056   -5.8775   -1.6520 O   0  0  0  0  0  0  0  0  0  0  0  0
    9.8932   -4.7971   -3.1325 C   0  0  0  0  0  0  0  0  0  0  0  0
    9.9940   -3.4143   -3.3914 C   0  0  0  0  0  0  0  0  0  0  0  0
   11.1256   -5.4310   -3.3981 C   0  0  0  0  0  0  0  0  0  0  0  0
    3.6792    0.9766   -3.2442 C   0  0  0  0  0  0  0  0  0  0  0  0
    4.6533    1.1852   -0.8575 C   0  0  0  0  0  0  0  0  0  0  0  0
    4.0397    2.5518   -0.5848 C   0  0  0  0  0  0  0  0  0  0  0  0
    4.9602    1.4166   -3.9394 C   0  0  0  0  0  0  0  0  0  0  0  0
   -5.1321   -1.6703   -0.0526 C   0  0  0  0  0  0  0  0  0  0  0  0
   -4.4229   -1.6365    2.4343 C   0  0  0  0  0  0  0  0  0  0  0  0
   -3.7365   -2.9949    2.3901 C   0  0  0  0  0  0  0  0  0  0  0  0
   -6.5567   -2.1273    0.2296 C   0  0  0  0  0  0  0  0  0  0  0  0
   -5.7228    5.3474    1.6482 O   0  0  0  0  0  0  0  0  0  0  0  0
  -10.0747    9.7191    3.4733 F   0  0  0  0  0  0  0  0  0  0  0  0
   -7.5776   10.2824    2.5711 F   0  0  0  0  0  0  0  0  0  0  0  0
  -10.1684    4.2743    3.2553 C   0  0  0  0  0  0  0  0  0  0  0  0
  -11.3360    4.9194    3.7154 C   0  0  0  0  0  0  0  0  0  0  0  0
  -10.3567    2.8765    3.2528 C   0  0  0  0  0  0  0  0  0  0  0  0
  -10.5950    1.7530    3.2808 N   0  0  0  0  0  0  0  0  0  0  0  0
  -12.3153    5.3787    4.0990 N   0  0  0  0  0  0  0  0  0  0  0  0
   10.1596   -2.3022   -3.6272 N   0  0  0  0  0  0  0  0  0  0  0  0
   12.1561   -5.8794   -3.6314 N   0  0  0  0  0  0  0  0  0  0  0  0
  -10.7171    7.2428    3.6007 H   0  0  0  0  0  0  0  0  0  0  0  0
   -6.1200    8.2088    1.9327 H   0  0  0  0  0  0  0  0  0  0  0  0
   -8.3260    2.3333    2.5469 H   0  0  0  0  0  0  0  0  0  0  0  0
   -7.1489    0.3338    2.1036 H   0  0  0  0  0  0  0  0  0  0  0  0
   -1.7611   -2.1173    0.1328 H   0  0  0  0  0  0  0  0  0  0  0  0
    1.1306    1.5419   -1.0496 H   0  0  0  0  0  0  0  0  0  0  0  0
    6.6599   -0.8892   -2.6110 H   0  0  0  0  0  0  0  0  0  0  0  0
    7.9275   -2.8755   -2.7889 H   0  0  0  0  0  0  0  0  0  0  0  0
   10.6448   -7.7272   -2.8677 H   0  0  0  0  0  0  0  0  0  0  0  0
    5.9884   -8.7110   -1.3850 H   0  0  0  0  0  0  0  0  0  0  0  0
    3.1568    0.2591   -3.8825 H   0  0  0  0  0  0  0  0  0  0  0  0
    3.0204    1.8363   -3.1133 H   0  0  0  0  0  0  0  0  0  0  0  0
    4.7138    0.6287    0.0815 H   0  0  0  0  0  0  0  0  0  0  0  0
    5.6715    1.3103   -1.2279 H   0  0  0  0  0  0  0  0  0  0  0  0
    4.6634    3.0904    0.1251 H   0  0  0  0  0  0  0  0  0  0  0  0
    3.0476    2.4545   -0.1535 H   0  0  0  0  0  0  0  0  0  0  0  0
    3.9726    3.1457   -1.4920 H   0  0  0  0  0  0  0  0  0  0  0  0
    5.4974    2.1562   -3.3525 H   0  0  0  0  0  0  0  0  0  0  0  0
    5.6144    0.5688   -4.1209 H   0  0  0  0  0  0  0  0  0  0  0  0
    4.7129    1.8633   -4.8998 H   0  0  0  0  0  0  0  0  0  0  0  0
   -5.1334   -1.0297   -0.9384 H   0  0  0  0  0  0  0  0  0  0  0  0
   -4.5081   -2.5364   -0.2777 H   0  0  0  0  0  0  0  0  0  0  0  0
   -5.4486   -1.7578    2.7848 H   0  0  0  0  0  0  0  0  0  0  0  0
   -3.9049   -0.9994    3.1559 H   0  0  0  0  0  0  0  0  0  0  0  0
   -4.2326   -3.6684    1.6969 H   0  0  0  0  0  0  0  0  0  0  0  0
   -3.7687   -3.4460    3.3792 H   0  0  0  0  0  0  0  0  0  0  0  0
   -2.6946   -2.8958    2.0997 H   0  0  0  0  0  0  0  0  0  0  0  0
   -6.9388   -2.6675   -0.6336 H   0  0  0  0  0  0  0  0  0  0  0  0
   -7.2084   -1.2775    0.4102 H   0  0  0  0  0  0  0  0  0  0  0  0
   -6.5986   -2.7915    1.0881 H   0  0  0  0  0  0  0  0  0  0  0  0
  1  2  2  0  0  0  0
  2  3  1  0  0  0  0
  3  4  2  0  0  0  0
  4  5  1  0  0  0  0
  5  6  2  0  0  0  0
  6  1  1  0  0  0  0
  5  7  1  0  0  0  0
  7  8  1  0  0  0  0
  8  9  1  0  0  0  0
  9  6  1  0  0  0  0
  8 10  2  0  0  0  0
 10 11  1  0  0  0  0
 11 12  2  0  0  0  0
 12 13  1  0  0  0  0
 13 14  2  0  0  0  0
 14 15  1  0  0  0  0
 15 11  1  0  0  0  0
 13 16  1  0  0  0  0
 16 17  1  0  0  0  0
 17 18  2  0  0  0  0
 18 14  1  0  0  0  0
 17 19  1  0  0  0  0
 19 20  2  0  0  0  0
 20 21  1  0  0  0  0
 21 18  1  0  0  0  0
 20 22  1  0  0  0  0
 22 23  1  0  0  0  0
 23 24  1  0  0  0  0
 24 25  2  0  0  0  0
 25 26  1  0  0  0  0
 26 22  2  0  0  0  0
 24 27  1  0  0  0  0
 27 28  2  0  0  0  0
 28 29  1  0  0  0  0
 29 25  1  0  0  0  0
 27 30  1  0  0  0  0
 30 31  1  0  0  0  0
 31 32  2  0  0  0  0
 32 28  1  0  0  0  0
 31 33  1  0  0  0  0
 33 34  2  0  0  0  0
 34 35  1  0  0  0  0
 35 36  1  0  0  0  0
 36 37  2  0  0  0  0
 37 38  1  0  0  0  0
 38 34  1  0  0  0  0
 36 39  1  0  0  0  0
 39 40  2  0  0  0  0
 40 41  1  0  0  0  0
 41 42  2  0  0  0  0
 42 37  1  0  0  0  0
 41 43  1  0  0  0  0
 40 44  1  0  0  0  0
 38 45  2  0  0  0  0
 35 46  2  0  0  0  0
 46 47  1  0  0  0  0
 46 48  1  0  0  0  0
 29 49  1  0  0  0  0
 29 50  1  0  0  0  0
 50 51  1  0  0  0  0
 49 52  1  0  0  0  0
 16 53  1  0  0  0  0
 16 54  1  0  0  0  0
 54 55  1  0  0  0  0
 53 56  1  0  0  0  0
  7 57  2  0  0  0  0
  2 58  1  0  0  0  0
  3 59  1  0  0  0  0
  9 60  2  0  0  0  0
 60 61  1  0  0  0  0
 60 62  1  0  0  0  0
 62 63  3  0  0  0  0
 61 64  3  0  0  0  0
 47 65  3  0  0  0  0
 48 66  3  0  0  0  0
  1 67  1  0  0  0  0
  4 68  1  0  0  0  0
 10 69  1  0  0  0  0
 12 70  1  0  0  0  0
 19 71  1  0  0  0  0
 26 72  1  0  0  0  0
 32 73  1  0  0  0  0
 33 74  1  0  0  0  0
 39 75  1  0  0  0  0
 42 76  1  0  0  0  0
 49 77  1  0  0  0  0
 49 78  1  0  0  0  0
 50 79  1  0  0  0  0
 50 80  1  0  0  0  0
 51 81  1  0  0  0  0
 51 82  1  0  0  0  0
 51 83  1  0  0  0  0
 52 84  1  0  0  0  0
 52 85  1  0  0  0  0
 52 86  1  0  0  0  0
 53 87  1  0  0  0  0
 53 88  1  0  0  0  0
 54 89  1  0  0  0  0
 54 90  1  0  0  0  0
 55 91  1  0  0  0  0
 55 92  1  0  0  0  0
 55 93  1  0  0  0  0
 56 94  1  0  0  0  0
 56 95  1  0  0  0  0
 56 96  1  0  0  0  0
M  END
