SCF done       -177.528624252023          0.000733873458
 OpenBabel12282109493D

 96105  0  0  1  0  0  0  0  0999 V2000
    1.5146   -3.5707    1.9754 C   0  0  0  0  0  0  0  0  0  0  0  0
    1.8323   -4.6083    2.8456 C   0  0  0  0  0  0  0  0  0  0  0  0
    3.0792   -4.6715    3.4763 C   0  0  0  0  0  0  0  0  0  0  0  0
    4.0299   -3.6855    3.2447 C   0  0  0  0  0  0  0  0  0  0  0  0
    3.7074   -2.6569    2.3839 C   0  0  0  0  0  0  0  0  0  0  0  0
    2.4612   -2.5868    1.7418 C   0  0  0  0  0  0  0  0  0  0  0  0
    4.5386   -1.4977    1.9931 C   0  0  0  0  0  0  0  0  0  0  0  0
    3.6887   -0.6827    1.1024 C   0  0  0  0  0  0  0  0  0  0  0  0
    2.4383   -1.3934    0.8982 C   0  0  0  0  0  0  0  0  0  0  0  0
    3.9290    0.5754    0.6011 C   0  0  0  0  0  0  0  0  0  0  0  0
    5.0532    1.4080    0.6688 C   0  0  0  0  0  0  0  0  0  0  0  0
    6.3448    1.2205    1.1655 C   0  0  0  0  0  0  0  0  0  0  0  0
    7.1357    2.3376    1.0147 C   0  0  0  0  0  0  0  0  0  0  0  0
    6.4684    3.4103    0.3962 C   0  0  0  0  0  0  0  0  0  0  0  0
    4.8571    3.0316   -0.0136 S   0  0  0  0  0  0  0  0  0  0  0  0
    8.5542    2.7193    1.3576 C   0  0  0  0  0  0  0  0  0  0  0  0
    8.5816    4.1467    0.8738 C   0  0  0  0  0  0  0  0  0  0  0  0
    7.3510    4.5052    0.3150 C   0  0  0  0  0  0  0  0  0  0  0  0
    9.5027    5.1821    0.8557 C   0  0  0  0  0  0  0  0  0  0  0  0
    8.9862    6.3372    0.2851 C   0  0  0  0  0  0  0  0  0  0  0  0
    7.3281    6.1289   -0.2449 S   0  0  0  0  0  0  0  0  0  0  0  0
    9.6375    7.5825    0.1256 C   0  0  0  0  0  0  0  0  0  0  0  0
   11.2705    7.8050    0.7257 S   0  0  0  0  0  0  0  0  0  0  0  0
   11.2492    9.4327    0.1827 C   0  0  0  0  0  0  0  0  0  0  0  0
   10.0437    9.7803   -0.4338 C   0  0  0  0  0  0  0  0  0  0  0  0
    9.1349    8.7339   -0.4642 C   0  0  0  0  0  0  0  0  0  0  0  0
   12.1102   10.5470    0.1709 C   0  0  0  0  0  0  0  0  0  0  0  0
   11.4542   11.6236   -0.4410 C   0  0  0  0  0  0  0  0  0  0  0  0
   10.0798   11.2119   -0.9057 C   0  0  0  0  0  0  0  0  0  0  0  0
   13.6957   10.9359    0.6766 S   0  0  0  0  0  0  0  0  0  0  0  0
   13.4994   12.5723    0.0564 C   0  0  0  0  0  0  0  0  0  0  0  0
   12.2269   12.7674   -0.4761 C   0  0  0  0  0  0  0  0  0  0  0  0
   14.5050   13.5505    0.1722 C   0  0  0  0  0  0  0  0  0  0  0  0
   15.8479   13.3825    0.3563 C   0  0  2  0  0  0  0  0  0  0  0  0
   16.7108   12.2405    0.1597 C   0  0  0  0  0  0  0  0  0  0  0  0
   17.9424   12.4991    0.9029 C   0  0  0  0  0  0  0  0  0  0  0  0
   17.9365   13.8391    1.3323 C   0  0  0  0  0  0  0  0  0  0  0  0
   16.6605   14.4796    0.9372 C   0  0  0  0  0  0  0  0  0  0  0  0
   19.0261   11.6861    1.1841 C   0  0  0  0  0  0  0  0  0  0  0  0
   20.0952   12.2261    1.8916 C   0  0  0  0  0  0  0  0  0  0  0  0
   20.0892   13.5631    2.3041 C   0  0  0  0  0  0  0  0  0  0  0  0
   19.0004   14.3804    2.0239 C   0  0  0  0  0  0  0  0  0  0  0  0
   21.4321   14.2010    3.1638 Cl  0  0  0  0  0  0  0  0  0  0  0  0
   21.4409   11.2254    2.2601 Cl  0  0  0  0  0  0  0  0  0  0  0  0
   16.3267   15.6311    1.0952 O   0  0  0  0  0  0  0  0  0  0  0  0
   16.5438   11.2505   -0.7750 C   0  0  0  0  0  0  0  0  0  0  0  0
   17.4660   10.2069   -0.9875 C   0  0  0  0  0  0  0  0  0  0  0  0
   15.4706   11.2253   -1.6891 C   0  0  0  0  0  0  0  0  0  0  0  0
    9.9733   11.2970   -2.4419 C   0  0  0  0  0  0  0  0  0  0  0  0
    8.9701   12.0574   -0.2559 C   0  0  0  0  0  0  0  0  0  0  0  0
    9.0119   12.0263    1.2672 C   0  0  0  0  0  0  0  0  0  0  0  0
   11.0459   10.4923   -3.1663 C   0  0  0  0  0  0  0  0  0  0  0  0
    9.5714    1.8439    0.6004 C   0  0  0  0  0  0  0  0  0  0  0  0
    8.8154    2.6245    2.8723 C   0  0  0  0  0  0  0  0  0  0  0  0
    7.8567    3.4732    3.6984 C   0  0  0  0  0  0  0  0  0  0  0  0
    9.3817    1.8746   -0.9112 C   0  0  0  0  0  0  0  0  0  0  0  0
    5.6773   -1.2988    2.3662 O   0  0  0  0  0  0  0  0  0  0  0  0
    0.6622   -5.8296    3.1450 Cl  0  0  0  0  0  0  0  0  0  0  0  0
    3.4383   -5.9689    4.5426 Cl  0  0  0  0  0  0  0  0  0  0  0  0
    1.4229   -1.0685    0.0354 C   0  0  0  0  0  0  0  0  0  0  0  0
    0.2380   -1.8221   -0.1073 C   0  0  0  0  0  0  0  0  0  0  0  0
    1.4011    0.0225   -0.8595 C   0  0  0  0  0  0  0  0  0  0  0  0
    1.2952    0.8702   -1.6278 N   0  0  0  0  0  0  0  0  0  0  0  0
   -0.7492   -2.3830   -0.2765 N   0  0  0  0  0  0  0  0  0  0  0  0
   18.1753    9.3271   -1.1882 N   0  0  0  0  0  0  0  0  0  0  0  0
   14.6380   11.2049   -2.4797 N   0  0  0  0  0  0  0  0  0  0  0  0
    0.5425   -3.5569    1.5111 H   0  0  0  0  0  0  0  0  0  0  0  0
    4.9952   -3.7193    3.7244 H   0  0  0  0  0  0  0  0  0  0  0  0
    3.1003    1.0313    0.0720 H   0  0  0  0  0  0  0  0  0  0  0  0
    6.6496    0.2952    1.6177 H   0  0  0  0  0  0  0  0  0  0  0  0
   10.5077    5.1306    1.2345 H   0  0  0  0  0  0  0  0  0  0  0  0
    8.1476    8.7757   -0.8885 H   0  0  0  0  0  0  0  0  0  0  0  0
   11.9271   13.7091   -0.8995 H   0  0  0  0  0  0  0  0  0  0  0  0
   14.1610   14.5805    0.1910 H   0  0  0  0  0  0  0  0  0  0  0  0
   19.0589   10.6518    0.8819 H   0  0  0  0  0  0  0  0  0  0  0  0
   18.9865   15.4122    2.3374 H   0  0  0  0  0  0  0  0  0  0  0  0
    8.9850   10.9373   -2.7360 H   0  0  0  0  0  0  0  0  0  0  0  0
   10.0504   12.3466   -2.7313 H   0  0  0  0  0  0  0  0  0  0  0  0
    9.0748   13.0874   -0.6014 H   0  0  0  0  0  0  0  0  0  0  0  0
    8.0044   11.6828   -0.6007 H   0  0  0  0  0  0  0  0  0  0  0  0
    9.9606   12.4099    1.6358 H   0  0  0  0  0  0  0  0  0  0  0  0
    8.2129   12.6413    1.6733 H   0  0  0  0  0  0  0  0  0  0  0  0
    8.8844   11.0114    1.6370 H   0  0  0  0  0  0  0  0  0  0  0  0
   10.9774    9.4373   -2.9106 H   0  0  0  0  0  0  0  0  0  0  0  0
   10.9146   10.5909   -4.2408 H   0  0  0  0  0  0  0  0  0  0  0  0
   12.0427   10.8444   -2.9123 H   0  0  0  0  0  0  0  0  0  0  0  0
   10.5763    2.1918    0.8475 H   0  0  0  0  0  0  0  0  0  0  0  0
    9.4702    0.8178    0.9579 H   0  0  0  0  0  0  0  0  0  0  0  0
    8.7209    1.5790    3.1699 H   0  0  0  0  0  0  0  0  0  0  0  0
    9.8419    2.9418    3.0660 H   0  0  0  0  0  0  0  0  0  0  0  0
    6.8282    3.1574    3.5406 H   0  0  0  0  0  0  0  0  0  0  0  0
    8.0872    3.3689    4.7555 H   0  0  0  0  0  0  0  0  0  0  0  0
    7.9402    4.5247    3.4320 H   0  0  0  0  0  0  0  0  0  0  0  0
    9.4948    2.8854   -1.2968 H   0  0  0  0  0  0  0  0  0  0  0  0
   10.1243    1.2414   -1.3899 H   0  0  0  0  0  0  0  0  0  0  0  0
    8.3945    1.5094   -1.1849 H   0  0  0  0  0  0  0  0  0  0  0  0
  1  2  1  0  0  0  0
  2 58  1  0  0  0  0
  2  3  2  0  0  0  0
  3 59  1  0  0  0  0
  4  3  1  0  0  0  0
  4 68  1  0  0  0  0
  5  4  2  0  0  0  0
  6  1  2  0  0  0  0
  6  5  1  0  0  0  0
  7 57  2  0  0  0  0
  7  5  1  0  0  0  0
  8  7  1  0  0  0  0
  9  8  1  0  0  0  0
  9  6  1  0  0  0  0
 10 11  1  0  0  0  0
 10  8  2  0  0  0  0
 11 12  2  0  0  0  0
 12 70  1  0  0  0  0
 13 12  1  0  0  0  0
 13 16  1  0  0  0  0
 14 13  2  0  0  0  0
 15 14  1  0  0  0  0
 15 11  1  0  0  0  0
 16 54  1  0  0  0  0
 17 16  1  0  0  0  0
 18 14  1  0  0  0  0
 18 17  2  0  0  0  0
 19 17  1  0  0  0  0
 19 71  1  0  0  0  0
 20 19  2  0  0  0  0
 21 20  1  0  0  0  0
 21 18  1  0  0  0  0
 22 20  1  0  0  0  0
 22 23  1  0  0  0  0
 24 23  1  0  0  0  0
 25 24  2  0  0  0  0
 26 25  1  0  0  0  0
 26 22  2  0  0  0  0
 27 24  1  0  0  0  0
 27 30  1  0  0  0  0
 28 27  2  0  0  0  0
 29 28  1  0  0  0  0
 29 25  1  0  0  0  0
 29 50  1  0  0  0  0
 31 33  1  0  0  0  0
 31 30  1  0  0  0  0
 32 28  1  0  0  0  0
 32 31  2  0  0  0  0
 33 74  1  0  0  0  0
 34 33  1  1  0  0  0
 34 38  1  0  0  0  0
 35 34  1  0  0  0  0
 35 36  1  0  0  0  0
 36 39  2  0  0  0  0
 36 37  1  0  0  0  0
 37 42  2  0  0  0  0
 38 45  2  0  0  0  0
 38 37  1  0  0  0  0
 39 40  1  0  0  0  0
 40 44  1  0  0  0  0
 40 41  2  0  0  0  0
 41 43  1  0  0  0  0
 42 41  1  0  0  0  0
 42 76  1  0  0  0  0
 46 35  2  0  0  0  0
 47 46  1  0  0  0  0
 48 46  1  0  0  0  0
 49 29  1  0  0  0  0
 50 51  1  0  0  0  0
 51 81  1  0  0  0  0
 51 83  1  0  0  0  0
 51 82  1  0  0  0  0
 52 86  1  0  0  0  0
 52 84  1  0  0  0  0
 52 49  1  0  0  0  0
 53 87  1  0  0  0  0
 53 88  1  0  0  0  0
 53 16  1  0  0  0  0
 54 90  1  0  0  0  0
 54 89  1  0  0  0  0
 54 55  1  0  0  0  0
 55 92  1  0  0  0  0
 56 53  1  0  0  0  0
 60  9  2  0  0  0  0
 61 60  1  0  0  0  0
 62 60  1  0  0  0  0
 63 62  3  0  0  0  0
 64 61  3  0  0  0  0
 65 47  3  0  0  0  0
 66 48  3  0  0  0  0
 67  1  1  0  0  0  0
 69 10  1  0  0  0  0
 72 26  1  0  0  0  0
 73 32  1  0  0  0  0
 75 39  1  0  0  0  0
 77 49  1  0  0  0  0
 78 49  1  0  0  0  0
 79 50  1  0  0  0  0
 80 50  1  0  0  0  0
 85 52  1  0  0  0  0
 91 55  1  0  0  0  0
 93 55  1  0  0  0  0
 94 56  1  0  0  0  0
 95 56  1  0  0  0  0
 96 56  1  0  0  0  0
M  RAD  2  33   2  34   2
M  END
