SCF done       -218.706323234413          0.000420886452
 OpenBabel12282109493D

123135  0  0  0  0  0  0  0  0999 V2000
    2.8417    3.6345  -11.5026 C   0  0  0  0  0  0  0  0  0  0  0  0
    1.8924    2.9371  -11.1913 O   0  0  0  0  0  0  0  0  0  0  0  0
    3.6051    3.5514  -12.7670 C   0  0  0  0  0  0  0  0  0  0  0  0
    3.4157    2.6926  -13.8304 C   0  0  0  0  0  0  0  0  0  0  0  0
    4.2734    2.8120  -14.9126 C   0  0  0  0  0  0  0  0  0  0  0  0
    5.2864    3.7698  -14.9135 C   0  0  0  0  0  0  0  0  0  0  0  0
    5.4754    4.6332  -13.8438 C   0  0  0  0  0  0  0  0  0  0  0  0
    4.6222    4.5203  -12.7580 C   0  0  0  0  0  0  0  0  0  0  0  0
    4.5544    5.2622  -11.4963 C   0  0  0  0  0  0  0  0  0  0  0  0
    5.3909    6.2923  -11.1460 C   0  0  0  0  0  0  0  0  0  0  0  0
    5.3424    7.0230   -9.9409 C   0  0  0  0  0  0  0  0  0  0  0  0
    5.3753    7.6687   -8.9908 N   0  0  0  0  0  0  0  0  0  0  0  0
    6.4359    6.7753  -11.9612 C   0  0  0  0  0  0  0  0  0  0  0  0
    7.3029    7.2171  -12.5705 N   0  0  0  0  0  0  0  0  0  0  0  0
    3.4618    4.7082  -10.7290 C   0  0  0  0  0  0  0  0  0  0  0  0
    3.0727    5.1197   -9.4721 C   0  0  0  0  0  0  0  0  0  0  0  0
  -13.5632    1.4947    6.8015 C   0  0  0  0  0  0  0  0  0  0  0  0
  -12.5894    1.7233    6.1059 O   0  0  0  0  0  0  0  0  0  0  0  0
  -13.8504    2.1036    8.1182 C   0  0  0  0  0  0  0  0  0  0  0  0
  -13.1013    3.0275    8.8179 C   0  0  0  0  0  0  0  0  0  0  0  0
  -13.5869    3.4495   10.0455 C   0  0  0  0  0  0  0  0  0  0  0  0
  -14.7899    2.9500   10.5424 C   0  0  0  0  0  0  0  0  0  0  0  0
  -15.5419    2.0209    9.8373 C   0  0  0  0  0  0  0  0  0  0  0  0
  -15.0634    1.5936    8.6093 C   0  0  0  0  0  0  0  0  0  0  0  0
  -15.6019    0.6412    7.6343 C   0  0  0  0  0  0  0  0  0  0  0  0
  -16.7789   -0.0494    7.7813 C   0  0  0  0  0  0  0  0  0  0  0  0
  -17.3178   -0.9693    6.8584 C   0  0  0  0  0  0  0  0  0  0  0  0
  -17.8270   -1.7307    6.1644 N   0  0  0  0  0  0  0  0  0  0  0  0
  -17.6306    0.0688    8.8995 C   0  0  0  0  0  0  0  0  0  0  0  0
  -18.3684    0.1164    9.7777 N   0  0  0  0  0  0  0  0  0  0  0  0
  -14.6732    0.5841    6.5276 C   0  0  0  0  0  0  0  0  0  0  0  0
  -14.8091   -0.2014    5.4023 C   0  0  0  0  0  0  0  0  0  0  0  0
  -13.9898   -0.3341    4.2822 C   0  0  0  0  0  0  0  0  0  0  0  0
  -12.4801    0.5183    3.9741 S   0  0  0  0  0  0  0  0  0  0  0  0
  -12.3360   -0.2967    2.4804 C   0  0  0  0  0  0  0  0  0  0  0  0
  -13.3836   -1.2031    2.2180 C   0  0  0  0  0  0  0  0  0  0  0  0
  -14.3149   -1.2071    3.2249 C   0  0  0  0  0  0  0  0  0  0  0  0
  -11.4523   -0.3136    1.3871 C   0  0  0  0  0  0  0  0  0  0  0  0
  -11.9098   -1.2144    0.4206 C   0  0  0  0  0  0  0  0  0  0  0  0
  -13.1990   -1.8687    0.8697 C   0  0  0  0  0  0  0  0  0  0  0  0
   -9.9805    0.4481    0.9418 S   0  0  0  0  0  0  0  0  0  0  0  0
   -9.9570   -0.4617   -0.5526 C   0  0  0  0  0  0  0  0  0  0  0  0
  -11.0544   -1.3075   -0.6679 C   0  0  0  0  0  0  0  0  0  0  0  0
   -2.7800    2.3364   -5.3286 C   0  0  0  0  0  0  0  0  0  0  0  0
   -2.1513    1.9482   -6.9158 S   0  0  0  0  0  0  0  0  0  0  0  0
   -0.9346    3.1502   -6.7303 C   0  0  0  0  0  0  0  0  0  0  0  0
   -1.0249    3.8220   -5.5072 C   0  0  0  0  0  0  0  0  0  0  0  0
   -2.0573    3.3495   -4.7129 C   0  0  0  0  0  0  0  0  0  0  0  0
    0.1541    3.6518   -7.4671 C   0  0  0  0  0  0  0  0  0  0  0  0
    0.7750    4.6630   -6.7038 C   0  0  0  0  0  0  0  0  0  0  0  0
    0.0693    4.8567   -5.3792 C   0  0  0  0  0  0  0  0  0  0  0  0
    0.8851    3.3919   -8.9906 S   0  0  0  0  0  0  0  0  0  0  0  0
    2.0457    4.6703   -8.6438 C   0  0  0  0  0  0  0  0  0  0  0  0
    1.8225    5.2390   -7.3747 C   0  0  0  0  0  0  0  0  0  0  0  0
    0.9614    4.4816   -4.1791 C   0  0  0  0  0  0  0  0  0  0  0  0
    2.1537    5.4006   -3.9516 C   0  0  0  0  0  0  0  0  0  0  0  0
   -0.4874    6.2931   -5.3225 C   0  0  0  0  0  0  0  0  0  0  0  0
   -1.3041    6.6199   -4.0795 C   0  0  0  0  0  0  0  0  0  0  0  0
  -14.3925   -1.4899   -0.0294 C   0  0  0  0  0  0  0  0  0  0  0  0
  -14.3187   -2.0167   -1.4561 C   0  0  0  0  0  0  0  0  0  0  0  0
  -12.9633   -3.3870    0.9932 C   0  0  0  0  0  0  0  0  0  0  0  0
  -14.1556   -4.1836    1.5048 C   0  0  0  0  0  0  0  0  0  0  0  0
  -15.2358    3.3745   11.7310 F   0  0  0  0  0  0  0  0  0  0  0  0
  -12.8937    4.3450   10.7607 F   0  0  0  0  0  0  0  0  0  0  0  0
    4.1273    1.9991  -15.9673 F   0  0  0  0  0  0  0  0  0  0  0  0
    6.1011    3.8628  -15.9715 F   0  0  0  0  0  0  0  0  0  0  0  0
   -8.8990   -0.2772   -1.4763 C   0  0  0  0  0  0  0  0  0  0  0  0
   -7.6324    0.8832   -1.1276 S   0  0  0  0  0  0  0  0  0  0  0  0
   -6.8768    0.5105   -2.6187 C   0  0  0  0  0  0  0  0  0  0  0  0
   -7.5543   -0.4731   -3.3430 C   0  0  0  0  0  0  0  0  0  0  0  0
   -8.7048   -0.9081   -2.6983 C   0  0  0  0  0  0  0  0  0  0  0  0
   -5.7672    0.9553   -3.3659 C   0  0  0  0  0  0  0  0  0  0  0  0
   -5.7229    0.2628   -4.5758 C   0  0  0  0  0  0  0  0  0  0  0  0
   -6.8438   -0.7512   -4.6487 C   0  0  0  0  0  0  0  0  0  0  0  0
   -4.5106    2.1106   -3.2135 S   0  0  0  0  0  0  0  0  0  0  0  0
   -3.9074    1.6650   -4.8018 C   0  0  0  0  0  0  0  0  0  0  0  0
   -4.6671    0.6617   -5.3842 C   0  0  0  0  0  0  0  0  0  0  0  0
   -7.7548   -0.5175   -5.8634 C   0  0  0  0  0  0  0  0  0  0  0  0
   -8.2871    0.9092   -5.9330 C   0  0  0  0  0  0  0  0  0  0  0  0
   -6.2083   -2.1592   -4.6707 C   0  0  0  0  0  0  0  0  0  0  0  0
   -7.1950   -3.3130   -4.5545 C   0  0  0  0  0  0  0  0  0  0  0  0
    2.6309    1.9532  -13.8251 H   0  0  0  0  0  0  0  0  0  0  0  0
    6.2736    5.3551  -13.8950 H   0  0  0  0  0  0  0  0  0  0  0  0
    3.6468    5.9264   -9.0330 H   0  0  0  0  0  0  0  0  0  0  0  0
  -12.1715    3.4104    8.4286 H   0  0  0  0  0  0  0  0  0  0  0  0
  -16.4644    1.6677   10.2675 H   0  0  0  0  0  0  0  0  0  0  0  0
  -15.6918   -0.8277    5.3582 H   0  0  0  0  0  0  0  0  0  0  0  0
  -15.2184   -1.7902    3.2471 H   0  0  0  0  0  0  0  0  0  0  0  0
  -11.1934   -1.9553   -1.5133 H   0  0  0  0  0  0  0  0  0  0  0  0
   -2.3003    3.6948   -3.7241 H   0  0  0  0  0  0  0  0  0  0  0  0
    2.4325    6.0486   -7.0154 H   0  0  0  0  0  0  0  0  0  0  0  0
    0.3377    4.4646   -3.2840 H   0  0  0  0  0  0  0  0  0  0  0  0
    1.3238    3.4634   -4.3436 H   0  0  0  0  0  0  0  0  0  0  0  0
    1.8373    6.4208   -3.7540 H   0  0  0  0  0  0  0  0  0  0  0  0
    2.7192    5.0503   -3.0910 H   0  0  0  0  0  0  0  0  0  0  0  0
    2.8155    5.3982   -4.8128 H   0  0  0  0  0  0  0  0  0  0  0  0
    0.3525    6.9846   -5.3996 H   0  0  0  0  0  0  0  0  0  0  0  0
   -1.1128    6.4398   -6.2070 H   0  0  0  0  0  0  0  0  0  0  0  0
   -0.7162    6.4974   -3.1742 H   0  0  0  0  0  0  0  0  0  0  0  0
   -1.6360    7.6545   -4.1287 H   0  0  0  0  0  0  0  0  0  0  0  0
   -2.1847    5.9870   -4.0155 H   0  0  0  0  0  0  0  0  0  0  0  0
  -15.3038   -1.8535    0.4469 H   0  0  0  0  0  0  0  0  0  0  0  0
  -14.4516   -0.3988   -0.0566 H   0  0  0  0  0  0  0  0  0  0  0  0
  -14.2754   -3.1021   -1.4770 H   0  0  0  0  0  0  0  0  0  0  0  0
  -15.2059   -1.7039   -2.0020 H   0  0  0  0  0  0  0  0  0  0  0  0
  -13.4490   -1.6188   -1.9713 H   0  0  0  0  0  0  0  0  0  0  0  0
  -12.6641   -3.7659    0.0146 H   0  0  0  0  0  0  0  0  0  0  0  0
  -12.1194   -3.5350    1.6721 H   0  0  0  0  0  0  0  0  0  0  0  0
  -15.0116   -4.0877    0.8428 H   0  0  0  0  0  0  0  0  0  0  0  0
  -13.8885   -5.2366    1.5603 H   0  0  0  0  0  0  0  0  0  0  0  0
  -14.4423   -3.8562    2.4997 H   0  0  0  0  0  0  0  0  0  0  0  0
   -9.3928   -1.6363   -3.0863 H   0  0  0  0  0  0  0  0  0  0  0  0
   -4.4413    0.2682   -6.3592 H   0  0  0  0  0  0  0  0  0  0  0  0
   -7.1884   -0.7396   -6.7699 H   0  0  0  0  0  0  0  0  0  0  0  0
   -8.5968   -1.2084   -5.8093 H   0  0  0  0  0  0  0  0  0  0  0  0
   -7.4718    1.6227   -6.0261 H   0  0  0  0  0  0  0  0  0  0  0  0
   -8.9403    1.0211   -6.7949 H   0  0  0  0  0  0  0  0  0  0  0  0
   -8.8553    1.1519   -5.0377 H   0  0  0  0  0  0  0  0  0  0  0  0
   -5.6450   -2.2554   -5.6012 H   0  0  0  0  0  0  0  0  0  0  0  0
   -5.4962   -2.2200   -3.8439 H   0  0  0  0  0  0  0  0  0  0  0  0
   -7.9117   -3.3064   -5.3710 H   0  0  0  0  0  0  0  0  0  0  0  0
   -6.6529   -4.2551   -4.5900 H   0  0  0  0  0  0  0  0  0  0  0  0
   -7.7323   -3.2677   -3.6113 H   0  0  0  0  0  0  0  0  0  0  0  0
  1  2  2  0  0  0  0
  1 15  1  0  0  0  0
  3  8  1  0  0  0  0
  3  1  1  0  0  0  0
  4 82  1  0  0  0  0
  4  3  2  0  0  0  0
  5  4  1  0  0  0  0
  6  5  2  0  0  0  0
  6  7  1  0  0  0  0
  7  8  2  0  0  0  0
  8  9  1  0  0  0  0
  9 10  2  0  0  0  0
  9 15  1  0  0  0  0
 10 11  1  0  0  0  0
 11 12  3  0  0  0  0
 13 10  1  0  0  0  0
 14 13  3  0  0  0  0
 15 16  2  0  0  0  0
 16 84  1  0  0  0  0
 16 53  1  0  0  0  0
 17 19  1  0  0  0  0
 18 17  2  0  0  0  0
 19 24  2  0  0  0  0
 19 20  1  0  0  0  0
 20 21  2  0  0  0  0
 21 22  1  0  0  0  0
 21 64  1  0  0  0  0
 22 63  1  0  0  0  0
 23 86  1  0  0  0  0
 23 22  2  0  0  0  0
 24 23  1  0  0  0  0
 25 26  1  0  0  0  0
 25 24  1  0  0  0  0
 26 29  1  0  0  0  0
 27 26  1  0  0  0  0
 28 27  3  0  0  0  0
 29 30  3  0  0  0  0
 31 17  1  0  0  0  0
 31 25  2  0  0  0  0
 32 31  1  0  0  0  0
 33 32  1  0  0  0  0
 34 33  1  0  0  0  0
 35 34  1  0  0  0  0
 36 35  2  0  0  0  0
 36 37  1  0  0  0  0
 37 88  1  0  0  0  0
 37 33  2  0  0  0  0
 38 35  1  0  0  0  0
 39 40  1  0  0  0  0
 39 38  2  0  0  0  0
 40 61  1  0  0  0  0
 40 36  1  0  0  0  0
 41 38  1  0  0  0  0
 42 41  1  0  0  0  0
 43 42  2  0  0  0  0
 43 39  1  0  0  0  0
 44 76  1  0  0  0  0
 44 48  2  0  0  0  0
 45 46  1  0  0  0  0
 45 44  1  0  0  0  0
 46 47  2  0  0  0  0
 47 51  1  0  0  0  0
 47 48  1  0  0  0  0
 48 90  1  0  0  0  0
 49 46  1  0  0  0  0
 49 50  2  0  0  0  0
 50 51  1  0  0  0  0
 51 57  1  0  0  0  0
 51 55  1  0  0  0  0
 52 53  1  0  0  0  0
 52 49  1  0  0  0  0
 53 54  2  0  0  0  0
 54 91  1  0  0  0  0
 54 50  1  0  0  0  0
 55 56  1  0  0  0  0
 55 92  1  0  0  0  0
 56 94  1  0  0  0  0
 56 95  1  0  0  0  0
 57 58  1  0  0  0  0
 58101  1  0  0  0  0
 58 99  1  0  0  0  0
 59102  1  0  0  0  0
 59 40  1  0  0  0  0
 60 59  1  0  0  0  0
 61 62  1  0  0  0  0
 61108  1  0  0  0  0
 62110  1  0  0  0  0
 62111  1  0  0  0  0
 65  5  1  0  0  0  0
 66  6  1  0  0  0  0
 67 68  1  0  0  0  0
 67 42  1  0  0  0  0
 69 68  1  0  0  0  0
 70 71  1  0  0  0  0
 70 69  2  0  0  0  0
 71 67  2  0  0  0  0
 72 75  1  0  0  0  0
 72 69  1  0  0  0  0
 73 72  2  0  0  0  0
 74 73  1  0  0  0  0
 74 70  1  0  0  0  0
 76 75  1  0  0  0  0
 77 76  2  0  0  0  0
 77 73  1  0  0  0  0
 78115  1  0  0  0  0
 78 74  1  0  0  0  0
 79 78  1  0  0  0  0
 79118  1  0  0  0  0
 80 74  1  0  0  0  0
 80 81  1  0  0  0  0
 80120  1  0  0  0  0
 81123  1  0  0  0  0
 83  7  1  0  0  0  0
 85 20  1  0  0  0  0
 87 32  1  0  0  0  0
 89 43  1  0  0  0  0
 93 55  1  0  0  0  0
 96 56  1  0  0  0  0
 97 57  1  0  0  0  0
 98 57  1  0  0  0  0
100 58  1  0  0  0  0
103 59  1  0  0  0  0
104 60  1  0  0  0  0
105 60  1  0  0  0  0
106 60  1  0  0  0  0
107 61  1  0  0  0  0
109 62  1  0  0  0  0
112 71  1  0  0  0  0
113 77  1  0  0  0  0
114 78  1  0  0  0  0
116 79  1  0  0  0  0
117 79  1  0  0  0  0
119 80  1  0  0  0  0
121 81  1  0  0  0  0
122 81  1  0  0  0  0
M  RAD  2  26   2  32   2
M  END
