DBD-4F.sdf
  xtb     12202114033D
 energy: -201.836748409181 gnorm: 0.000275291070 xtb: 6.4.1 (unknown)
106116  0     0  0            999 V2000
   -1.7761  -10.1593    4.1600 C   0  0  0  0  0  0  0  0  0  0  0  0
   -1.3095   -9.9036    3.0666 O   0  0  0  0  0  0  0  0  0  0  0  0
   -1.4210  -11.3464    4.9714 C   0  0  0  0  0  0  0  0  0  0  0  0
   -0.4970  -12.3295    4.6794 C   0  0  0  0  0  0  0  0  0  0  0  0
   -0.3209  -13.3417    5.6088 C   0  0  0  0  0  0  0  0  0  0  0  0
   -1.0583  -13.3541    6.7922 C   0  0  0  0  0  0  0  0  0  0  0  0
   -1.9907  -12.3685    7.0816 C   0  0  0  0  0  0  0  0  0  0  0  0
   -2.1723  -11.3528    6.1561 C   0  0  0  0  0  0  0  0  0  0  0  0
   -3.0549  -10.1855    6.1516 C   0  0  0  0  0  0  0  0  0  0  0  0
   -4.0156   -9.9340    7.0975 C   0  0  0  0  0  0  0  0  0  0  0  0
   -4.9474   -8.8739    7.0825 C   0  0  0  0  0  0  0  0  0  0  0  0
   -5.7580   -8.0628    7.1504 N   0  0  0  0  0  0  0  0  0  0  0  0
   -4.2352  -10.7437    8.2321 C   0  0  0  0  0  0  0  0  0  0  0  0
   -4.4633  -11.3526    9.1781 N   0  0  0  0  0  0  0  0  0  0  0  0
   -2.7586   -9.4105    4.9614 C   0  0  0  0  0  0  0  0  0  0  0  0
   -0.8629  -14.3398    7.6766 F   0  0  0  0  0  0  0  0  0  0  0  0
   -3.2557   -8.1432    4.7476 C   0  0  0  0  0  0  0  0  0  0  0  0
    0.5683  -14.3150    5.3696 F   0  0  0  0  0  0  0  0  0  0  0  0
    5.0714    8.3841   -4.4203 C   0  0  0  0  0  0  0  0  0  0  0  0
    4.7185    7.2278   -4.5609 O   0  0  0  0  0  0  0  0  0  0  0  0
    6.3530    8.9613   -4.8824 C   0  0  0  0  0  0  0  0  0  0  0  0
    7.3916    8.3294   -5.5353 C   0  0  0  0  0  0  0  0  0  0  0  0
    8.5016    9.0916   -5.8634 C   0  0  0  0  0  0  0  0  0  0  0  0
    8.5521   10.4470   -5.5408 C   0  0  0  0  0  0  0  0  0  0  0  0
    7.5067   11.0809   -4.8846 C   0  0  0  0  0  0  0  0  0  0  0  0
    6.3938   10.3255   -4.5512 C   0  0  0  0  0  0  0  0  0  0  0  0
    5.1500   10.6792   -3.8620 C   0  0  0  0  0  0  0  0  0  0  0  0
    4.8509   11.9286   -3.3785 C   0  0  0  0  0  0  0  0  0  0  0  0
    3.6716   12.2915   -2.6962 C   0  0  0  0  0  0  0  0  0  0  0  0
    2.7472   12.6730   -2.1298 N   0  0  0  0  0  0  0  0  0  0  0  0
    5.7038   13.0462   -3.4940 C   0  0  0  0  0  0  0  0  0  0  0  0
    6.3477   13.9949   -3.5516 N   0  0  0  0  0  0  0  0  0  0  0  0
    4.3438    9.4814   -3.7823 C   0  0  0  0  0  0  0  0  0  0  0  0
    9.6363   11.1600   -5.8697 F   0  0  0  0  0  0  0  0  0  0  0  0
    3.1028    9.3899   -3.1906 C   0  0  0  0  0  0  0  0  0  0  0  0
    9.5354    8.5203   -6.4955 F   0  0  0  0  0  0  0  0  0  0  0  0
    2.2613    8.2935   -2.9962 C   0  0  0  0  0  0  0  0  0  0  0  0
    2.5713    6.6302   -3.5066 S   0  0  0  0  0  0  0  0  0  0  0  0
    1.1112    6.1290   -2.7546 C   0  0  0  0  0  0  0  0  0  0  0  0
    0.4072    7.2102   -2.1492 C   0  0  0  0  0  0  0  0  0  0  0  0
    1.0516    8.4194   -2.2946 C   0  0  0  0  0  0  0  0  0  0  0  0
    0.3730    4.9813   -2.4789 C   0  0  0  0  0  0  0  0  0  0  0  0
   -0.7459    5.3830   -1.7144 C   0  0  0  0  0  0  0  0  0  0  0  0
   -0.7366    6.7433   -1.5484 N   0  0  0  0  0  0  0  0  0  0  0  0
    0.3911    3.2750   -2.7260 S   0  0  0  0  0  0  0  0  0  0  0  0
   -1.0459    3.1002   -1.7386 C   0  0  0  0  0  0  0  0  0  0  0  0
   -1.5402    4.3152   -1.2977 C   0  0  0  0  0  0  0  0  0  0  0  0
   -1.5139    1.7889   -1.3750 C   0  0  0  0  0  0  0  0  0  0  0  0
   -0.9942    0.6301   -1.9968 C   0  0  0  0  0  0  0  0  0  0  0  0
   -1.3451   -0.6190   -1.5244 C   0  0  0  0  0  0  0  0  0  0  0  0
   -2.2130   -0.7889   -0.4403 C   0  0  0  0  0  0  0  0  0  0  0  0
   -2.7924    0.3676    0.1313 C   0  0  0  0  0  0  0  0  0  0  0  0
   -2.4346    1.6174   -0.3377 C   0  0  0  0  0  0  0  0  0  0  0  0
   -2.4415   -2.0928    0.1228 C   0  0  0  0  0  0  0  0  0  0  0  0
   -3.3113   -2.2646    1.6358 S   0  0  0  0  0  0  0  0  0  0  0  0
   -2.9600   -3.9541    1.6652 C   0  0  0  0  0  0  0  0  0  0  0  0
   -2.2388   -4.3542    0.5153 C   0  0  0  0  0  0  0  0  0  0  0  0
   -1.9532   -3.2979   -0.3491 C   0  0  0  0  0  0  0  0  0  0  0  0
   -3.1008   -5.0868    2.4598 C   0  0  0  0  0  0  0  0  0  0  0  0
   -2.4580   -6.1534    1.7677 C   0  0  0  0  0  0  0  0  0  0  0  0
   -1.9694   -5.6942    0.5702 N   0  0  0  0  0  0  0  0  0  0  0  0
   -3.7223   -5.6024    3.9709 S   0  0  0  0  0  0  0  0  0  0  0  0
   -3.0724   -7.2365    3.6990 C   0  0  0  0  0  0  0  0  0  0  0  0
   -2.4462   -7.3499    2.4602 C   0  0  0  0  0  0  0  0  0  0  0  0
   -0.1486    0.8439   -3.0324 O   0  0  0  0  0  0  0  0  0  0  0  0
   -1.1704   -6.4553   -0.3559 C   0  0  0  0  0  0  0  0  0  0  0  0
    0.2974   -6.4915    0.0639 C   0  0  0  0  0  0  0  0  0  0  0  0
   -1.6437    7.5137   -0.7377 C   0  0  0  0  0  0  0  0  0  0  0  0
   -1.1842    7.5785    0.7178 C   0  0  0  0  0  0  0  0  0  0  0  0
   -3.6476    0.1444    1.1597 O   0  0  0  0  0  0  0  0  0  0  0  0
   -4.3338    1.2054    1.7933 C   0  0  0  0  0  0  0  0  0  0  0  0
   -5.5068    1.7181    0.9642 C   0  0  0  0  0  0  0  0  0  0  0  0
    0.4853   -0.2431   -3.6779 C   0  0  0  0  0  0  0  0  0  0  0  0
    1.3909    0.3324   -4.7547 C   0  0  0  0  0  0  0  0  0  0  0  0
    0.0716  -12.3136    3.7633 H   0  0  0  0  0  0  0  0  0  0  0  0
   -2.5319  -12.4244    8.0114 H   0  0  0  0  0  0  0  0  0  0  0  0
   -3.8652   -7.7414    5.5484 H   0  0  0  0  0  0  0  0  0  0  0  0
    7.3467    7.2807   -5.7819 H   0  0  0  0  0  0  0  0  0  0  0  0
    7.5978   12.1305   -4.6587 H   0  0  0  0  0  0  0  0  0  0  0  0
    2.7014   10.3078   -2.7787 H   0  0  0  0  0  0  0  0  0  0  0  0
    0.7126    9.3660   -1.9130 H   0  0  0  0  0  0  0  0  0  0  0  0
   -2.4298    4.4195   -0.7048 H   0  0  0  0  0  0  0  0  0  0  0  0
   -0.9150   -1.4938   -1.9794 H   0  0  0  0  0  0  0  0  0  0  0  0
   -2.8372    2.4973    0.1331 H   0  0  0  0  0  0  0  0  0  0  0  0
   -1.4084   -3.4051   -1.2682 H   0  0  0  0  0  0  0  0  0  0  0  0
   -2.0006   -8.2681    2.1267 H   0  0  0  0  0  0  0  0  0  0  0  0
   -1.2724   -6.0004   -1.3445 H   0  0  0  0  0  0  0  0  0  0  0  0
   -1.5706   -7.4719   -0.3965 H   0  0  0  0  0  0  0  0  0  0  0  0
    0.3975   -6.9676    1.0360 H   0  0  0  0  0  0  0  0  0  0  0  0
    0.8771   -7.0557   -0.6611 H   0  0  0  0  0  0  0  0  0  0  0  0
    0.6991   -5.4826    0.1269 H   0  0  0  0  0  0  0  0  0  0  0  0
   -2.6332    7.0528   -0.8009 H   0  0  0  0  0  0  0  0  0  0  0  0
   -1.7037    8.5212   -1.1572 H   0  0  0  0  0  0  0  0  0  0  0  0
   -0.2025    8.0413    0.7823 H   0  0  0  0  0  0  0  0  0  0  0  0
   -1.1225    6.5780    1.1397 H   0  0  0  0  0  0  0  0  0  0  0  0
   -1.8858    8.1644    1.3048 H   0  0  0  0  0  0  0  0  0  0  0  0
   -3.6404    2.0164    2.0466 H   0  0  0  0  0  0  0  0  0  0  0  0
   -4.7016    0.7641    2.7235 H   0  0  0  0  0  0  0  0  0  0  0  0
   -6.1933    0.9013    0.7576 H   0  0  0  0  0  0  0  0  0  0  0  0
   -6.0347    2.4902    1.5168 H   0  0  0  0  0  0  0  0  0  0  0  0
   -5.1681    2.1290    0.0161 H   0  0  0  0  0  0  0  0  0  0  0  0
    1.0739   -0.8198   -2.9516 H   0  0  0  0  0  0  0  0  0  0  0  0
   -0.2710   -0.9015   -4.1273 H   0  0  0  0  0  0  0  0  0  0  0  0
    1.8919   -0.4719   -5.2851 H   0  0  0  0  0  0  0  0  0  0  0  0
    2.1338    0.9843   -4.3044 H   0  0  0  0  0  0  0  0  0  0  0  0
    0.8043    0.9153   -5.4589 H   0  0  0  0  0  0  0  0  0  0  0  0
  1  2  2  0  0  0  0
  1  3  1  0  0  0  0
  3  4  2  0  0  0  0
  4  5  1  0  0  0  0
  5  6  2  0  0  0  0
  6  7  1  0  0  0  0
  7  8  2  0  0  0  0
  3  8  1  0  0  0  0
  8  9  1  0  0  0  0
  9 10  2  0  0  0  0
 10 11  1  0  0  0  0
 11 12  3  0  0  0  0
 10 13  1  0  0  0  0
 13 14  3  0  0  0  0
  9 15  1  0  0  0  0
  1 15  1  0  0  0  0
  6 16  1  0  0  0  0
 15 17  2  0  0  0  0
  5 18  1  0  0  0  0
 19 20  2  0  0  0  0
 19 21  1  0  0  0  0
 21 22  2  0  0  0  0
 22 23  1  0  0  0  0
 23 24  2  0  0  0  0
 24 25  1  0  0  0  0
 25 26  2  0  0  0  0
 21 26  1  0  0  0  0
 26 27  1  0  0  0  0
 27 28  2  0  0  0  0
 28 29  1  0  0  0  0
 29 30  3  0  0  0  0
 28 31  1  0  0  0  0
 31 32  3  0  0  0  0
 27 33  1  0  0  0  0
 19 33  1  0  0  0  0
 24 34  1  0  0  0  0
 33 35  2  0  0  0  0
 23 36  1  0  0  0  0
 35 37  1  0  0  0  0
 37 38  1  0  0  0  0
 38 39  1  0  0  0  0
 39 40  2  0  0  0  0
 40 41  1  0  0  0  0
 41 37  2  0  0  0  0
 39 42  1  0  0  0  0
 42 43  2  0  0  0  0
 43 44  1  0  0  0  0
 44 40  1  0  0  0  0
 42 45  1  0  0  0  0
 45 46  1  0  0  0  0
 46 47  2  0  0  0  0
 47 43  1  0  0  0  0
 46 48  1  0  0  0  0
 48 49  2  0  0  0  0
 49 50  1  0  0  0  0
 50 51  2  0  0  0  0
 51 52  1  0  0  0  0
 52 53  2  0  0  0  0
 53 48  1  0  0  0  0
 51 54  1  0  0  0  0
 54 55  1  0  0  0  0
 55 56  1  0  0  0  0
 56 57  2  0  0  0  0
 57 58  1  0  0  0  0
 58 54  2  0  0  0  0
 56 59  1  0  0  0  0
 59 60  2  0  0  0  0
 60 61  1  0  0  0  0
 61 57  1  0  0  0  0
 59 62  1  0  0  0  0
 62 63  1  0  0  0  0
 63 64  2  0  0  0  0
 64 60  1  0  0  0  0
 63 17  1  0  0  0  0
 49 65  1  0  0  0  0
 61 66  1  0  0  0  0
 66 67  1  0  0  0  0
 44 68  1  0  0  0  0
 68 69  1  0  0  0  0
 52 70  1  0  0  0  0
 70 71  1  0  0  0  0
 71 72  1  0  0  0  0
 65 73  1  0  0  0  0
 73 74  1  0  0  0  0
  4 75  1  0  0  0  0
  7 76  1  0  0  0  0
 17 77  1  0  0  0  0
 22 78  1  0  0  0  0
 25 79  1  0  0  0  0
 35 80  1  0  0  0  0
 41 81  1  0  0  0  0
 47 82  1  0  0  0  0
 50 83  1  0  0  0  0
 53 84  1  0  0  0  0
 58 85  1  0  0  0  0
 64 86  1  0  0  0  0
 66 87  1  0  0  0  0
 66 88  1  0  0  0  0
 67 89  1  0  0  0  0
 67 90  1  0  0  0  0
 67 91  1  0  0  0  0
 68 92  1  0  0  0  0
 68 93  1  0  0  0  0
 69 94  1  0  0  0  0
 69 95  1  0  0  0  0
 69 96  1  0  0  0  0
 71 97  1  0  0  0  0
 71 98  1  0  0  0  0
 72 99  1  0  0  0  0
 72100  1  0  0  0  0
 72101  1  0  0  0  0
 73102  1  0  0  0  0
 73103  1  0  0  0  0
 74104  1  0  0  0  0
 74105  1  0  0  0  0
 74106  1  0  0  0  0
M  END
