DCI-2.sdf
  xtb     12202114133D
 energy: -191.484742063927 gnorm: 0.000521397577 xtb: 6.4.1 (unknown)
114124  0     0  0            999 V2000
   10.5592   -0.0630   -7.1254 C   0  0  0  0  0  0  0  0  0  0  0  0
   10.0864    0.2184   -6.0376 O   0  0  0  0  0  0  0  0  0  0  0  0
   11.9725   -0.3757   -7.4069 C   0  0  0  0  0  0  0  0  0  0  0  0
   13.0367   -0.4378   -6.5299 C   0  0  0  0  0  0  0  0  0  0  0  0
   14.2863   -0.7644   -7.0385 C   0  0  0  0  0  0  0  0  0  0  0  0
   14.4486   -1.0190   -8.3921 C   0  0  0  0  0  0  0  0  0  0  0  0
   13.3794   -0.9556   -9.2773 C   0  0  0  0  0  0  0  0  0  0  0  0
   12.1274   -0.6303   -8.7807 C   0  0  0  0  0  0  0  0  0  0  0  0
   10.8259   -0.4885   -9.4362 C   0  0  0  0  0  0  0  0  0  0  0  0
   10.6010   -0.6372  -10.7812 C   0  0  0  0  0  0  0  0  0  0  0  0
   11.6021   -0.9558  -11.7224 C   0  0  0  0  0  0  0  0  0  0  0  0
   12.3610   -1.2125  -12.5452 N   0  0  0  0  0  0  0  0  0  0  0  0
    9.3591   -0.4930  -11.4333 C   0  0  0  0  0  0  0  0  0  0  0  0
    8.3919   -0.3927  -12.0457 N   0  0  0  0  0  0  0  0  0  0  0  0
    9.8578   -0.1611   -8.4101 C   0  0  0  0  0  0  0  0  0  0  0  0
    8.5071    0.0015   -8.5986 C   0  0  0  0  0  0  0  0  0  0  0  0
   -1.3576    1.1172    3.0890 C   0  0  0  0  0  0  0  0  0  0  0  0
    0.3336    1.6022    3.2007 S   0  0  0  0  0  0  0  0  0  0  0  0
    0.5441    1.3282    1.5117 C   0  0  0  0  0  0  0  0  0  0  0  0
   -0.6564    0.8964    0.9057 C   0  0  0  0  0  0  0  0  0  0  0  0
   -1.7200    0.7792    1.7993 C   0  0  0  0  0  0  0  0  0  0  0  0
    1.5078    1.3667    0.5048 C   0  0  0  0  0  0  0  0  0  0  0  0
    0.8650    0.9615   -0.6859 C   0  0  0  0  0  0  0  0  0  0  0  0
   -0.4470    0.6663   -0.4279 N   0  0  0  0  0  0  0  0  0  0  0  0
    3.1783    1.6953    0.2379 S   0  0  0  0  0  0  0  0  0  0  0  0
    3.0091    1.2784   -1.4668 C   0  0  0  0  0  0  0  0  0  0  0  0
    1.7137    0.9221   -1.7912 C   0  0  0  0  0  0  0  0  0  0  0  0
    5.9388    0.7594   -5.7877 C   0  0  0  0  0  0  0  0  0  0  0  0
   -1.4481    0.3145   -1.4008 C   0  0  0  0  0  0  0  0  0  0  0  0
   -2.1060    1.5561   -1.9998 C   0  0  0  0  0  0  0  0  0  0  0  0
    5.2679    0.6273   -7.0073 C   0  0  0  0  0  0  0  0  0  0  0  0
    6.1491    0.3696   -8.0447 C   0  0  0  0  0  0  0  0  0  0  0  0
    7.4926    0.2852   -7.6763 C   0  0  0  0  0  0  0  0  0  0  0  0
    7.6586    0.5577   -5.9629 S   0  0  0  0  0  0  0  0  0  0  0  0
   -8.6365   -2.7749    3.7027 C   0  0  0  0  0  0  0  0  0  0  0  0
   -7.5756   -2.2901    3.3476 O   0  0  0  0  0  0  0  0  0  0  0  0
   -9.5074   -3.6492    2.8954 C   0  0  0  0  0  0  0  0  0  0  0  0
   -9.3260   -4.0955    1.6018 C   0  0  0  0  0  0  0  0  0  0  0  0
  -10.2979   -4.9196    1.0511 C   0  0  0  0  0  0  0  0  0  0  0  0
  -11.4155   -5.2773    1.7901 C   0  0  0  0  0  0  0  0  0  0  0  0
  -11.6002   -4.8296    3.0925 C   0  0  0  0  0  0  0  0  0  0  0  0
  -10.6364   -4.0066    3.6526 C   0  0  0  0  0  0  0  0  0  0  0  0
  -10.5351   -3.3817    4.9731 C   0  0  0  0  0  0  0  0  0  0  0  0
  -11.4451   -3.5355    5.9882 C   0  0  0  0  0  0  0  0  0  0  0  0
  -12.6205   -4.3088    5.8893 C   0  0  0  0  0  0  0  0  0  0  0  0
  -13.5943   -4.9175    5.8846 N   0  0  0  0  0  0  0  0  0  0  0  0
  -11.3528   -2.9639    7.2738 C   0  0  0  0  0  0  0  0  0  0  0  0
  -11.3525   -2.5437    8.3435 N   0  0  0  0  0  0  0  0  0  0  0  0
   -9.3094   -2.6114    4.9951 C   0  0  0  0  0  0  0  0  0  0  0  0
   -8.8585   -1.8383    6.0380 C   0  0  0  0  0  0  0  0  0  0  0  0
   -7.6865   -1.0828    6.1595 C   0  0  0  0  0  0  0  0  0  0  0  0
   -6.3994   -0.9255    4.9971 S   0  0  0  0  0  0  0  0  0  0  0  0
   -5.5018    0.0964    6.0749 C   0  0  0  0  0  0  0  0  0  0  0  0
   -6.1770    0.3244    7.2813 C   0  0  0  0  0  0  0  0  0  0  0  0
   -7.3894   -0.3439    7.3080 C   0  0  0  0  0  0  0  0  0  0  0  0
   -5.6632    1.2037    8.3815 C   0  0  0  0  0  0  0  0  0  0  0  0
   -6.7159    1.5681    9.4224 C   0  0  0  0  0  0  0  0  0  0  0  0
   -4.2332    0.5626    5.6395 C   0  0  0  0  0  0  0  0  0  0  0  0
   -3.1754    1.1201    6.3271 C   0  0  0  0  0  0  0  0  0  0  0  0
   -2.0438    1.3902    5.5461 C   0  0  0  0  0  0  0  0  0  0  0  0
   -2.2243    1.0482    4.2140 C   0  0  0  0  0  0  0  0  0  0  0  0
   -3.8173    0.3817    3.9571 S   0  0  0  0  0  0  0  0  0  0  0  0
   -0.8183    2.0225    6.1267 C   0  0  0  0  0  0  0  0  0  0  0  0
   -0.8004    3.5299    5.8660 C   0  0  0  0  0  0  0  0  0  0  0  0
    3.7892    0.7168   -7.2158 C   0  0  0  0  0  0  0  0  0  0  0  0
    3.1297   -0.6533   -7.0454 C   0  0  0  0  0  0  0  0  0  0  0  0
    5.4352    1.0121   -4.4869 C   0  0  0  0  0  0  0  0  0  0  0  0
    6.1907    1.3023   -3.3685 C   0  0  0  0  0  0  0  0  0  0  0  0
    5.4641    1.4640   -2.1853 C   0  0  0  0  0  0  0  0  0  0  0  0
    4.1011    1.2824   -2.3755 C   0  0  0  0  0  0  0  0  0  0  0  0
    3.7509    0.9391   -4.0520 S   0  0  0  0  0  0  0  0  0  0  0  0
    6.1300    1.8256   -0.8963 C   0  0  0  0  0  0  0  0  0  0  0  0
    6.0893    3.3378   -0.6672 C   0  0  0  0  0  0  0  0  0  0  0  0
   12.8857   -0.2369   -5.4804 H   0  0  0  0  0  0  0  0  0  0  0  0
   15.1379   -0.8219   -6.3774 H   0  0  0  0  0  0  0  0  0  0  0  0
   15.4270   -1.2731   -8.7716 H   0  0  0  0  0  0  0  0  0  0  0  0
   13.5377   -1.1602  -10.3233 H   0  0  0  0  0  0  0  0  0  0  0  0
    8.1364   -0.1220   -9.6091 H   0  0  0  0  0  0  0  0  0  0  0  0
   -2.7151    0.4618    1.5452 H   0  0  0  0  0  0  0  0  0  0  0  0
    1.4254    0.6388   -2.7874 H   0  0  0  0  0  0  0  0  0  0  0  0
   -2.1988   -0.3087   -0.9080 H   0  0  0  0  0  0  0  0  0  0  0  0
   -0.9678   -0.2736   -2.1873 H   0  0  0  0  0  0  0  0  0  0  0  0
   -2.8535    1.2657   -2.7325 H   0  0  0  0  0  0  0  0  0  0  0  0
   -1.3602    2.1793   -2.4877 H   0  0  0  0  0  0  0  0  0  0  0  0
   -2.5889    2.1396   -1.2194 H   0  0  0  0  0  0  0  0  0  0  0  0
    5.8363    0.2394   -9.0668 H   0  0  0  0  0  0  0  0  0  0  0  0
   -8.4477   -3.8034    1.0469 H   0  0  0  0  0  0  0  0  0  0  0  0
  -10.1844   -5.2850    0.0415 H   0  0  0  0  0  0  0  0  0  0  0  0
  -12.1626   -5.9187    1.3470 H   0  0  0  0  0  0  0  0  0  0  0  0
  -12.4800   -5.1251    3.6401 H   0  0  0  0  0  0  0  0  0  0  0  0
   -9.4874   -1.7911    6.9188 H   0  0  0  0  0  0  0  0  0  0  0  0
   -8.0748   -0.3160    8.1358 H   0  0  0  0  0  0  0  0  0  0  0  0
   -4.8323    0.6948    8.8805 H   0  0  0  0  0  0  0  0  0  0  0  0
   -5.2689    2.1203    7.9340 H   0  0  0  0  0  0  0  0  0  0  0  0
   -7.5746    2.0403    8.9511 H   0  0  0  0  0  0  0  0  0  0  0  0
   -7.0518    0.6875    9.9637 H   0  0  0  0  0  0  0  0  0  0  0  0
   -6.2934    2.2656   10.1419 H   0  0  0  0  0  0  0  0  0  0  0  0
   -3.1893    1.3027    7.3850 H   0  0  0  0  0  0  0  0  0  0  0  0
    0.0790    1.5686    5.7033 H   0  0  0  0  0  0  0  0  0  0  0  0
   -0.8098    1.8444    7.2038 H   0  0  0  0  0  0  0  0  0  0  0  0
   -1.6784    3.9996    6.3041 H   0  0  0  0  0  0  0  0  0  0  0  0
   -0.7973    3.7333    4.7984 H   0  0  0  0  0  0  0  0  0  0  0  0
    0.0886    3.9755    6.3044 H   0  0  0  0  0  0  0  0  0  0  0  0
    3.6001    1.0810   -8.2275 H   0  0  0  0  0  0  0  0  0  0  0  0
    3.3495    1.4249   -6.5117 H   0  0  0  0  0  0  0  0  0  0  0  0
    3.5313   -1.3572   -7.7705 H   0  0  0  0  0  0  0  0  0  0  0  0
    3.3127   -1.0441   -6.0476 H   0  0  0  0  0  0  0  0  0  0  0  0
    2.0560   -0.5741   -7.1948 H   0  0  0  0  0  0  0  0  0  0  0  0
    7.2620    1.3921   -3.4168 H   0  0  0  0  0  0  0  0  0  0  0  0
    5.6469    1.3160   -0.0611 H   0  0  0  0  0  0  0  0  0  0  0  0
    7.1700    1.4971   -0.9391 H   0  0  0  0  0  0  0  0  0  0  0  0
    6.5866    3.5887    0.2659 H   0  0  0  0  0  0  0  0  0  0  0  0
    5.0621    3.6901   -0.6159 H   0  0  0  0  0  0  0  0  0  0  0  0
    6.5923    3.8554   -1.4810 H   0  0  0  0  0  0  0  0  0  0  0  0
  1  2  2  0  0  0  0
  1  3  1  0  0  0  0
  3  4  2  0  0  0  0
  4  5  1  0  0  0  0
  5  6  2  0  0  0  0
  6  7  1  0  0  0  0
  7  8  2  0  0  0  0
  3  8  1  0  0  0  0
  8  9  1  0  0  0  0
  9 10  2  0  0  0  0
 10 11  1  0  0  0  0
 11 12  3  0  0  0  0
 10 13  1  0  0  0  0
 13 14  3  0  0  0  0
  9 15  1  0  0  0  0
  1 15  1  0  0  0  0
 15 16  2  0  0  0  0
 17 18  1  0  0  0  0
 18 19  1  0  0  0  0
 19 20  2  0  0  0  0
 20 21  1  0  0  0  0
 21 17  2  0  0  0  0
 19 22  1  0  0  0  0
 22 23  2  0  0  0  0
 23 24  1  0  0  0  0
 24 20  1  0  0  0  0
 22 25  1  0  0  0  0
 25 26  1  0  0  0  0
 26 27  2  0  0  0  0
 27 23  1  0  0  0  0
 24 29  1  0  0  0  0
 29 30  1  0  0  0  0
 28 31  2  0  0  0  0
 31 32  1  0  0  0  0
 32 33  2  0  0  0  0
 33 34  1  0  0  0  0
 34 28  1  0  0  0  0
 33 16  1  0  0  0  0
 35 36  2  0  0  0  0
 35 37  1  0  0  0  0
 37 38  2  0  0  0  0
 38 39  1  0  0  0  0
 39 40  2  0  0  0  0
 40 41  1  0  0  0  0
 41 42  2  0  0  0  0
 37 42  1  0  0  0  0
 42 43  1  0  0  0  0
 43 44  2  0  0  0  0
 44 45  1  0  0  0  0
 45 46  3  0  0  0  0
 44 47  1  0  0  0  0
 47 48  3  0  0  0  0
 43 49  1  0  0  0  0
 35 49  1  0  0  0  0
 49 50  2  0  0  0  0
 50 51  1  0  0  0  0
 51 52  1  0  0  0  0
 52 53  1  0  0  0  0
 53 54  2  0  0  0  0
 54 55  1  0  0  0  0
 55 51  2  0  0  0  0
 54 56  1  0  0  0  0
 56 57  1  0  0  0  0
 53 58  1  0  0  0  0
 58 59  2  0  0  0  0
 59 60  1  0  0  0  0
 60 61  2  0  0  0  0
 61 62  1  0  0  0  0
 62 58  1  0  0  0  0
 60 63  1  0  0  0  0
 63 64  1  0  0  0  0
 61 17  1  0  0  0  0
 31 65  1  0  0  0  0
 65 66  1  0  0  0  0
 28 67  1  0  0  0  0
 67 68  2  0  0  0  0
 68 69  1  0  0  0  0
 69 70  2  0  0  0  0
 70 71  1  0  0  0  0
 71 67  1  0  0  0  0
 69 72  1  0  0  0  0
 72 73  1  0  0  0  0
 70 26  1  0  0  0  0
  4 74  1  0  0  0  0
  5 75  1  0  0  0  0
  6 76  1  0  0  0  0
  7 77  1  0  0  0  0
 16 78  1  0  0  0  0
 21 79  1  0  0  0  0
 27 80  1  0  0  0  0
 29 81  1  0  0  0  0
 29 82  1  0  0  0  0
 30 83  1  0  0  0  0
 30 84  1  0  0  0  0
 30 85  1  0  0  0  0
 32 86  1  0  0  0  0
 38 87  1  0  0  0  0
 39 88  1  0  0  0  0
 40 89  1  0  0  0  0
 41 90  1  0  0  0  0
 50 91  1  0  0  0  0
 55 92  1  0  0  0  0
 56 93  1  0  0  0  0
 56 94  1  0  0  0  0
 57 95  1  0  0  0  0
 57 96  1  0  0  0  0
 57 97  1  0  0  0  0
 59 98  1  0  0  0  0
 63 99  1  0  0  0  0
 63100  1  0  0  0  0
 64101  1  0  0  0  0
 64102  1  0  0  0  0
 64103  1  0  0  0  0
 65104  1  0  0  0  0
 65105  1  0  0  0  0
 66106  1  0  0  0  0
 66107  1  0  0  0  0
 66108  1  0  0  0  0
 68109  1  0  0  0  0
 72110  1  0  0  0  0
 72111  1  0  0  0  0
 73112  1  0  0  0  0
 73113  1  0  0  0  0
 73114  1  0  0  0  0
M  END
