DTI.sdf
  xtb     12202113133D
 energy: -149.950319912101 gnorm: 0.000249354758 xtb: 6.4.1 (unknown)
 84 96  0     0  0            999 V2000
    0.6290   -1.0967    1.1655 C   0  0  0  0  0  0  0  0  0  0  0  0
    0.0055    0.1251    1.3056 C   0  0  0  0  0  0  0  0  0  0  0  0
   -0.4705    0.8184    0.1304 C   0  0  0  0  0  0  0  0  0  0  0  0
   -0.6072    0.1272   -1.0547 C   0  0  0  0  0  0  0  0  0  0  0  0
   -0.0923   -1.2169   -1.1636 C   0  0  0  0  0  0  0  0  0  0  0  0
    0.6201   -1.7626   -0.1154 C   0  0  0  0  0  0  0  0  0  0  0  0
   -0.7150    2.2008    1.9316 C   0  0  0  0  0  0  0  0  0  0  0  0
   -1.0398    3.3030    2.7089 C   0  0  0  0  0  0  0  0  0  0  0  0
   -1.3963    4.4921    2.0484 C   0  0  0  0  0  0  0  0  0  0  0  0
   -1.3783    4.5185    0.6648 C   0  0  0  0  0  0  0  0  0  0  0  0
   -1.0850    3.3818   -0.1060 C   0  0  0  0  0  0  0  0  0  0  0  0
   -0.8031    2.1857    0.5222 C   0  0  0  0  0  0  0  0  0  0  0  0
   -0.2708    0.9705    2.4645 C   0  0  0  0  0  0  0  0  0  0  0  0
   -0.2872    0.8347    3.8378 C   0  0  0  0  0  0  0  0  0  0  0  0
   -0.6495    1.9292    4.6401 C   0  0  0  0  0  0  0  0  0  0  0  0
   -0.9962    3.1583    4.1070 C   0  0  0  0  0  0  0  0  0  0  0  0
   -1.3579    4.3190    4.9368 C   0  0  0  0  0  0  0  0  0  0  0  0
   -1.7270    5.4692    4.2459 N   0  0  0  0  0  0  0  0  0  0  0  0
   -1.7515    5.6618    2.8679 C   0  0  0  0  0  0  0  0  0  0  0  0
   -2.0908    6.6250    5.0630 C   0  0  0  0  0  0  0  0  0  0  0  0
   -0.8743    7.4900    5.3653 C   0  0  0  0  0  0  0  0  0  0  0  0
   -2.0604    6.7349    2.3939 O   0  0  0  0  0  0  0  0  0  0  0  0
   -1.3511    4.2948    6.1497 O   0  0  0  0  0  0  0  0  0  0  0  0
    1.8208   -3.0408    1.3532 C   0  0  0  0  0  0  0  0  0  0  0  0
    2.6448   -4.0343    1.8638 C   0  0  0  0  0  0  0  0  0  0  0  0
    3.0527   -3.9301    3.2056 C   0  0  0  0  0  0  0  0  0  0  0  0
    2.6791   -2.8130    3.9310 C   0  0  0  0  0  0  0  0  0  0  0  0
    1.8838   -1.7928    3.3846 C   0  0  0  0  0  0  0  0  0  0  0  0
    1.4045   -1.9136    2.0962 C   0  0  0  0  0  0  0  0  0  0  0  0
    1.4163   -2.9811    0.0009 C   0  0  0  0  0  0  0  0  0  0  0  0
    1.9251   -3.9373   -0.8544 C   0  0  0  0  0  0  0  0  0  0  0  0
    2.7240   -4.9735   -0.3450 C   0  0  0  0  0  0  0  0  0  0  0  0
    3.0737   -5.0504    0.9911 C   0  0  0  0  0  0  0  0  0  0  0  0
    3.9228   -6.1231    1.5341 C   0  0  0  0  0  0  0  0  0  0  0  0
    4.2399   -6.0232    2.8850 N   0  0  0  0  0  0  0  0  0  0  0  0
    3.9023   -4.9965    3.7610 C   0  0  0  0  0  0  0  0  0  0  0  0
    5.0768   -7.0903    3.4297 C   0  0  0  0  0  0  0  0  0  0  0  0
    6.5560   -6.7784    3.2443 C   0  0  0  0  0  0  0  0  0  0  0  0
    4.2886   -5.0047    4.9109 O   0  0  0  0  0  0  0  0  0  0  0  0
    4.3262   -7.0519    0.8662 O   0  0  0  0  0  0  0  0  0  0  0  0
   -1.1611   -0.6936   -3.1176 C   0  0  0  0  0  0  0  0  0  0  0  0
   -1.7584   -0.8209   -4.3644 C   0  0  0  0  0  0  0  0  0  0  0  0
   -1.6533   -2.0581   -5.0249 C   0  0  0  0  0  0  0  0  0  0  0  0
   -1.0249   -3.1077   -4.3793 C   0  0  0  0  0  0  0  0  0  0  0  0
   -0.4623   -2.9743   -3.0999 C   0  0  0  0  0  0  0  0  0  0  0  0
   -0.4817   -1.7480   -2.4671 C   0  0  0  0  0  0  0  0  0  0  0  0
   -1.2902    0.4545   -2.3045 C   0  0  0  0  0  0  0  0  0  0  0  0
   -2.0739    1.4845   -2.7830 C   0  0  0  0  0  0  0  0  0  0  0  0
   -2.6440    1.3908   -4.0625 C   0  0  0  0  0  0  0  0  0  0  0  0
   -2.4936    0.2707   -4.8600 C   0  0  0  0  0  0  0  0  0  0  0  0
   -3.1206    0.1462   -6.1860 C   0  0  0  0  0  0  0  0  0  0  0  0
   -2.9376   -1.0713   -6.8336 N   0  0  0  0  0  0  0  0  0  0  0  0
   -2.2762   -2.1961   -6.3515 C   0  0  0  0  0  0  0  0  0  0  0  0
   -3.5670   -1.2064   -8.1455 C   0  0  0  0  0  0  0  0  0  0  0  0
   -4.9844   -1.7501   -8.0203 C   0  0  0  0  0  0  0  0  0  0  0  0
   -2.2261   -3.2175   -7.0042 O   0  0  0  0  0  0  0  0  0  0  0  0
   -3.7595    1.0385   -6.7030 O   0  0  0  0  0  0  0  0  0  0  0  0
   -1.6128    5.4497    0.1702 H   0  0  0  0  0  0  0  0  0  0  0  0
   -1.0553    3.4841   -1.1785 H   0  0  0  0  0  0  0  0  0  0  0  0
   -0.0647   -0.1024    4.3213 H   0  0  0  0  0  0  0  0  0  0  0  0
   -0.6553    1.8205    5.7148 H   0  0  0  0  0  0  0  0  0  0  0  0
   -2.5263    6.2457    5.9889 H   0  0  0  0  0  0  0  0  0  0  0  0
   -2.8337    7.1982    4.5057 H   0  0  0  0  0  0  0  0  0  0  0  0
   -0.4341    7.8548    4.4402 H   0  0  0  0  0  0  0  0  0  0  0  0
   -0.1313    6.9154    5.9136 H   0  0  0  0  0  0  0  0  0  0  0  0
   -1.1733    8.3417    5.9695 H   0  0  0  0  0  0  0  0  0  0  0  0
    3.0338   -2.7233    4.9473 H   0  0  0  0  0  0  0  0  0  0  0  0
    1.6984   -0.9165    3.9823 H   0  0  0  0  0  0  0  0  0  0  0  0
    1.7641   -3.8943   -1.9187 H   0  0  0  0  0  0  0  0  0  0  0  0
    3.0998   -5.7333   -1.0146 H   0  0  0  0  0  0  0  0  0  0  0  0
    4.8382   -7.1821    4.4905 H   0  0  0  0  0  0  0  0  0  0  0  0
    4.8156   -8.0108    2.9047 H   0  0  0  0  0  0  0  0  0  0  0  0
    6.7888   -6.6798    2.1866 H   0  0  0  0  0  0  0  0  0  0  0  0
    7.1540   -7.5842    3.6601 H   0  0  0  0  0  0  0  0  0  0  0  0
    6.8118   -5.8531    3.7553 H   0  0  0  0  0  0  0  0  0  0  0  0
   -0.9911   -4.0655   -4.8775 H   0  0  0  0  0  0  0  0  0  0  0  0
   -0.0658   -3.8555   -2.6240 H   0  0  0  0  0  0  0  0  0  0  0  0
   -2.3005    2.3529   -2.1883 H   0  0  0  0  0  0  0  0  0  0  0  0
   -3.2436    2.2070   -4.4381 H   0  0  0  0  0  0  0  0  0  0  0  0
   -3.5794   -0.2168   -8.6049 H   0  0  0  0  0  0  0  0  0  0  0  0
   -2.9510   -1.8871   -8.7354 H   0  0  0  0  0  0  0  0  0  0  0  0
   -4.9692   -2.7348   -7.5593 H   0  0  0  0  0  0  0  0  0  0  0  0
   -5.5914   -1.0807   -7.4152 H   0  0  0  0  0  0  0  0  0  0  0  0
   -5.4326   -1.8326   -9.0063 H   0  0  0  0  0  0  0  0  0  0  0  0
  1  2  1  0  0  0  0
  2  3  2  0  0  0  0
  3  4  1  0  0  0  0
  4  5  2  0  0  0  0
  5  6  1  0  0  0  0
  6  1  2  0  0  0  0
  7  8  2  0  0  0  0
  8  9  1  0  0  0  0
  9 10  2  0  0  0  0
 10 11  1  0  0  0  0
 11 12  2  0  0  0  0
 12  7  1  0  0  0  0
  7 13  1  0  0  0  0
 13 14  2  0  0  0  0
 14 15  1  0  0  0  0
 15 16  2  0  0  0  0
 16  8  1  0  0  0  0
 13  2  1  0  0  0  0
  3 12  1  0  0  0  0
 16 17  1  0  0  0  0
 17 18  1  0  0  0  0
 18 19  1  0  0  0  0
 19  9  1  0  0  0  0
 18 20  1  0  0  0  0
 20 21  1  0  0  0  0
 19 22  2  0  0  0  0
 17 23  2  0  0  0  0
 24 25  1  0  0  0  0
 25 26  1  0  0  0  0
 26 27  2  0  0  0  0
 27 28  1  0  0  0  0
 28 29  2  0  0  0  0
 29 24  1  0  0  0  0
 24 30  2  0  0  0  0
 30 31  1  0  0  0  0
 31 32  2  0  0  0  0
 32 33  1  0  0  0  0
 33 25  2  0  0  0  0
 33 34  1  0  0  0  0
 34 35  1  0  0  0  0
 35 36  1  0  0  0  0
 36 26  1  0  0  0  0
 35 37  1  0  0  0  0
 37 38  1  0  0  0  0
 36 39  2  0  0  0  0
 34 40  2  0  0  0  0
 41 42  1  0  0  0  0
 42 43  1  0  0  0  0
 43 44  2  0  0  0  0
 44 45  1  0  0  0  0
 45 46  2  0  0  0  0
 46 41  1  0  0  0  0
 41 47  2  0  0  0  0
 47 48  1  0  0  0  0
 48 49  2  0  0  0  0
 49 50  1  0  0  0  0
 50 42  2  0  0  0  0
 50 51  1  0  0  0  0
 51 52  1  0  0  0  0
 52 53  1  0  0  0  0
 53 43  1  0  0  0  0
 52 54  1  0  0  0  0
 54 55  1  0  0  0  0
 53 56  2  0  0  0  0
 51 57  2  0  0  0  0
 47  4  1  0  0  0  0
 46  5  1  0  0  0  0
  6 30  1  0  0  0  0
  1 29  1  0  0  0  0
 10 58  1  0  0  0  0
 11 59  1  0  0  0  0
 14 60  1  0  0  0  0
 15 61  1  0  0  0  0
 20 62  1  0  0  0  0
 20 63  1  0  0  0  0
 21 64  1  0  0  0  0
 21 65  1  0  0  0  0
 21 66  1  0  0  0  0
 27 67  1  0  0  0  0
 28 68  1  0  0  0  0
 31 69  1  0  0  0  0
 32 70  1  0  0  0  0
 37 71  1  0  0  0  0
 37 72  1  0  0  0  0
 38 73  1  0  0  0  0
 38 74  1  0  0  0  0
 38 75  1  0  0  0  0
 44 76  1  0  0  0  0
 45 77  1  0  0  0  0
 48 78  1  0  0  0  0
 49 79  1  0  0  0  0
 54 80  1  0  0  0  0
 54 81  1  0  0  0  0
 55 82  1  0  0  0  0
 55 83  1  0  0  0  0
 55 84  1  0  0  0  0
M  END
