SCF done       -160.174526755940          0.000544657073
 OpenBabel12282109493D

 98107  0  0  0  0  0  0  0  0999 V2000
   -3.0813   -2.5336   -0.8931 C   0  0  0  0  0  0  0  0  0  0  0  0
   -3.1908   -2.3779   -2.2515 C   0  0  0  0  0  0  0  0  0  0  0  0
   -2.1262   -2.0900   -3.2377 C   0  0  0  0  0  0  0  0  0  0  0  0
   -2.8266   -1.7359   -4.4879 C   0  0  0  0  0  0  0  0  0  0  0  0
   -4.2135   -1.8631   -4.3095 C   0  0  0  0  0  0  0  0  0  0  0  0
   -4.4668   -2.3237   -2.9456 C   0  0  0  0  0  0  0  0  0  0  0  0
   -0.9197   -2.1153   -3.0929 O   0  0  0  0  0  0  0  0  0  0  0  0
   -5.6946   -2.6866   -2.4562 C   0  0  0  0  0  0  0  0  0  0  0  0
   -5.9565   -3.2218   -1.1768 C   0  0  0  0  0  0  0  0  0  0  0  0
   -6.8945   -2.6082   -3.1948 C   0  0  0  0  0  0  0  0  0  0  0  0
   -6.2625   -3.6801   -0.1685 N   0  0  0  0  0  0  0  0  0  0  0  0
   -7.9092   -2.5660   -3.7303 N   0  0  0  0  0  0  0  0  0  0  0  0
   -2.2813   -1.3235   -5.6877 C   0  0  0  0  0  0  0  0  0  0  0  0
   -3.1455   -1.0250   -6.7315 C   0  0  0  0  0  0  0  0  0  0  0  0
   -4.5177   -1.1394   -6.5614 C   0  0  0  0  0  0  0  0  0  0  0  0
   -5.0685   -1.5586   -5.3573 C   0  0  0  0  0  0  0  0  0  0  0  0
    2.7308   -0.7303    9.8827 C   0  0  0  0  0  0  0  0  0  0  0  0
    3.6258   -0.2510   10.8455 C   0  0  0  0  0  0  0  0  0  0  0  0
    4.9592    0.0646   10.7497 C   0  0  0  0  0  0  0  0  0  0  0  0
    5.8006   -0.1082    9.5608 C   0  0  0  0  0  0  0  0  0  0  0  0
    7.1462    0.3594    9.9405 C   0  0  0  0  0  0  0  0  0  0  0  0
    7.1276    0.7944   11.2771 C   0  0  0  0  0  0  0  0  0  0  0  0
    5.7735    0.6280   11.8081 C   0  0  0  0  0  0  0  0  0  0  0  0
    5.4726   -0.5521    8.4736 O   0  0  0  0  0  0  0  0  0  0  0  0
    5.3760    0.9772   13.0731 C   0  0  0  0  0  0  0  0  0  0  0  0
    4.0736    0.8467   13.5981 C   0  0  0  0  0  0  0  0  0  0  0  0
    6.2295    1.5388   14.0462 C   0  0  0  0  0  0  0  0  0  0  0  0
    3.0439    0.7806   14.1037 N   0  0  0  0  0  0  0  0  0  0  0  0
    6.8617    1.9992   14.8869 N   0  0  0  0  0  0  0  0  0  0  0  0
    8.2947    0.4029    9.1758 C   0  0  0  0  0  0  0  0  0  0  0  0
    9.4531    0.8940    9.7619 C   0  0  0  0  0  0  0  0  0  0  0  0
    9.4447    1.3250   11.0802 C   0  0  0  0  0  0  0  0  0  0  0  0
    8.2903    1.2818   11.8521 C   0  0  0  0  0  0  0  0  0  0  0  0
    1.3711   -0.9343   10.1673 C   0  0  0  0  0  0  0  0  0  0  0  0
    0.6514   -1.3311    9.0640 C   0  0  0  0  0  0  0  0  0  0  0  0
    1.4467   -1.4507    7.9197 C   0  0  0  0  0  0  0  0  0  0  0  0
    3.0908   -1.0797    8.1982 S   0  0  0  0  0  0  0  0  0  0  0  0
   -0.7836   -1.6369    8.7383 C   0  0  0  0  0  0  0  0  0  0  0  0
   -0.6893   -1.8928    7.2482 C   0  0  0  0  0  0  0  0  0  0  0  0
    0.6314   -1.8005    6.7988 C   0  0  0  0  0  0  0  0  0  0  0  0
   -1.7035   -0.4434    9.0547 C   0  0  0  0  0  0  0  0  0  0  0  0
   -1.2810   -2.8864    9.4909 C   0  0  0  0  0  0  0  0  0  0  0  0
   -1.2896    0.8338    8.3338 C   0  0  0  0  0  0  0  0  0  0  0  0
   -0.4267   -4.1206    9.2284 C   0  0  0  0  0  0  0  0  0  0  0  0
   -1.7221   -2.1673    6.3581 C   0  0  0  0  0  0  0  0  0  0  0  0
   -1.4350   -2.3221    5.0221 C   0  0  0  0  0  0  0  0  0  0  0  0
   -0.1145   -2.2423    4.5420 C   0  0  0  0  0  0  0  0  0  0  0  0
    0.9642   -2.0019    5.4400 C   0  0  0  0  0  0  0  0  0  0  0  0
    0.2160   -2.3845    3.1742 C   0  0  0  0  0  0  0  0  0  0  0  0
    1.5424   -2.3716    2.7293 C   0  0  0  0  0  0  0  0  0  0  0  0
    2.5774   -2.1464    3.6333 C   0  0  0  0  0  0  0  0  0  0  0  0
    2.2869   -1.9538    4.9632 C   0  0  0  0  0  0  0  0  0  0  0  0
   -0.6165   -2.4962    2.0199 C   0  0  0  0  0  0  0  0  0  0  0  0
    0.1608   -2.5560    0.8622 C   0  0  0  0  0  0  0  0  0  0  0  0
    1.6239   -2.5508    1.2229 C   0  0  0  0  0  0  0  0  0  0  0  0
    2.2001   -3.9325    0.8393 C   0  0  0  0  0  0  0  0  0  0  0  0
    2.3856   -1.3632    0.6044 C   0  0  0  0  0  0  0  0  0  0  0  0
    2.5366   -1.4018   -0.9110 C   0  0  0  0  0  0  0  0  0  0  0  0
    3.6611   -4.1607    1.2025 C   0  0  0  0  0  0  0  0  0  0  0  0
   -2.2901   -2.5071    1.6847 S   0  0  0  0  0  0  0  0  0  0  0  0
   -1.9595   -2.5695   -0.0496 C   0  0  0  0  0  0  0  0  0  0  0  0
   -0.5906   -2.6220   -0.2969 C   0  0  0  0  0  0  0  0  0  0  0  0
   -4.0179   -2.5895   -0.3500 H   0  0  0  0  0  0  0  0  0  0  0  0
   -1.2107   -1.2390   -5.7942 H   0  0  0  0  0  0  0  0  0  0  0  0
   -2.7496   -0.6991   -7.6817 H   0  0  0  0  0  0  0  0  0  0  0  0
   -5.1767   -0.8969   -7.3815 H   0  0  0  0  0  0  0  0  0  0  0  0
   -6.1386   -1.6332   -5.2546 H   0  0  0  0  0  0  0  0  0  0  0  0
    3.1588   -0.0913   11.8100 H   0  0  0  0  0  0  0  0  0  0  0  0
    8.2766    0.0621    8.1520 H   0  0  0  0  0  0  0  0  0  0  0  0
   10.3671    0.9420    9.1892 H   0  0  0  0  0  0  0  0  0  0  0  0
   10.3543    1.7043   11.5211 H   0  0  0  0  0  0  0  0  0  0  0  0
    8.3165    1.6237   12.8736 H   0  0  0  0  0  0  0  0  0  0  0  0
    0.9690   -0.7687   11.1514 H   0  0  0  0  0  0  0  0  0  0  0  0
   -2.7246   -0.7049    8.7707 H   0  0  0  0  0  0  0  0  0  0  0  0
   -1.6892   -0.2730   10.1330 H   0  0  0  0  0  0  0  0  0  0  0  0
   -1.2824   -2.6662   10.5603 H   0  0  0  0  0  0  0  0  0  0  0  0
   -2.3104   -3.0876    9.1880 H   0  0  0  0  0  0  0  0  0  0  0  0
   -1.3130    0.6931    7.2554 H   0  0  0  0  0  0  0  0  0  0  0  0
   -1.9696    1.6425    8.5902 H   0  0  0  0  0  0  0  0  0  0  0  0
   -0.2828    1.1299    8.6194 H   0  0  0  0  0  0  0  0  0  0  0  0
    0.6013   -3.9533    9.5417 H   0  0  0  0  0  0  0  0  0  0  0  0
   -0.8196   -4.9690    9.7834 H   0  0  0  0  0  0  0  0  0  0  0  0
   -0.4263   -4.3722    8.1702 H   0  0  0  0  0  0  0  0  0  0  0  0
   -2.7405   -2.2438    6.7077 H   0  0  0  0  0  0  0  0  0  0  0  0
   -2.2316   -2.5161    4.3194 H   0  0  0  0  0  0  0  0  0  0  0  0
    3.6013   -2.0961    3.2979 H   0  0  0  0  0  0  0  0  0  0  0  0
    3.0831   -1.7587    5.6658 H   0  0  0  0  0  0  0  0  0  0  0  0
    1.5910   -4.6932    1.3354 H   0  0  0  0  0  0  0  0  0  0  0  0
    2.0685   -4.0604   -0.2362 H   0  0  0  0  0  0  0  0  0  0  0  0
    1.8544   -0.4501    0.8864 H   0  0  0  0  0  0  0  0  0  0  0  0
    3.3754   -1.3156    1.0608 H   0  0  0  0  0  0  0  0  0  0  0  0
    1.5705   -1.3978   -1.4059 H   0  0  0  0  0  0  0  0  0  0  0  0
    3.0843   -0.5203   -1.2376 H   0  0  0  0  0  0  0  0  0  0  0  0
    3.0910   -2.2792   -1.2322 H   0  0  0  0  0  0  0  0  0  0  0  0
    3.8019   -4.1470    2.2797 H   0  0  0  0  0  0  0  0  0  0  0  0
    3.9727   -5.1363    0.8354 H   0  0  0  0  0  0  0  0  0  0  0  0
    4.3049   -3.4105    0.7517 H   0  0  0  0  0  0  0  0  0  0  0  0
   -0.2042   -2.6972   -1.2952 H   0  0  0  0  0  0  0  0  0  0  0  0
  1 63  1  0  0  0  0
  1 61  1  0  0  0  0
  2  1  2  0  0  0  0
  3  7  2  0  0  0  0
  3  2  1  0  0  0  0
  4  5  1  0  0  0  0
  4  3  1  0  0  0  0
  5  6  1  0  0  0  0
  6  8  2  0  0  0  0
  6  2  1  0  0  0  0
  8  9  1  0  0  0  0
  9 11  3  0  0  0  0
 10  8  1  0  0  0  0
 12 10  3  0  0  0  0
 13  4  2  0  0  0  0
 14 15  2  0  0  0  0
 14 13  1  0  0  0  0
 15 16  1  0  0  0  0
 16 67  1  0  0  0  0
 16  5  2  0  0  0  0
 17 34  2  0  0  0  0
 17 18  1  0  0  0  0
 18 68  1  0  0  0  0
 19 18  1  0  0  0  0
 19 23  2  0  0  0  0
 20 21  1  0  0  0  0
 20 19  1  0  0  0  0
 21 22  2  0  0  0  0
 22 23  1  0  0  0  0
 22 33  1  0  0  0  0
 23 25  1  0  0  0  0
 24 20  2  0  0  0  0
 25 26  1  0  0  0  0
 25 27  1  0  0  0  0
 26 28  3  0  0  0  0
 27 29  3  0  0  0  0
 30 31  2  0  0  0  0
 30 21  1  0  0  0  0
 31 32  1  0  0  0  0
 32 71  1  0  0  0  0
 32 33  2  0  0  0  0
 33 72  1  0  0  0  0
 34 73  1  0  0  0  0
 35 34  1  0  0  0  0
 36 37  1  0  0  0  0
 36 35  2  0  0  0  0
 37 17  1  0  0  0  0
 38 41  1  0  0  0  0
 38 35  1  0  0  0  0
 38 42  1  0  0  0  0
 39 38  1  0  0  0  0
 40 39  1  0  0  0  0
 40 36  1  0  0  0  0
 41 75  1  0  0  0  0
 42 76  1  0  0  0  0
 43 79  1  0  0  0  0
 43 80  1  0  0  0  0
 43 41  1  0  0  0  0
 44 42  1  0  0  0  0
 44 81  1  0  0  0  0
 44 82  1  0  0  0  0
 45 84  1  0  0  0  0
 45 39  2  0  0  0  0
 46 45  1  0  0  0  0
 47 46  2  0  0  0  0
 47 48  1  0  0  0  0
 48 40  2  0  0  0  0
 49 47  1  0  0  0  0
 50 49  2  0  0  0  0
 50 51  1  0  0  0  0
 51 52  2  0  0  0  0
 52 48  1  0  0  0  0
 52 87  1  0  0  0  0
 53 49  1  0  0  0  0
 54 55  1  0  0  0  0
 54 53  2  0  0  0  0
 55 50  1  0  0  0  0
 56 59  1  0  0  0  0
 56 55  1  0  0  0  0
 56 88  1  0  0  0  0
 57 90  1  0  0  0  0
 57 91  1  0  0  0  0
 57 55  1  0  0  0  0
 58 57  1  0  0  0  0
 59 95  1  0  0  0  0
 60 53  1  0  0  0  0
 61 60  1  0  0  0  0
 62 61  2  0  0  0  0
 62 54  1  0  0  0  0
 64 13  1  0  0  0  0
 65 14  1  0  0  0  0
 66 15  1  0  0  0  0
 69 30  1  0  0  0  0
 70 31  1  0  0  0  0
 74 41  1  0  0  0  0
 77 42  1  0  0  0  0
 78 43  1  0  0  0  0
 83 44  1  0  0  0  0
 85 46  1  0  0  0  0
 86 51  1  0  0  0  0
 89 56  1  0  0  0  0
 92 58  1  0  0  0  0
 93 58  1  0  0  0  0
 94 58  1  0  0  0  0
 96 59  1  0  0  0  0
 97 59  1  0  0  0  0
 98 62  1  0  0  0  0
M  RAD  2  18   2  25   2
M  END
