SCF done       -174.977743743257          0.000234669787
 OpenBabel12282109493D

104114  0  0  0  0  0  0  0  0999 V2000
   -5.9531    3.8370    0.1850 S   0  0  0  0  0  0  0  0  0  0  0  0
   -5.6092    5.5086   -0.2530 C   0  0  0  0  0  0  0  0  0  0  0  0
   -6.7433    6.5603   -0.7698 S   0  0  0  0  0  0  0  0  0  0  0  0
   -4.2889    5.7712   -0.1067 N   0  0  0  0  0  0  0  0  0  0  0  0
   -3.7291    7.0845   -0.3605 C   0  0  0  0  0  0  0  0  0  0  0  0
   -3.9026    7.9983    0.8462 C   0  0  0  0  0  0  0  0  0  0  0  0
   -3.4801    4.7385    0.3431 C   0  0  0  0  0  0  0  0  0  0  0  0
   -2.2870    4.8522    0.5082 O   0  0  0  0  0  0  0  0  0  0  0  0
   -4.2761    3.5291    0.5746 C   0  0  0  0  0  0  0  0  0  0  0  0
   -3.6986    2.3974    1.0444 C   0  0  0  0  0  0  0  0  0  0  0  0
   -4.2763    1.1362    1.3679 C   0  0  0  0  0  0  0  0  0  0  0  0
   -3.4359    0.1353    1.9292 C   0  0  0  0  0  0  0  0  0  0  0  0
   -2.1309    0.2288    2.1719 N   0  0  0  0  0  0  0  0  0  0  0  0
   -1.6167   -1.1487    2.8198 S   0  0  0  0  0  0  0  0  0  0  0  0
   -3.0216   -1.9331    2.8289 N   0  0  0  0  0  0  0  0  0  0  0  0
   -3.9613   -1.1421    2.3180 C   0  0  0  0  0  0  0  0  0  0  0  0
   -5.3362   -1.4590    2.1495 C   0  0  0  0  0  0  0  0  0  0  0  0
   -6.1185   -0.4599    1.5730 C   0  0  0  0  0  0  0  0  0  0  0  0
   -5.6124    0.7791    1.2021 C   0  0  0  0  0  0  0  0  0  0  0  0
   -5.8480   -2.7218    2.5719 C   0  0  0  0  0  0  0  0  0  0  0  0
   -7.1453   -3.2046    2.4554 C   0  0  0  0  0  0  0  0  0  0  0  0
   -7.2925   -4.4674    3.0140 C   0  0  0  0  0  0  0  0  0  0  0  0
   -6.1040   -4.9572    3.5414 C   0  0  0  0  0  0  0  0  0  0  0  0
   -4.7941   -3.8665    3.3715 S   0  0  0  0  0  0  0  0  0  0  0  0
   -6.2847   -6.2753    4.0583 C   0  0  0  0  0  0  0  0  0  0  0  0
   -7.6372   -6.6250    3.8380 C   0  0  0  0  0  0  0  0  0  0  0  0
   -8.3967   -5.4755    3.1947 C   0  0  0  0  0  0  0  0  0  0  0  0
   -9.4576   -4.9894    4.2077 C   0  0  0  0  0  0  0  0  0  0  0  0
  -10.1798   -3.7056    3.8213 C   0  0  0  0  0  0  0  0  0  0  0  0
   -9.0335   -5.8819    1.8569 C   0  0  0  0  0  0  0  0  0  0  0  0
   -8.0215   -6.4787    0.8857 C   0  0  0  0  0  0  0  0  0  0  0  0
   -8.1119   -7.8590    4.2182 C   0  0  0  0  0  0  0  0  0  0  0  0
   -7.2108   -8.7344    4.8207 C   0  0  0  0  0  0  0  0  0  0  0  0
   -5.8595   -8.3782    5.0491 C   0  0  0  0  0  0  0  0  0  0  0  0
   -5.3850   -7.1464    4.6678 C   0  0  0  0  0  0  0  0  0  0  0  0
   -5.1053   -9.5051    5.7267 C   0  0  0  0  0  0  0  0  0  0  0  0
   -3.9345  -10.0042    4.8599 C   0  0  0  0  0  0  0  0  0  0  0  0
   -4.3725  -10.4520    3.4708 C   0  0  0  0  0  0  0  0  0  0  0  0
   -4.5791   -9.0773    7.1096 C   0  0  0  0  0  0  0  0  0  0  0  0
   -5.6792   -8.5689    8.0333 C   0  0  0  0  0  0  0  0  0  0  0  0
   -6.1838  -10.5439    5.8456 C   0  0  0  0  0  0  0  0  0  0  0  0
   -7.3735  -10.0656    5.3153 C   0  0  0  0  0  0  0  0  0  0  0  0
   -8.6411  -11.2150    5.4146 S   0  0  0  0  0  0  0  0  0  0  0  0
   -7.5550  -12.3646    6.1839 C   0  0  0  0  0  0  0  0  0  0  0  0
   -6.2833  -11.8384    6.3381 C   0  0  0  0  0  0  0  0  0  0  0  0
   -8.0149  -13.6631    6.5555 C   0  0  0  0  0  0  0  0  0  0  0  0
   -7.1603  -14.6050    7.1962 C   0  0  0  0  0  0  0  0  0  0  0  0
   -5.8859  -14.4456    7.5497 N   0  0  0  0  0  0  0  0  0  0  0  0
   -5.3589  -15.7983    8.2441 S   0  0  0  0  0  0  0  0  0  0  0  0
   -6.7129  -16.6538    8.1322 N   0  0  0  0  0  0  0  0  0  0  0  0
   -7.6470  -15.9130    7.5426 C   0  0  0  0  0  0  0  0  0  0  0  0
   -8.9824  -16.3136    7.2585 C   0  0  0  0  0  0  0  0  0  0  0  0
   -9.7829  -15.3563    6.6417 C   0  0  0  0  0  0  0  0  0  0  0  0
   -9.3170  -14.0917    6.3095 C   0  0  0  0  0  0  0  0  0  0  0  0
   -9.3760  -17.6355    7.6150 C   0  0  0  0  0  0  0  0  0  0  0  0
  -10.5547  -18.2776    7.4332 C   0  0  0  0  0  0  0  0  0  0  0  0
  -12.0301  -17.6989    6.6940 S   0  0  0  0  0  0  0  0  0  0  0  0
  -12.8366  -19.2449    6.9479 C   0  0  0  0  0  0  0  0  0  0  0  0
  -14.3709  -19.5519    6.4885 S   0  0  0  0  0  0  0  0  0  0  0  0
  -12.0003  -20.1176    7.5584 N   0  0  0  0  0  0  0  0  0  0  0  0
  -12.4090  -21.4635    7.9108 C   0  0  0  0  0  0  0  0  0  0  0  0
  -13.1576  -21.4837    9.2372 C   0  0  0  0  0  0  0  0  0  0  0  0
  -10.7264  -19.6671    7.8692 C   0  0  0  0  0  0  0  0  0  0  0  0
   -9.8928  -20.3540    8.4140 O   0  0  0  0  0  0  0  0  0  0  0  0
   -2.6685    6.9311   -0.5737 H   0  0  0  0  0  0  0  0  0  0  0  0
   -4.2322    7.5050   -1.2344 H   0  0  0  0  0  0  0  0  0  0  0  0
   -3.4105    7.5703    1.7167 H   0  0  0  0  0  0  0  0  0  0  0  0
   -3.4597    8.9670    0.6348 H   0  0  0  0  0  0  0  0  0  0  0  0
   -4.9585    8.1380    1.0662 H   0  0  0  0  0  0  0  0  0  0  0  0
   -2.6304    2.4709    1.2183 H   0  0  0  0  0  0  0  0  0  0  0  0
   -7.1688   -0.6460    1.4139 H   0  0  0  0  0  0  0  0  0  0  0  0
   -6.2941    1.4938    0.7686 H   0  0  0  0  0  0  0  0  0  0  0  0
   -7.9287   -2.6549    1.9669 H   0  0  0  0  0  0  0  0  0  0  0  0
  -10.1890   -5.7897    4.3379 H   0  0  0  0  0  0  0  0  0  0  0  0
   -8.9593   -4.8373    5.1687 H   0  0  0  0  0  0  0  0  0  0  0  0
  -10.7003   -3.8125    2.8734 H   0  0  0  0  0  0  0  0  0  0  0  0
  -10.9161   -3.4618    4.5839 H   0  0  0  0  0  0  0  0  0  0  0  0
   -9.4816   -2.8763    3.7496 H   0  0  0  0  0  0  0  0  0  0  0  0
   -9.8239   -6.6094    2.0514 H   0  0  0  0  0  0  0  0  0  0  0  0
   -9.4881   -5.0022    1.3998 H   0  0  0  0  0  0  0  0  0  0  0  0
   -7.5690   -7.3756    1.3027 H   0  0  0  0  0  0  0  0  0  0  0  0
   -8.5112   -6.7427   -0.0487 H   0  0  0  0  0  0  0  0  0  0  0  0
   -7.2301   -5.7648    0.6688 H   0  0  0  0  0  0  0  0  0  0  0  0
   -9.1375   -8.1554    4.0582 H   0  0  0  0  0  0  0  0  0  0  0  0
   -4.3593   -6.8498    4.8254 H   0  0  0  0  0  0  0  0  0  0  0  0
   -3.2030   -9.1991    4.7672 H   0  0  0  0  0  0  0  0  0  0  0  0
   -3.4542  -10.8383    5.3755 H   0  0  0  0  0  0  0  0  0  0  0  0
   -4.8520   -9.6347    2.9365 H   0  0  0  0  0  0  0  0  0  0  0  0
   -3.5101  -10.7801    2.8956 H   0  0  0  0  0  0  0  0  0  0  0  0
   -5.0753  -11.2796    3.5361 H   0  0  0  0  0  0  0  0  0  0  0  0
   -4.0853   -9.9348    7.5713 H   0  0  0  0  0  0  0  0  0  0  0  0
   -3.8325   -8.2933    6.9695 H   0  0  0  0  0  0  0  0  0  0  0  0
   -6.4194   -9.3448    8.2150 H   0  0  0  0  0  0  0  0  0  0  0  0
   -5.2549   -8.2703    8.9889 H   0  0  0  0  0  0  0  0  0  0  0  0
   -6.1825   -7.7092    7.5961 H   0  0  0  0  0  0  0  0  0  0  0  0
   -5.4891  -12.4021    6.7907 H   0  0  0  0  0  0  0  0  0  0  0  0
  -10.8073  -15.5988    6.4072 H   0  0  0  0  0  0  0  0  0  0  0  0
   -9.9973  -13.4032    5.8292 H   0  0  0  0  0  0  0  0  0  0  0  0
   -8.6077  -18.2272    8.1012 H   0  0  0  0  0  0  0  0  0  0  0  0
  -13.0434  -21.8462    7.1078 H   0  0  0  0  0  0  0  0  0  0  0  0
  -11.4927  -22.0546    7.9810 H   0  0  0  0  0  0  0  0  0  0  0  0
  -14.0625  -20.8843    9.1702 H   0  0  0  0  0  0  0  0  0  0  0  0
  -13.4334  -22.5050    9.4823 H   0  0  0  0  0  0  0  0  0  0  0  0
  -12.5271  -21.0906   10.0314 H   0  0  0  0  0  0  0  0  0  0  0  0
  1  9  1  0  0  0  0
  2  4  1  0  0  0  0
  2  1  1  0  0  0  0
  3  2  2  0  0  0  0
  4  7  1  0  0  0  0
  5  4  1  0  0  0  0
  5  6  1  0  0  0  0
  6 69  1  0  0  0  0
  6 67  1  0  0  0  0
  7  8  2  0  0  0  0
  7  9  1  0  0  0  0
  9 10  2  0  0  0  0
 10 70  1  0  0  0  0
 10 11  1  0  0  0  0
 11 12  1  0  0  0  0
 12 13  2  0  0  0  0
 12 16  1  0  0  0  0
 13 14  1  0  0  0  0
 14 15  1  0  0  0  0
 16 15  2  0  0  0  0
 17 16  1  0  0  0  0
 17 20  1  0  0  0  0
 18 17  2  0  0  0  0
 19 11  2  0  0  0  0
 19 18  1  0  0  0  0
 20 24  1  0  0  0  0
 21 20  2  0  0  0  0
 21 22  1  0  0  0  0
 22 27  1  0  0  0  0
 22 23  2  0  0  0  0
 23 25  1  0  0  0  0
 24 23  1  0  0  0  0
 25 35  1  0  0  0  0
 26 25  2  0  0  0  0
 26 32  1  0  0  0  0
 27 26  1  0  0  0  0
 27 28  1  0  0  0  0
 28 74  1  0  0  0  0
 28 75  1  0  0  0  0
 29 28  1  0  0  0  0
 29 77  1  0  0  0  0
 30 79  1  0  0  0  0
 30 27  1  0  0  0  0
 31 81  1  0  0  0  0
 31 30  1  0  0  0  0
 32 33  2  0  0  0  0
 33 34  1  0  0  0  0
 33 42  1  0  0  0  0
 34 36  1  0  0  0  0
 35 85  1  0  0  0  0
 35 34  2  0  0  0  0
 36 41  1  0  0  0  0
 36 39  1  0  0  0  0
 37 87  1  0  0  0  0
 37 36  1  0  0  0  0
 38 90  1  0  0  0  0
 38 37  1  0  0  0  0
 39 91  1  0  0  0  0
 39 40  1  0  0  0  0
 40 93  1  0  0  0  0
 40 94  1  0  0  0  0
 41 45  1  0  0  0  0
 42 43  1  0  0  0  0
 42 41  2  0  0  0  0
 43 44  1  0  0  0  0
 44 45  2  0  0  0  0
 44 46  1  0  0  0  0
 45 96  1  0  0  0  0
 46 47  1  0  0  0  0
 47 51  1  0  0  0  0
 47 48  2  0  0  0  0
 48 49  1  0  0  0  0
 50 49  1  0  0  0  0
 51 50  2  0  0  0  0
 52 51  1  0  0  0  0
 52 55  1  0  0  0  0
 53 52  2  0  0  0  0
 54 46  2  0  0  0  0
 54 53  1  0  0  0  0
 55 99  1  0  0  0  0
 56 55  2  0  0  0  0
 56 63  1  0  0  0  0
 57 58  1  0  0  0  0
 57 56  1  0  0  0  0
 58 60  1  0  0  0  0
 59 58  2  0  0  0  0
 60 63  1  0  0  0  0
 60 61  1  0  0  0  0
 61101  1  0  0  0  0
 61 62  1  0  0  0  0
 62103  1  0  0  0  0
 62104  1  0  0  0  0
 63 64  2  0  0  0  0
 65  5  1  0  0  0  0
 66  5  1  0  0  0  0
 68  6  1  0  0  0  0
 71 18  1  0  0  0  0
 72 19  1  0  0  0  0
 73 21  1  0  0  0  0
 76 29  1  0  0  0  0
 78 29  1  0  0  0  0
 80 30  1  0  0  0  0
 82 31  1  0  0  0  0
 83 31  1  0  0  0  0
 84 32  1  0  0  0  0
 86 37  1  0  0  0  0
 88 38  1  0  0  0  0
 89 38  1  0  0  0  0
 92 39  1  0  0  0  0
 95 40  1  0  0  0  0
 97 53  1  0  0  0  0
 98 54  1  0  0  0  0
100 61  1  0  0  0  0
102 62  1  0  0  0  0
M  END
