SCF done       -197.177784524292          0.000861411022
 OpenBabel12282109493D

115125  0  0  0  0  0  0  0  0999 V2000
    5.0757    0.4340    2.0910 C   0  0  0  0  0  0  0  0  0  0  0  0
    5.4335   -0.5428    2.7233 O   0  0  0  0  0  0  0  0  0  0  0  0
    5.8228    1.7032    1.9564 C   0  0  0  0  0  0  0  0  0  0  0  0
    7.0507    2.0361    2.4919 C   0  0  0  0  0  0  0  0  0  0  0  0
    7.5510    3.2982    2.2147 C   0  0  0  0  0  0  0  0  0  0  0  0
    8.7390    3.6645    2.7115 F   0  0  0  0  0  0  0  0  0  0  0  0
    6.8287    4.1898    1.4219 C   0  0  0  0  0  0  0  0  0  0  0  0
    7.3363    5.4015    1.1681 F   0  0  0  0  0  0  0  0  0  0  0  0
    5.5938    3.8545    0.8856 C   0  0  0  0  0  0  0  0  0  0  0  0
    5.0863    2.5939    1.1581 C   0  0  0  0  0  0  0  0  0  0  0  0
    3.8401    1.9408    0.7505 C   0  0  0  0  0  0  0  0  0  0  0  0
    2.8661    2.5214   -0.0205 C   0  0  0  0  0  0  0  0  0  0  0  0
    1.6556    1.9164   -0.4191 C   0  0  0  0  0  0  0  0  0  0  0  0
    0.6483    1.5020   -0.7844 N   0  0  0  0  0  0  0  0  0  0  0  0
    2.9393    3.8354   -0.5304 C   0  0  0  0  0  0  0  0  0  0  0  0
    2.9347    4.8933   -0.9753 N   0  0  0  0  0  0  0  0  0  0  0  0
    3.8463    0.6072    1.3153 C   0  0  0  0  0  0  0  0  0  0  0  0
    2.1274  -18.2802    6.4800 C   0  0  0  0  0  0  0  0  0  0  0  0
    1.3388  -17.7003    5.7609 O   0  0  0  0  0  0  0  0  0  0  0  0
    2.1484  -19.7431    6.7043 C   0  0  0  0  0  0  0  0  0  0  0  0
    1.3342  -20.7003    6.1323 C   0  0  0  0  0  0  0  0  0  0  0  0
    1.5512  -22.0218    6.4860 C   0  0  0  0  0  0  0  0  0  0  0  0
    0.7884  -22.9853    5.9545 F   0  0  0  0  0  0  0  0  0  0  0  0
    2.5599  -22.3577    7.3892 C   0  0  0  0  0  0  0  0  0  0  0  0
    2.7523  -23.6427    7.7087 F   0  0  0  0  0  0  0  0  0  0  0  0
    3.3738  -21.3943    7.9663 C   0  0  0  0  0  0  0  0  0  0  0  0
    3.1620  -20.0692    7.6177 C   0  0  0  0  0  0  0  0  0  0  0  0
    3.8269  -18.8346    8.0359 C   0  0  0  0  0  0  0  0  0  0  0  0
    4.7980  -18.7654    9.0011 C   0  0  0  0  0  0  0  0  0  0  0  0
    5.4147  -17.5942    9.4918 C   0  0  0  0  0  0  0  0  0  0  0  0
    5.9671  -16.7035    9.9624 N   0  0  0  0  0  0  0  0  0  0  0  0
    5.3118  -19.8887    9.6849 C   0  0  0  0  0  0  0  0  0  0  0  0
    5.7769  -20.7551   10.2769 N   0  0  0  0  0  0  0  0  0  0  0  0
    3.2344  -17.7377    7.2897 C   0  0  0  0  0  0  0  0  0  0  0  0
    3.0112   -5.2095    3.1159 C   0  0  0  0  0  0  0  0  0  0  0  0
    1.8782   -5.9137    2.6508 C   0  0  0  0  0  0  0  0  0  0  0  0
    1.6804   -7.2274    3.0075 C   0  0  0  0  0  0  0  0  0  0  0  0
    2.6341   -7.8244    3.8286 C   0  0  0  0  0  0  0  0  0  0  0  0
    3.7601   -7.1200    4.2899 C   0  0  0  0  0  0  0  0  0  0  0  0
    3.9609   -5.8030    3.9432 C   0  0  0  0  0  0  0  0  0  0  0  0
    4.6297   -8.0011    5.1670 C   0  0  0  0  0  0  0  0  0  0  0  0
    5.9996   -8.1293    4.4608 C   0  0  0  0  0  0  0  0  0  0  0  0
    7.0821   -8.9114    5.1912 C   0  0  0  0  0  0  0  0  0  0  0  0
    4.7253   -7.3385    6.5636 C   0  0  0  0  0  0  0  0  0  0  0  0
    4.8864   -8.2662    7.7619 C   0  0  0  0  0  0  0  0  0  0  0  0
    3.8586   -9.3037    5.1380 C   0  0  0  0  0  0  0  0  0  0  0  0
    2.7012   -9.1736    4.3414 C   0  0  0  0  0  0  0  0  0  0  0  0
    1.8245  -10.2320    4.1172 C   0  0  0  0  0  0  0  0  0  0  0  0
    2.1275  -11.4521    4.6762 C   0  0  0  0  0  0  0  0  0  0  0  0
    3.2744  -11.5744    5.4946 C   0  0  0  0  0  0  0  0  0  0  0  0
    4.1458  -10.5140    5.7310 C   0  0  0  0  0  0  0  0  0  0  0  0
    2.8691   -0.3438    1.1315 C   0  0  0  0  0  0  0  0  0  0  0  0
    3.7245  -16.4531    7.3257 C   0  0  0  0  0  0  0  0  0  0  0  0
    3.3041  -12.9178    5.9736 C   0  0  0  0  0  0  0  0  0  0  0  0
    2.2172  -13.6415    5.4800 C   0  0  0  0  0  0  0  0  0  0  0  0
    1.3712  -12.7681    4.5879 C   0  0  0  0  0  0  0  0  0  0  0  0
    4.3305  -13.8526    6.9610 S   0  0  0  0  0  0  0  0  0  0  0  0
    3.3099  -15.2736    6.6935 C   0  0  0  0  0  0  0  0  0  0  0  0
    2.2267  -14.9668    5.8700 C   0  0  0  0  0  0  0  0  0  0  0  0
    1.0051   -5.0374    1.7637 C   0  0  0  0  0  0  0  0  0  0  0  0
    1.7790   -3.7443    1.8003 C   0  0  0  0  0  0  0  0  0  0  0  0
    2.9352   -3.8896    2.5775 C   0  0  0  0  0  0  0  0  0  0  0  0
    1.6880   -2.4833    1.2546 C   0  0  0  0  0  0  0  0  0  0  0  0
    2.7705   -1.6560    1.6007 C   0  0  0  0  0  0  0  0  0  0  0  0
    3.9131   -2.4947    2.6398 S   0  0  0  0  0  0  0  0  0  0  0  0
    1.4126  -13.3788    3.1699 C   0  0  0  0  0  0  0  0  0  0  0  0
   -0.0532  -12.5683    5.1411 C   0  0  0  0  0  0  0  0  0  0  0  0
   -0.4143   -4.9477    2.3716 C   0  0  0  0  0  0  0  0  0  0  0  0
    1.0175   -5.6566    0.3484 C   0  0  0  0  0  0  0  0  0  0  0  0
   -1.1366   -3.6199    2.1767 C   0  0  0  0  0  0  0  0  0  0  0  0
    0.2171   -4.9097   -0.7088 C   0  0  0  0  0  0  0  0  0  0  0  0
    0.6550  -12.6146    2.0926 C   0  0  0  0  0  0  0  0  0  0  0  0
   -0.9142  -13.8240    5.1752 C   0  0  0  0  0  0  0  0  0  0  0  0
    7.6053    1.3425    3.1035 H   0  0  0  0  0  0  0  0  0  0  0  0
    5.0782    4.5807    0.2793 H   0  0  0  0  0  0  0  0  0  0  0  0
    0.5573  -20.4336    5.4337 H   0  0  0  0  0  0  0  0  0  0  0  0
    4.1386  -21.7092    8.6566 H   0  0  0  0  0  0  0  0  0  0  0  0
    0.8178   -7.7806    2.6685 H   0  0  0  0  0  0  0  0  0  0  0  0
    4.8113   -5.2358    4.2891 H   0  0  0  0  0  0  0  0  0  0  0  0
    5.8242   -8.5931    3.4859 H   0  0  0  0  0  0  0  0  0  0  0  0
    6.3693   -7.1178    4.2783 H   0  0  0  0  0  0  0  0  0  0  0  0
    6.7881   -9.9443    5.3501 H   0  0  0  0  0  0  0  0  0  0  0  0
    7.9870   -8.9120    4.5865 H   0  0  0  0  0  0  0  0  0  0  0  0
    7.3207   -8.4549    6.1474 H   0  0  0  0  0  0  0  0  0  0  0  0
    5.5558   -6.6304    6.5407 H   0  0  0  0  0  0  0  0  0  0  0  0
    3.8103   -6.7599    6.7176 H   0  0  0  0  0  0  0  0  0  0  0  0
    5.7842   -8.8718    7.6926 H   0  0  0  0  0  0  0  0  0  0  0  0
    4.9560   -7.6644    8.6660 H   0  0  0  0  0  0  0  0  0  0  0  0
    4.0265   -8.9238    7.8612 H   0  0  0  0  0  0  0  0  0  0  0  0
    0.9379  -10.0816    3.5220 H   0  0  0  0  0  0  0  0  0  0  0  0
    5.0022  -10.6691    6.3656 H   0  0  0  0  0  0  0  0  0  0  0  0
    2.0290   -0.0546    0.5116 H   0  0  0  0  0  0  0  0  0  0  0  0
    4.6086  -16.3115    7.9359 H   0  0  0  0  0  0  0  0  0  0  0  0
    1.5108  -15.7142    5.5842 H   0  0  0  0  0  0  0  0  0  0  0  0
    0.8941   -2.1177    0.6289 H   0  0  0  0  0  0  0  0  0  0  0  0
    2.4628  -13.4543    2.8746 H   0  0  0  0  0  0  0  0  0  0  0  0
    1.0200  -14.3945    3.2356 H   0  0  0  0  0  0  0  0  0  0  0  0
    0.0404  -12.1725    6.1561 H   0  0  0  0  0  0  0  0  0  0  0  0
   -0.5504  -11.8047    4.5411 H   0  0  0  0  0  0  0  0  0  0  0  0
   -1.0169   -5.7543    1.9498 H   0  0  0  0  0  0  0  0  0  0  0  0
   -0.3323   -5.1295    3.4464 H   0  0  0  0  0  0  0  0  0  0  0  0
    2.0601   -5.7218    0.0252 H   0  0  0  0  0  0  0  0  0  0  0  0
    0.6355   -6.6769    0.4267 H   0  0  0  0  0  0  0  0  0  0  0  0
   -1.2338   -3.3625    1.1270 H   0  0  0  0  0  0  0  0  0  0  0  0
   -2.1354   -3.6901    2.6027 H   0  0  0  0  0  0  0  0  0  0  0  0
   -0.6094   -2.8162    2.6843 H   0  0  0  0  0  0  0  0  0  0  0  0
    0.5729   -3.8898   -0.8207 H   0  0  0  0  0  0  0  0  0  0  0  0
    0.3315   -5.4124   -1.6670 H   0  0  0  0  0  0  0  0  0  0  0  0
   -0.8409   -4.8934   -0.4633 H   0  0  0  0  0  0  0  0  0  0  0  0
    1.1025  -11.6404    1.9168 H   0  0  0  0  0  0  0  0  0  0  0  0
    0.6973  -13.1751    1.1611 H   0  0  0  0  0  0  0  0  0  0  0  0
   -0.3904  -12.4832    2.3582 H   0  0  0  0  0  0  0  0  0  0  0  0
   -1.0622  -14.2314    4.1791 H   0  0  0  0  0  0  0  0  0  0  0  0
   -0.4654  -14.5892    5.8015 H   0  0  0  0  0  0  0  0  0  0  0  0
   -1.8906  -13.5799    5.5884 H   0  0  0  0  0  0  0  0  0  0  0  0
  1  2  2  0  0  0  0
  3  1  1  0  0  0  0
  3  4  2  0  0  0  0
  4 74  1  0  0  0  0
  5  4  1  0  0  0  0
  5  6  1  0  0  0  0
  7  5  2  0  0  0  0
  8  7  1  0  0  0  0
  9 10  2  0  0  0  0
  9  7  1  0  0  0  0
 10  3  1  0  0  0  0
 11 10  1  0  0  0  0
 11 17  1  0  0  0  0
 12 11  2  0  0  0  0
 13 12  1  0  0  0  0
 14 13  3  0  0  0  0
 15 12  1  0  0  0  0
 16 15  3  0  0  0  0
 17  1  1  0  0  0  0
 18 20  1  0  0  0  0
 18 34  1  0  0  0  0
 19 18  2  0  0  0  0
 20 27  2  0  0  0  0
 21 22  2  0  0  0  0
 21 20  1  0  0  0  0
 22 24  1  0  0  0  0
 23 22  1  0  0  0  0
 24 25  1  0  0  0  0
 24 26  2  0  0  0  0
 26 77  1  0  0  0  0
 27 26  1  0  0  0  0
 27 28  1  0  0  0  0
 28 29  2  0  0  0  0
 29 30  1  0  0  0  0
 29 32  1  0  0  0  0
 30 31  3  0  0  0  0
 32 33  3  0  0  0  0
 34 53  2  0  0  0  0
 34 28  1  0  0  0  0
 35 40  2  0  0  0  0
 36 37  2  0  0  0  0
 36 35  1  0  0  0  0
 37 38  1  0  0  0  0
 38 39  2  0  0  0  0
 38 47  1  0  0  0  0
 39 41  1  0  0  0  0
 40 79  1  0  0  0  0
 40 39  1  0  0  0  0
 41 44  1  0  0  0  0
 42 41  1  0  0  0  0
 42 43  1  0  0  0  0
 43 82  1  0  0  0  0
 43 84  1  0  0  0  0
 44 86  1  0  0  0  0
 44 45  1  0  0  0  0
 45 89  1  0  0  0  0
 45 88  1  0  0  0  0
 46 41  1  0  0  0  0
 46 51  2  0  0  0  0
 47 46  1  0  0  0  0
 48 47  2  0  0  0  0
 48 49  1  0  0  0  0
 49 50  2  0  0  0  0
 50 51  1  0  0  0  0
 50 54  1  0  0  0  0
 51 91  1  0  0  0  0
 52 17  2  0  0  0  0
 52 64  1  0  0  0  0
 53 93  1  0  0  0  0
 54 57  1  0  0  0  0
 55 59  1  0  0  0  0
 55 54  2  0  0  0  0
 56 49  1  0  0  0  0
 56 67  1  0  0  0  0
 56 55  1  0  0  0  0
 58 57  1  0  0  0  0
 58 53  1  0  0  0  0
 59 58  2  0  0  0  0
 60 61  1  0  0  0  0
 60 68  1  0  0  0  0
 60 36  1  0  0  0  0
 61 62  2  0  0  0  0
 62 65  1  0  0  0  0
 62 35  1  0  0  0  0
 63 64  2  0  0  0  0
 63 61  1  0  0  0  0
 64 65  1  0  0  0  0
 66 97  1  0  0  0  0
 66 56  1  0  0  0  0
 67 73  1  0  0  0  0
 67 98  1  0  0  0  0
 68101  1  0  0  0  0
 69103  1  0  0  0  0
 69 60  1  0  0  0  0
 70 68  1  0  0  0  0
 70105  1  0  0  0  0
 70106  1  0  0  0  0
 71109  1  0  0  0  0
 71 69  1  0  0  0  0
 72112  1  0  0  0  0
 72 66  1  0  0  0  0
 73115  1  0  0  0  0
 73114  1  0  0  0  0
 75  9  1  0  0  0  0
 76 21  1  0  0  0  0
 78 37  1  0  0  0  0
 80 42  1  0  0  0  0
 81 42  1  0  0  0  0
 83 43  1  0  0  0  0
 85 44  1  0  0  0  0
 87 45  1  0  0  0  0
 90 48  1  0  0  0  0
 92 52  1  0  0  0  0
 94 59  1  0  0  0  0
 95 63  1  0  0  0  0
 96 66  1  0  0  0  0
 99 67  1  0  0  0  0
100 68  1  0  0  0  0
102 69  1  0  0  0  0
104 70  1  0  0  0  0
107 71  1  0  0  0  0
108 71  1  0  0  0  0
110 72  1  0  0  0  0
111 72  1  0  0  0  0
113 73  1  0  0  0  0
M  END
