F8-DPPTCN.sdf
  xtb     12202113393D
 energy: -212.751175558669 gnorm: 0.000204269135 xtb: 6.4.1 (unknown)
127139  0     0  0            999 V2000
    3.8543    1.9882    6.9740 C   0  0  0  0  0  0  0  0  0  0  0  0
    4.6400    0.9375    7.4205 C   0  0  0  0  0  0  0  0  0  0  0  0
    4.9156   -0.0082    6.4358 C   0  0  0  0  0  0  0  0  0  0  0  0
    4.3629    0.2993    5.2100 C   0  0  0  0  0  0  0  0  0  0  0  0
    3.4878    1.7886    5.2792 S   0  0  0  0  0  0  0  0  0  0  0  0
    4.3470   -0.4553    3.9782 C   0  0  0  0  0  0  0  0  0  0  0  0
    4.5776   -1.8346    3.9538 C   0  0  0  0  0  0  0  0  0  0  0  0
    4.4172   -2.5586    2.7884 C   0  0  0  0  0  0  0  0  0  0  0  0
    4.0051   -1.9027    1.6369 C   0  0  0  0  0  0  0  0  0  0  0  0
    3.8037   -0.5104    1.6405 C   0  0  0  0  0  0  0  0  0  0  0  0
    4.0009    0.2078    2.7918 C   0  0  0  0  0  0  0  0  0  0  0  0
    3.3913   -0.0194    0.2691 C   0  0  0  0  0  0  0  0  0  0  0  0
    2.0196    0.6870    0.2574 C   0  0  0  0  0  0  0  0  0  0  0  0
    1.9345    2.0490    0.9368 C   0  0  0  0  0  0  0  0  0  0  0  0
    4.5465    0.8462   -0.2792 C   0  0  0  0  0  0  0  0  0  0  0  0
    4.3727    1.3440   -1.7080 C   0  0  0  0  0  0  0  0  0  0  0  0
    3.2660   -1.3299   -0.4813 C   0  0  0  0  0  0  0  0  0  0  0  0
    3.6613   -2.4109    0.3266 C   0  0  0  0  0  0  0  0  0  0  0  0
    3.5921   -3.7119   -0.1525 C   0  0  0  0  0  0  0  0  0  0  0  0
    3.0790   -3.9321   -1.4141 C   0  0  0  0  0  0  0  0  0  0  0  0
    2.6360   -2.8705   -2.2106 C   0  0  0  0  0  0  0  0  0  0  0  0
    2.7541   -1.5561   -1.7357 C   0  0  0  0  0  0  0  0  0  0  0  0
    1.9714   -3.1103   -3.4689 C   0  0  0  0  0  0  0  0  0  0  0  0
    1.7229   -2.2243   -4.4956 C   0  0  0  0  0  0  0  0  0  0  0  0
    0.9253   -2.7461   -5.5091 C   0  0  0  0  0  0  0  0  0  0  0  0
    0.5337   -4.0557   -5.2873 C   0  0  0  0  0  0  0  0  0  0  0  0
    1.2263   -4.6407   -3.7946 S   0  0  0  0  0  0  0  0  0  0  0  0
    3.2856    3.1201    7.6143 C   0  0  0  0  0  0  0  0  0  0  0  0
    3.3956    3.4974    8.9343 N   0  0  0  0  0  0  0  0  0  0  0  0
    2.6457    4.6590    9.2122 C   0  0  0  0  0  0  0  0  0  0  0  0
    2.0438    5.0181    7.9539 C   0  0  0  0  0  0  0  0  0  0  0  0
    2.4662    4.0600    6.9941 C   0  0  0  0  0  0  0  0  0  0  0  0
    4.0934    2.8306   10.0055 C   0  0  0  0  0  0  0  0  0  0  0  0
    3.2960    1.6489   10.5532 C   0  0  0  0  0  0  0  0  0  0  0  0
    2.6032    5.1642   10.3191 O   0  0  0  0  0  0  0  0  0  0  0  0
    1.1992    5.9300    7.3222 C   0  0  0  0  0  0  0  0  0  0  0  0
    1.1180    5.5581    5.9982 N   0  0  0  0  0  0  0  0  0  0  0  0
    1.8776    4.4039    5.7316 C   0  0  0  0  0  0  0  0  0  0  0  0
    1.9558    3.8996    4.6246 O   0  0  0  0  0  0  0  0  0  0  0  0
    0.3380    6.1476    4.9381 C   0  0  0  0  0  0  0  0  0  0  0  0
   -1.1035    5.6455    4.9442 C   0  0  0  0  0  0  0  0  0  0  0  0
    0.5513    7.0280    7.9443 C   0  0  0  0  0  0  0  0  0  0  0  0
    0.6828    7.3640    9.2827 C   0  0  0  0  0  0  0  0  0  0  0  0
   -0.0696    8.4709    9.6578 C   0  0  0  0  0  0  0  0  0  0  0  0
   -0.8018    9.0166    8.6203 C   0  0  0  0  0  0  0  0  0  0  0  0
   -0.5369    8.1353    7.1507 S   0  0  0  0  0  0  0  0  0  0  0  0
   -1.6801   10.1359    8.6530 C   0  0  0  0  0  0  0  0  0  0  0  0
   -2.5328   10.6444    7.2269 S   0  0  0  0  0  0  0  0  0  0  0  0
   -3.2951   11.9336    8.1071 C   0  0  0  0  0  0  0  0  0  0  0  0
   -2.8985   11.9515    9.4253 C   0  0  0  0  0  0  0  0  0  0  0  0
   -1.9890   10.9392    9.7328 C   0  0  0  0  0  0  0  0  0  0  0  0
   -4.1898   12.8008    7.4815 C   0  0  0  0  0  0  0  0  0  0  0  0
   -4.9277   13.5186    6.9722 N   0  0  0  0  0  0  0  0  0  0  0  0
   -0.3747   -4.7707   -6.1073 C   0  0  0  0  0  0  0  0  0  0  0  0
   -0.7729   -6.0799   -5.9685 N   0  0  0  0  0  0  0  0  0  0  0  0
   -1.7625   -6.4303   -6.9054 C   0  0  0  0  0  0  0  0  0  0  0  0
   -1.9730   -5.2338   -7.6790 C   0  0  0  0  0  0  0  0  0  0  0  0
   -1.0874   -4.2378   -7.1818 C   0  0  0  0  0  0  0  0  0  0  0  0
   -0.3396   -7.0564   -4.9991 C   0  0  0  0  0  0  0  0  0  0  0  0
   -1.1813   -7.0048   -3.7266 C   0  0  0  0  0  0  0  0  0  0  0  0
   -2.2503   -7.5446   -6.9615 O   0  0  0  0  0  0  0  0  0  0  0  0
   -2.7392   -4.6782   -8.7022 C   0  0  0  0  0  0  0  0  0  0  0  0
   -2.3154   -3.3785   -8.8632 N   0  0  0  0  0  0  0  0  0  0  0  0
   -1.2969   -3.0413   -7.9512 C   0  0  0  0  0  0  0  0  0  0  0  0
   -0.7721   -1.9421   -7.9314 O   0  0  0  0  0  0  0  0  0  0  0  0
   -2.8100   -2.3705   -9.7679 C   0  0  0  0  0  0  0  0  0  0  0  0
   -4.0222   -1.6394   -9.1963 C   0  0  0  0  0  0  0  0  0  0  0  0
   -3.7738   -5.3395   -9.4135 C   0  0  0  0  0  0  0  0  0  0  0  0
   -4.1454   -6.6596   -9.2140 C   0  0  0  0  0  0  0  0  0  0  0  0
   -5.2137   -7.0649  -10.0058 C   0  0  0  0  0  0  0  0  0  0  0  0
   -5.6942   -6.0711  -10.8343 C   0  0  0  0  0  0  0  0  0  0  0  0
   -4.7877   -4.6051  -10.6299 S   0  0  0  0  0  0  0  0  0  0  0  0
   -6.7772   -6.1324  -11.7524 C   0  0  0  0  0  0  0  0  0  0  0  0
   -7.6902   -7.5976  -11.9548 S   0  0  0  0  0  0  0  0  0  0  0  0
   -8.7114   -6.8266  -13.1320 C   0  0  0  0  0  0  0  0  0  0  0  0
   -8.3487   -5.5153  -13.3411 C   0  0  0  0  0  0  0  0  0  0  0  0
   -7.2584   -5.1251  -12.5630 C   0  0  0  0  0  0  0  0  0  0  0  0
   -9.7539   -7.5209  -13.7445 C   0  0  0  0  0  0  0  0  0  0  0  0
  -10.6158   -8.0839  -14.2536 N   0  0  0  0  0  0  0  0  0  0  0  0
    5.0043    0.8372    8.4252 H   0  0  0  0  0  0  0  0  0  0  0  0
    5.5133   -0.8840    6.6158 H   0  0  0  0  0  0  0  0  0  0  0  0
    4.8525   -2.3431    4.8653 H   0  0  0  0  0  0  0  0  0  0  0  0
    4.5877   -3.6248    2.7821 H   0  0  0  0  0  0  0  0  0  0  0  0
    3.8799    1.2791    2.8138 H   0  0  0  0  0  0  0  0  0  0  0  0
    1.7157    0.8022   -0.7846 H   0  0  0  0  0  0  0  0  0  0  0  0
    1.3010    0.0110    0.7291 H   0  0  0  0  0  0  0  0  0  0  0  0
    2.6819    2.7358    0.5498 H   0  0  0  0  0  0  0  0  0  0  0  0
    0.9539    2.4786    0.7412 H   0  0  0  0  0  0  0  0  0  0  0  0
    2.0487    1.9753    2.0136 H   0  0  0  0  0  0  0  0  0  0  0  0
    5.4605    0.2481   -0.2237 H   0  0  0  0  0  0  0  0  0  0  0  0
    4.6763    1.6990    0.3887 H   0  0  0  0  0  0  0  0  0  0  0  0
    4.3406    0.5124   -2.4069 H   0  0  0  0  0  0  0  0  0  0  0  0
    3.4655    1.9323   -1.8152 H   0  0  0  0  0  0  0  0  0  0  0  0
    5.2178    1.9751   -1.9753 H   0  0  0  0  0  0  0  0  0  0  0  0
    3.9067   -4.5424    0.4612 H   0  0  0  0  0  0  0  0  0  0  0  0
    2.9946   -4.9405   -1.7939 H   0  0  0  0  0  0  0  0  0  0  0  0
    2.3860   -0.7434   -2.3406 H   0  0  0  0  0  0  0  0  0  0  0  0
    2.1125   -1.2228   -4.5170 H   0  0  0  0  0  0  0  0  0  0  0  0
    0.6142   -2.1902   -6.3756 H   0  0  0  0  0  0  0  0  0  0  0  0
    5.0843    2.5252    9.6623 H   0  0  0  0  0  0  0  0  0  0  0  0
    4.2130    3.5803   10.7937 H   0  0  0  0  0  0  0  0  0  0  0  0
    2.3556    2.0033   10.9679 H   0  0  0  0  0  0  0  0  0  0  0  0
    3.0765    0.9267    9.7700 H   0  0  0  0  0  0  0  0  0  0  0  0
    3.8588    1.1557   11.3411 H   0  0  0  0  0  0  0  0  0  0  0  0
    0.8223    5.8361    4.0073 H   0  0  0  0  0  0  0  0  0  0  0  0
    0.3759    7.2370    5.0078 H   0  0  0  0  0  0  0  0  0  0  0  0
   -1.1165    4.5669    4.8071 H   0  0  0  0  0  0  0  0  0  0  0  0
   -1.6563    6.1085    4.1320 H   0  0  0  0  0  0  0  0  0  0  0  0
   -1.5985    5.8845    5.8823 H   0  0  0  0  0  0  0  0  0  0  0  0
    1.3103    6.8067    9.9556 H   0  0  0  0  0  0  0  0  0  0  0  0
   -0.0872    8.8646   10.6573 H   0  0  0  0  0  0  0  0  0  0  0  0
   -3.2616   12.6768   10.1315 H   0  0  0  0  0  0  0  0  0  0  0  0
   -1.5686   10.7955   10.7109 H   0  0  0  0  0  0  0  0  0  0  0  0
    0.7193   -6.9092   -4.7774 H   0  0  0  0  0  0  0  0  0  0  0  0
   -0.4709   -8.0331   -5.4748 H   0  0  0  0  0  0  0  0  0  0  0  0
   -2.2208   -7.2134   -3.9674 H   0  0  0  0  0  0  0  0  0  0  0  0
   -1.1194   -6.0265   -3.2564 H   0  0  0  0  0  0  0  0  0  0  0  0
   -0.8283   -7.7528   -3.0227 H   0  0  0  0  0  0  0  0  0  0  0  0
   -3.0405   -2.8204  -10.7359 H   0  0  0  0  0  0  0  0  0  0  0  0
   -1.9896   -1.6574   -9.8954 H   0  0  0  0  0  0  0  0  0  0  0  0
   -4.3597   -0.8830   -9.8989 H   0  0  0  0  0  0  0  0  0  0  0  0
   -3.7491   -1.1531   -8.2631 H   0  0  0  0  0  0  0  0  0  0  0  0
   -4.8411   -2.3286   -9.0049 H   0  0  0  0  0  0  0  0  0  0  0  0
   -3.6474   -7.2958   -8.5039 H   0  0  0  0  0  0  0  0  0  0  0  0
   -5.6395   -8.0525   -9.9816 H   0  0  0  0  0  0  0  0  0  0  0  0
   -8.8627   -4.8730  -14.0338 H   0  0  0  0  0  0  0  0  0  0  0  0
   -6.8263   -4.1403  -12.5810 H   0  0  0  0  0  0  0  0  0  0  0  0
  1  2  2  0  0  0  0
  2  3  1  0  0  0  0
  3  4  2  0  0  0  0
  4  5  1  0  0  0  0
  1  5  1  0  0  0  0
  4  6  1  0  0  0  0
  6  7  2  0  0  0  0
  7  8  1  0  0  0  0
  8  9  2  0  0  0  0
  9 10  1  0  0  0  0
 10 11  2  0  0  0  0
  6 11  1  0  0  0  0
 10 12  1  0  0  0  0
 12 13  1  0  0  0  0
 13 14  1  0  0  0  0
 12 15  1  0  0  0  0
 15 16  1  0  0  0  0
 12 17  1  0  0  0  0
 17 18  2  0  0  0  0
  9 18  1  0  0  0  0
 18 19  1  0  0  0  0
 19 20  2  0  0  0  0
 20 21  1  0  0  0  0
 21 22  2  0  0  0  0
 17 22  1  0  0  0  0
 21 23  1  0  0  0  0
 23 24  2  0  0  0  0
 24 25  1  0  0  0  0
 25 26  2  0  0  0  0
 26 27  1  0  0  0  0
 23 27  1  0  0  0  0
  1 28  1  0  0  0  0
 28 29  1  0  0  0  0
 29 30  1  0  0  0  0
 30 31  1  0  0  0  0
 31 32  1  0  0  0  0
 32 28  2  0  0  0  0
 29 33  1  0  0  0  0
 33 34  1  0  0  0  0
 30 35  2  0  0  0  0
 31 36  2  0  0  0  0
 36 37  1  0  0  0  0
 37 38  1  0  0  0  0
 38 32  1  0  0  0  0
 38 39  2  0  0  0  0
 37 40  1  0  0  0  0
 40 41  1  0  0  0  0
 36 42  1  0  0  0  0
 42 43  2  0  0  0  0
 43 44  1  0  0  0  0
 44 45  2  0  0  0  0
 45 46  1  0  0  0  0
 46 42  1  0  0  0  0
 45 47  1  0  0  0  0
 47 48  1  0  0  0  0
 48 49  1  0  0  0  0
 49 50  2  0  0  0  0
 50 51  1  0  0  0  0
 51 47  2  0  0  0  0
 49 52  1  0  0  0  0
 52 53  3  0  0  0  0
 54 55  1  0  0  0  0
 55 56  1  0  0  0  0
 56 57  1  0  0  0  0
 57 58  1  0  0  0  0
 58 54  2  0  0  0  0
 55 59  1  0  0  0  0
 59 60  1  0  0  0  0
 56 61  2  0  0  0  0
 57 62  2  0  0  0  0
 62 63  1  0  0  0  0
 63 64  1  0  0  0  0
 64 58  1  0  0  0  0
 64 65  2  0  0  0  0
 63 66  1  0  0  0  0
 66 67  1  0  0  0  0
 62 68  1  0  0  0  0
 68 69  2  0  0  0  0
 69 70  1  0  0  0  0
 70 71  2  0  0  0  0
 71 72  1  0  0  0  0
 72 68  1  0  0  0  0
 71 73  1  0  0  0  0
 73 74  1  0  0  0  0
 74 75  1  0  0  0  0
 75 76  2  0  0  0  0
 76 77  1  0  0  0  0
 77 73  2  0  0  0  0
 75 78  1  0  0  0  0
 78 79  3  0  0  0  0
 54 26  1  0  0  0  0
  2 80  1  0  0  0  0
  3 81  1  0  0  0  0
  7 82  1  0  0  0  0
  8 83  1  0  0  0  0
 11 84  1  0  0  0  0
 13 85  1  0  0  0  0
 13 86  1  0  0  0  0
 14 87  1  0  0  0  0
 14 88  1  0  0  0  0
 14 89  1  0  0  0  0
 15 90  1  0  0  0  0
 15 91  1  0  0  0  0
 16 92  1  0  0  0  0
 16 93  1  0  0  0  0
 16 94  1  0  0  0  0
 19 95  1  0  0  0  0
 20 96  1  0  0  0  0
 22 97  1  0  0  0  0
 24 98  1  0  0  0  0
 25 99  1  0  0  0  0
 33100  1  0  0  0  0
 33101  1  0  0  0  0
 34102  1  0  0  0  0
 34103  1  0  0  0  0
 34104  1  0  0  0  0
 40105  1  0  0  0  0
 40106  1  0  0  0  0
 41107  1  0  0  0  0
 41108  1  0  0  0  0
 41109  1  0  0  0  0
 43110  1  0  0  0  0
 44111  1  0  0  0  0
 50112  1  0  0  0  0
 51113  1  0  0  0  0
 59114  1  0  0  0  0
 59115  1  0  0  0  0
 60116  1  0  0  0  0
 60117  1  0  0  0  0
 60118  1  0  0  0  0
 66119  1  0  0  0  0
 66120  1  0  0  0  0
 67121  1  0  0  0  0
 67122  1  0  0  0  0
 67123  1  0  0  0  0
 69124  1  0  0  0  0
 70125  1  0  0  0  0
 76126  1  0  0  0  0
 77127  1  0  0  0  0
M  END
