FOC6-FIC.sdf
  xtb     12202113543D
 energy: -199.296601974110 gnorm: 0.000395999874 xtb: 6.4.1 (unknown)
113123  0     0  0            999 V2000
    9.8398   -6.1411   -1.7594 C   0  0  0  0  0  0  0  0  0  0  0  0
    9.8173   -5.0439   -1.2356 O   0  0  0  0  0  0  0  0  0  0  0  0
   11.0547   -6.8142   -2.2623 C   0  0  0  0  0  0  0  0  0  0  0  0
   12.3532   -6.3412   -2.2687 C   0  0  0  0  0  0  0  0  0  0  0  0
   13.3457   -7.1435   -2.8080 C   0  0  0  0  0  0  0  0  0  0  0  0
   13.0025   -8.3858   -3.3204 C   0  0  0  0  0  0  0  0  0  0  0  0
   11.7062   -8.8830   -3.3208 C   0  0  0  0  0  0  0  0  0  0  0  0
   10.7197   -8.0762   -2.7784 C   0  0  0  0  0  0  0  0  0  0  0  0
    9.2804   -8.2793   -2.6113 C   0  0  0  0  0  0  0  0  0  0  0  0
    8.6225   -9.4531   -2.8728 C   0  0  0  0  0  0  0  0  0  0  0  0
    9.2427  -10.6035   -3.4055 C   0  0  0  0  0  0  0  0  0  0  0  0
    9.6794  -11.5714   -3.8417 N   0  0  0  0  0  0  0  0  0  0  0  0
    7.2593   -9.7170   -2.6195 C   0  0  0  0  0  0  0  0  0  0  0  0
    6.1714  -10.0300   -2.4249 N   0  0  0  0  0  0  0  0  0  0  0  0
    8.7218   -7.0604   -2.0553 C   0  0  0  0  0  0  0  0  0  0  0  0
    7.3694   -6.8248   -1.9691 C   0  0  0  0  0  0  0  0  0  0  0  0
  -10.3318    3.4924   -1.9736 C   0  0  0  0  0  0  0  0  0  0  0  0
   -9.4116    2.7086   -2.1287 O   0  0  0  0  0  0  0  0  0  0  0  0
  -11.5893    3.5241   -2.7447 C   0  0  0  0  0  0  0  0  0  0  0  0
  -11.9930    2.6961   -3.7741 C   0  0  0  0  0  0  0  0  0  0  0  0
  -13.2336    2.9173   -4.3516 C   0  0  0  0  0  0  0  0  0  0  0  0
  -14.0210    3.9557   -3.8783 C   0  0  0  0  0  0  0  0  0  0  0  0
  -13.6354    4.8010   -2.8458 C   0  0  0  0  0  0  0  0  0  0  0  0
  -12.3952    4.5753   -2.2735 C   0  0  0  0  0  0  0  0  0  0  0  0
  -11.6890    5.2612   -1.1880 C   0  0  0  0  0  0  0  0  0  0  0  0
  -12.1637    6.3549   -0.5097 C   0  0  0  0  0  0  0  0  0  0  0  0
  -13.4107    6.9647   -0.7622 C   0  0  0  0  0  0  0  0  0  0  0  0
  -14.4096    7.5104   -0.9113 N   0  0  0  0  0  0  0  0  0  0  0  0
  -11.4933    7.0404    0.5244 C   0  0  0  0  0  0  0  0  0  0  0  0
  -11.0178    7.6569    1.3697 N   0  0  0  0  0  0  0  0  0  0  0  0
  -10.4263    4.5813   -0.9981 C   0  0  0  0  0  0  0  0  0  0  0  0
   -9.4800    4.8922   -0.0491 C   0  0  0  0  0  0  0  0  0  0  0  0
   -8.2344    4.3194    0.2174 C   0  0  0  0  0  0  0  0  0  0  0  0
   -7.4773    2.9869   -0.6475 S   0  0  0  0  0  0  0  0  0  0  0  0
   -6.1143    3.1087    0.3751 C   0  0  0  0  0  0  0  0  0  0  0  0
   -6.2271    4.1098    1.3593 C   0  0  0  0  0  0  0  0  0  0  0  0
   -7.4122    4.7952    1.2550 C   0  0  0  0  0  0  0  0  0  0  0  0
   -4.8521    2.4945    0.5132 C   0  0  0  0  0  0  0  0  0  0  0  0
   -4.1557    3.0850    1.5675 C   0  0  0  0  0  0  0  0  0  0  0  0
   -4.9787    4.1772    2.2131 C   0  0  0  0  0  0  0  0  0  0  0  0
   -3.9592    1.2394   -0.2407 S   0  0  0  0  0  0  0  0  0  0  0  0
   -2.6276    1.4996    0.8713 C   0  0  0  0  0  0  0  0  0  0  0  0
   -2.9074    2.5089    1.7746 C   0  0  0  0  0  0  0  0  0  0  0  0
   -1.4348    0.7046    0.7362 C   0  0  0  0  0  0  0  0  0  0  0  0
   -1.4717   -0.4774   -0.0060 C   0  0  0  0  0  0  0  0  0  0  0  0
   -0.3495   -1.2481   -0.1858 C   0  0  0  0  0  0  0  0  0  0  0  0
    0.8927   -0.8982    0.3560 C   0  0  0  0  0  0  0  0  0  0  0  0
    0.9228    0.2869    1.1044 C   0  0  0  0  0  0  0  0  0  0  0  0
   -0.1900    1.0840    1.3021 C   0  0  0  0  0  0  0  0  0  0  0  0
    2.0866   -1.6776    0.1552 C   0  0  0  0  0  0  0  0  0  0  0  0
    2.0464   -3.1924   -0.7187 S   0  0  0  0  0  0  0  0  0  0  0  0
    3.7366   -3.3751   -0.5061 C   0  0  0  0  0  0  0  0  0  0  0  0
    4.3048   -2.3182    0.2036 C   0  0  0  0  0  0  0  0  0  0  0  0
    3.3708   -1.3632    0.5771 C   0  0  0  0  0  0  0  0  0  0  0  0
    4.7559   -4.2866   -0.8537 C   0  0  0  0  0  0  0  0  0  0  0  0
    5.9853   -3.8139   -0.3588 C   0  0  0  0  0  0  0  0  0  0  0  0
    5.7987   -2.4992    0.3639 C   0  0  0  0  0  0  0  0  0  0  0  0
    4.9003   -5.7540   -1.7080 S   0  0  0  0  0  0  0  0  0  0  0  0
    6.6487   -5.7478   -1.4371 C   0  0  0  0  0  0  0  0  0  0  0  0
    7.0412   -4.6372   -0.6896 C   0  0  0  0  0  0  0  0  0  0  0  0
    6.4955   -1.3406   -0.3832 C   0  0  0  0  0  0  0  0  0  0  0  0
    8.0171   -1.3488   -0.3462 C   0  0  0  0  0  0  0  0  0  0  0  0
    6.1526   -2.5512    1.8688 C   0  0  0  0  0  0  0  0  0  0  0  0
    7.3109   -3.4683    2.2427 C   0  0  0  0  0  0  0  0  0  0  0  0
   -4.3371    5.5681    2.0402 C   0  0  0  0  0  0  0  0  0  0  0  0
   -3.0139    5.7611    2.7690 C   0  0  0  0  0  0  0  0  0  0  0  0
   -5.2501    3.7895    3.6799 C   0  0  0  0  0  0  0  0  0  0  0  0
   -6.1220    4.7690    4.4536 C   0  0  0  0  0  0  0  0  0  0  0  0
   -0.1688    2.2369    2.0193 O   0  0  0  0  0  0  0  0  0  0  0  0
   -0.4709   -2.3756   -0.9186 F   0  0  0  0  0  0  0  0  0  0  0  0
    1.0595    2.8245    2.4105 C   0  0  0  0  0  0  0  0  0  0  0  0
    1.8181    3.4402    1.2397 C   0  0  0  0  0  0  0  0  0  0  0  0
  -15.2212    4.1562   -4.4469 F   0  0  0  0  0  0  0  0  0  0  0  0
   13.9750   -9.1486   -3.8461 F   0  0  0  0  0  0  0  0  0  0  0  0
   12.5765   -5.3675   -1.8614 H   0  0  0  0  0  0  0  0  0  0  0  0
   14.3754   -6.8244   -2.8399 H   0  0  0  0  0  0  0  0  0  0  0  0
   11.5120   -9.8566   -3.7387 H   0  0  0  0  0  0  0  0  0  0  0  0
    6.7335   -7.5849   -2.4078 H   0  0  0  0  0  0  0  0  0  0  0  0
  -11.3497    1.8989   -4.1121 H   0  0  0  0  0  0  0  0  0  0  0  0
  -13.5991    2.3014   -5.1578 H   0  0  0  0  0  0  0  0  0  0  0  0
  -14.2997    5.5877   -2.5292 H   0  0  0  0  0  0  0  0  0  0  0  0
   -9.7164    5.7147    0.6152 H   0  0  0  0  0  0  0  0  0  0  0  0
   -7.7183    5.6224    1.8706 H   0  0  0  0  0  0  0  0  0  0  0  0
   -2.2266    2.7796    2.5570 H   0  0  0  0  0  0  0  0  0  0  0  0
   -2.3979   -0.8044   -0.4525 H   0  0  0  0  0  0  0  0  0  0  0  0
    1.8609    0.5752    1.5445 H   0  0  0  0  0  0  0  0  0  0  0  0
    3.6170   -0.4744    1.1277 H   0  0  0  0  0  0  0  0  0  0  0  0
    8.0693   -4.4829   -0.4244 H   0  0  0  0  0  0  0  0  0  0  0  0
    6.1330   -0.4038    0.0476 H   0  0  0  0  0  0  0  0  0  0  0  0
    6.1645   -1.3727   -1.4247 H   0  0  0  0  0  0  0  0  0  0  0  0
    8.3920   -0.5186   -0.9416 H   0  0  0  0  0  0  0  0  0  0  0  0
    8.4172   -2.2684   -0.7621 H   0  0  0  0  0  0  0  0  0  0  0  0
    8.3862   -1.2263    0.6680 H   0  0  0  0  0  0  0  0  0  0  0  0
    5.2670   -2.8905    2.4127 H   0  0  0  0  0  0  0  0  0  0  0  0
    6.3684   -1.5336    2.2002 H   0  0  0  0  0  0  0  0  0  0  0  0
    8.2174   -3.2156    1.7033 H   0  0  0  0  0  0  0  0  0  0  0  0
    7.0629   -4.5058    2.0342 H   0  0  0  0  0  0  0  0  0  0  0  0
    7.5100   -3.3761    3.3086 H   0  0  0  0  0  0  0  0  0  0  0  0
   -4.1792    5.7273    0.9703 H   0  0  0  0  0  0  0  0  0  0  0  0
   -5.0538    6.3177    2.3784 H   0  0  0  0  0  0  0  0  0  0  0  0
   -3.1295    5.6306    3.8415 H   0  0  0  0  0  0  0  0  0  0  0  0
   -2.2674    5.0598    2.4071 H   0  0  0  0  0  0  0  0  0  0  0  0
   -2.6474    6.7695    2.5894 H   0  0  0  0  0  0  0  0  0  0  0  0
   -5.7337    2.8092    3.6770 H   0  0  0  0  0  0  0  0  0  0  0  0
   -4.2897    3.6769    4.1854 H   0  0  0  0  0  0  0  0  0  0  0  0
   -7.1001    4.8658    3.9917 H   0  0  0  0  0  0  0  0  0  0  0  0
   -5.6618    5.7515    4.5110 H   0  0  0  0  0  0  0  0  0  0  0  0
   -6.2630    4.4030    5.4682 H   0  0  0  0  0  0  0  0  0  0  0  0
    1.6826    2.1040    2.9537 H   0  0  0  0  0  0  0  0  0  0  0  0
    0.7617    3.6097    3.1112 H   0  0  0  0  0  0  0  0  0  0  0  0
    2.7155    3.9316    1.6048 H   0  0  0  0  0  0  0  0  0  0  0  0
    1.1914    4.1755    0.7416 H   0  0  0  0  0  0  0  0  0  0  0  0
    2.1000    2.6829    0.5123 H   0  0  0  0  0  0  0  0  0  0  0  0
  1  2  2  0  0  0  0
  1  3  1  0  0  0  0
  3  4  2  0  0  0  0
  4  5  1  0  0  0  0
  5  6  2  0  0  0  0
  6  7  1  0  0  0  0
  7  8  2  0  0  0  0
  3  8  1  0  0  0  0
  8  9  1  0  0  0  0
  9 10  2  0  0  0  0
 10 11  1  0  0  0  0
 11 12  3  0  0  0  0
 10 13  1  0  0  0  0
 13 14  3  0  0  0  0
  9 15  1  0  0  0  0
  1 15  1  0  0  0  0
 15 16  2  0  0  0  0
 17 18  2  0  0  0  0
 17 19  1  0  0  0  0
 19 20  2  0  0  0  0
 20 21  1  0  0  0  0
 21 22  2  0  0  0  0
 22 23  1  0  0  0  0
 23 24  2  0  0  0  0
 19 24  1  0  0  0  0
 24 25  1  0  0  0  0
 25 26  2  0  0  0  0
 26 27  1  0  0  0  0
 27 28  3  0  0  0  0
 26 29  1  0  0  0  0
 29 30  3  0  0  0  0
 25 31  1  0  0  0  0
 17 31  1  0  0  0  0
 31 32  2  0  0  0  0
 32 33  1  0  0  0  0
 33 34  1  0  0  0  0
 34 35  1  0  0  0  0
 35 36  2  0  0  0  0
 36 37  1  0  0  0  0
 37 33  2  0  0  0  0
 35 38  1  0  0  0  0
 38 39  2  0  0  0  0
 39 40  1  0  0  0  0
 40 36  1  0  0  0  0
 38 41  1  0  0  0  0
 41 42  1  0  0  0  0
 42 43  2  0  0  0  0
 43 39  1  0  0  0  0
 42 44  1  0  0  0  0
 45 46  2  0  0  0  0
 46 47  1  0  0  0  0
 47 48  2  0  0  0  0
 48 49  1  0  0  0  0
 49 44  2  0  0  0  0
 47 50  1  0  0  0  0
 50 51  1  0  0  0  0
 51 52  1  0  0  0  0
 52 53  2  0  0  0  0
 53 54  1  0  0  0  0
 54 50  2  0  0  0  0
 52 55  1  0  0  0  0
 55 56  2  0  0  0  0
 56 57  1  0  0  0  0
 57 53  1  0  0  0  0
 55 58  1  0  0  0  0
 58 59  1  0  0  0  0
 59 60  2  0  0  0  0
 60 56  1  0  0  0  0
 59 16  1  0  0  0  0
 57 61  1  0  0  0  0
 61 62  1  0  0  0  0
 57 63  1  0  0  0  0
 63 64  1  0  0  0  0
 40 65  1  0  0  0  0
 65 66  1  0  0  0  0
 40 67  1  0  0  0  0
 67 68  1  0  0  0  0
 44 45  1  0  0  0  0
 49 69  1  0  0  0  0
 46 70  1  0  0  0  0
 69 71  1  0  0  0  0
 71 72  1  0  0  0  0
 22 73  1  0  0  0  0
  6 74  1  0  0  0  0
  4 75  1  0  0  0  0
  5 76  1  0  0  0  0
  7 77  1  0  0  0  0
 16 78  1  0  0  0  0
 20 79  1  0  0  0  0
 21 80  1  0  0  0  0
 23 81  1  0  0  0  0
 32 82  1  0  0  0  0
 37 83  1  0  0  0  0
 43 84  1  0  0  0  0
 45 85  1  0  0  0  0
 48 86  1  0  0  0  0
 54 87  1  0  0  0  0
 60 88  1  0  0  0  0
 61 89  1  0  0  0  0
 61 90  1  0  0  0  0
 62 91  1  0  0  0  0
 62 92  1  0  0  0  0
 62 93  1  0  0  0  0
 63 94  1  0  0  0  0
 63 95  1  0  0  0  0
 64 96  1  0  0  0  0
 64 97  1  0  0  0  0
 64 98  1  0  0  0  0
 65 99  1  0  0  0  0
 65100  1  0  0  0  0
 66101  1  0  0  0  0
 66102  1  0  0  0  0
 66103  1  0  0  0  0
 67104  1  0  0  0  0
 67105  1  0  0  0  0
 68106  1  0  0  0  0
 68107  1  0  0  0  0
 68108  1  0  0  0  0
 71109  1  0  0  0  0
 71110  1  0  0  0  0
 72111  1  0  0  0  0
 72112  1  0  0  0  0
 72113  1  0  0  0  0
M  END
