SCF done       -222.430500311957          0.000862534354
 OpenBabel12282109493D

122133  0  0  0  0  0  0  0  0999 V2000
    0.3282   -0.6036   -2.9865 C   0  0  0  0  0  0  0  0  0  0  0  0
   -0.0136   -1.7468   -2.7440 O   0  0  0  0  0  0  0  0  0  0  0  0
   -0.5748    0.5573   -3.1443 C   0  0  0  0  0  0  0  0  0  0  0  0
   -1.9517    0.5904   -3.0576 C   0  0  0  0  0  0  0  0  0  0  0  0
   -2.5773    1.8127   -3.2449 C   0  0  0  0  0  0  0  0  0  0  0  0
   -1.8296    2.9594   -3.5104 C   0  0  0  0  0  0  0  0  0  0  0  0
   -0.4452    2.9246   -3.5968 C   0  0  0  0  0  0  0  0  0  0  0  0
    0.1881    1.7061   -3.4108 C   0  0  0  0  0  0  0  0  0  0  0  0
    1.6049    1.3341   -3.4357 C   0  0  0  0  0  0  0  0  0  0  0  0
    2.6406    2.2050   -3.6646 C   0  0  0  0  0  0  0  0  0  0  0  0
    4.0105    1.8713   -3.6913 C   0  0  0  0  0  0  0  0  0  0  0  0
    5.1441    1.6866   -3.7317 N   0  0  0  0  0  0  0  0  0  0  0  0
    2.4741    3.5842   -3.9106 C   0  0  0  0  0  0  0  0  0  0  0  0
    2.4108    4.7132   -4.1076 N   0  0  0  0  0  0  0  0  0  0  0  0
    1.6833   -0.0873   -3.1769 C   0  0  0  0  0  0  0  0  0  0  0  0
   -2.4592    4.1269   -3.6870 F   0  0  0  0  0  0  0  0  0  0  0  0
    2.8467   -0.8230   -3.1248 C   0  0  0  0  0  0  0  0  0  0  0  0
   -3.9120    1.8930   -3.1702 F   0  0  0  0  0  0  0  0  0  0  0  0
   -2.7158  -14.4591   -2.1056 C   0  0  0  0  0  0  0  0  0  0  0  0
   -2.5092  -13.2903   -2.3832 O   0  0  0  0  0  0  0  0  0  0  0  0
   -3.9736  -15.1973   -2.3538 C   0  0  0  0  0  0  0  0  0  0  0  0
   -5.1550  -14.7262   -2.8884 C   0  0  0  0  0  0  0  0  0  0  0  0
   -6.2067  -15.6205   -3.0103 C   0  0  0  0  0  0  0  0  0  0  0  0
   -6.0608  -16.9467   -2.6066 C   0  0  0  0  0  0  0  0  0  0  0  0
   -4.8704  -17.4204   -2.0730 C   0  0  0  0  0  0  0  0  0  0  0  0
   -3.8152  -16.5317   -1.9454 C   0  0  0  0  0  0  0  0  0  0  0  0
   -2.4564  -16.7033   -1.4235 C   0  0  0  0  0  0  0  0  0  0  0  0
   -1.9346  -17.8917   -0.9736 C   0  0  0  0  0  0  0  0  0  0  0  0
   -0.6281  -18.0843   -0.4811 C   0  0  0  0  0  0  0  0  0  0  0  0
    0.4166  -18.3269   -0.0671 N   0  0  0  0  0  0  0  0  0  0  0  0
   -2.6452  -19.1095   -0.9540 C   0  0  0  0  0  0  0  0  0  0  0  0
   -3.1650  -20.1323   -0.9098 N   0  0  0  0  0  0  0  0  0  0  0  0
   -1.8024  -15.4174   -1.4906 C   0  0  0  0  0  0  0  0  0  0  0  0
   -7.0935  -17.7888   -2.7334 F   0  0  0  0  0  0  0  0  0  0  0  0
   -0.5328  -15.1448   -1.0207 C   0  0  0  0  0  0  0  0  0  0  0  0
   -7.3748  -15.2048   -3.5189 F   0  0  0  0  0  0  0  0  0  0  0  0
    2.6386   -5.9370   -2.0460 C   0  0  0  0  0  0  0  0  0  0  0  0
    3.0201   -4.6118   -2.3754 C   0  0  0  0  0  0  0  0  0  0  0  0
    4.2984   -4.1342   -2.6381 C   0  0  0  0  0  0  0  0  0  0  0  0
    4.3374   -2.7784   -2.9100 C   0  0  0  0  0  0  0  0  0  0  0  0
    3.0606   -2.1807   -2.8868 C   0  0  0  0  0  0  0  0  0  0  0  0
    1.8278   -3.3673   -2.5140 S   0  0  0  0  0  0  0  0  0  0  0  0
    5.6069   -2.0651   -3.2478 C   0  0  0  0  0  0  0  0  0  0  0  0
    5.7766   -1.9299   -4.7637 C   0  0  0  0  0  0  0  0  0  0  0  0
    3.3950   -6.9412   -1.4407 C   0  0  0  0  0  0  0  0  0  0  0  0
    2.6584   -8.1459   -1.3726 C   0  0  0  0  0  0  0  0  0  0  0  0
    1.3582   -8.0493   -1.8453 C   0  0  0  0  0  0  0  0  0  0  0  0
    1.0001   -6.4565   -2.4146 S   0  0  0  0  0  0  0  0  0  0  0  0
    2.9931   -9.7215   -0.7506 S   0  0  0  0  0  0  0  0  0  0  0  0
    1.3602  -10.2635   -1.1620 C   0  0  0  0  0  0  0  0  0  0  0  0
    0.5865   -9.2277   -1.6956 C   0  0  0  0  0  0  0  0  0  0  0  0
    4.6545   -6.7829   -0.8963 N   0  0  0  0  0  0  0  0  0  0  0  0
    4.9989   -5.6102   -0.2050 C   0  0  0  0  0  0  0  0  0  0  0  0
    5.5322   -7.8804   -0.9056 C   0  0  0  0  0  0  0  0  0  0  0  0
    4.0421   -4.8930    0.5086 C   0  0  0  0  0  0  0  0  0  0  0  0
    4.3890   -3.7169    1.1445 C   0  0  0  0  0  0  0  0  0  0  0  0
    5.6904   -3.2467    1.0896 C   0  0  0  0  0  0  0  0  0  0  0  0
    6.6502   -3.9697    0.4011 C   0  0  0  0  0  0  0  0  0  0  0  0
    6.3111   -5.1424   -0.2455 C   0  0  0  0  0  0  0  0  0  0  0  0
    5.6336   -8.6748   -2.0457 C   0  0  0  0  0  0  0  0  0  0  0  0
    6.4821   -9.7653   -2.0565 C   0  0  0  0  0  0  0  0  0  0  0  0
    7.2423  -10.0699   -0.9401 C   0  0  0  0  0  0  0  0  0  0  0  0
    7.1493   -9.2761    0.1919 C   0  0  0  0  0  0  0  0  0  0  0  0
    6.2984   -8.1885    0.2159 C   0  0  0  0  0  0  0  0  0  0  0  0
   -0.7512   -9.2748   -2.0225 N   0  0  0  0  0  0  0  0  0  0  0  0
   -1.7055   -9.8672   -1.1861 C   0  0  0  0  0  0  0  0  0  0  0  0
   -1.1684   -8.5117   -3.1312 C   0  0  0  0  0  0  0  0  0  0  0  0
   -0.4443   -8.5810   -4.3187 C   0  0  0  0  0  0  0  0  0  0  0  0
   -0.8248   -7.8178   -5.4058 C   0  0  0  0  0  0  0  0  0  0  0  0
   -1.9290   -6.9862   -5.3221 C   0  0  0  0  0  0  0  0  0  0  0  0
   -2.6540   -6.9211   -4.1433 C   0  0  0  0  0  0  0  0  0  0  0  0
   -2.2787   -7.6761   -3.0490 C   0  0  0  0  0  0  0  0  0  0  0  0
   -1.4898   -9.9660    0.1872 C   0  0  0  0  0  0  0  0  0  0  0  0
   -2.4358  -10.5663    0.9954 C   0  0  0  0  0  0  0  0  0  0  0  0
   -3.6095  -11.0604    0.4521 C   0  0  0  0  0  0  0  0  0  0  0  0
   -3.8345  -10.9468   -0.9103 C   0  0  0  0  0  0  0  0  0  0  0  0
   -2.8919  -10.3594   -1.7287 C   0  0  0  0  0  0  0  0  0  0  0  0
    1.0700  -11.6331   -0.9866 C   0  0  0  0  0  0  0  0  0  0  0  0
   -0.3709  -12.3996   -1.5572 S   0  0  0  0  0  0  0  0  0  0  0  0
    0.1837  -13.9536   -0.9685 C   0  0  0  0  0  0  0  0  0  0  0  0
    1.4653  -13.8437   -0.3760 C   0  0  0  0  0  0  0  0  0  0  0  0
    1.9415  -12.5509   -0.3959 C   0  0  0  0  0  0  0  0  0  0  0  0
    2.1904  -15.0167    0.2077 C   0  0  0  0  0  0  0  0  0  0  0  0
    3.5662  -14.6782    0.7685 C   0  0  0  0  0  0  0  0  0  0  0  0
   -2.5245   -0.2997   -2.8519 H   0  0  0  0  0  0  0  0  0  0  0  0
    0.0839    3.8400   -3.8039 H   0  0  0  0  0  0  0  0  0  0  0  0
    3.7588   -0.2681   -3.2963 H   0  0  0  0  0  0  0  0  0  0  0  0
   -5.2616  -13.7003   -3.2024 H   0  0  0  0  0  0  0  0  0  0  0  0
   -4.8107  -18.4547   -1.7770 H   0  0  0  0  0  0  0  0  0  0  0  0
   -0.0034  -15.9857   -0.5939 H   0  0  0  0  0  0  0  0  0  0  0  0
    5.1693   -4.7629   -2.6622 H   0  0  0  0  0  0  0  0  0  0  0  0
    5.6298   -1.0735   -2.7935 H   0  0  0  0  0  0  0  0  0  0  0  0
    6.4426   -2.6381   -2.8424 H   0  0  0  0  0  0  0  0  0  0  0  0
    4.9591   -1.3562   -5.1933 H   0  0  0  0  0  0  0  0  0  0  0  0
    6.7087   -1.4189   -4.9875 H   0  0  0  0  0  0  0  0  0  0  0  0
    5.7928   -2.9112   -5.2326 H   0  0  0  0  0  0  0  0  0  0  0  0
    3.0280   -5.2592    0.5648 H   0  0  0  0  0  0  0  0  0  0  0  0
    3.6370   -3.1680    1.6910 H   0  0  0  0  0  0  0  0  0  0  0  0
    5.9561   -2.3253    1.5839 H   0  0  0  0  0  0  0  0  0  0  0  0
    7.6686   -3.6136    0.3581 H   0  0  0  0  0  0  0  0  0  0  0  0
    7.0581   -5.6999   -0.7920 H   0  0  0  0  0  0  0  0  0  0  0  0
    5.0487   -8.4276   -2.9200 H   0  0  0  0  0  0  0  0  0  0  0  0
    6.5538  -10.3755   -2.9442 H   0  0  0  0  0  0  0  0  0  0  0  0
    7.9056  -10.9211   -0.9516 H   0  0  0  0  0  0  0  0  0  0  0  0
    7.7369   -9.5107    1.0667 H   0  0  0  0  0  0  0  0  0  0  0  0
    6.2156   -7.5767    1.1018 H   0  0  0  0  0  0  0  0  0  0  0  0
    0.4105   -9.2389   -4.3807 H   0  0  0  0  0  0  0  0  0  0  0  0
   -0.2593   -7.8773   -6.3237 H   0  0  0  0  0  0  0  0  0  0  0  0
   -2.2236   -6.3905   -6.1722 H   0  0  0  0  0  0  0  0  0  0  0  0
   -3.5119   -6.2700   -4.0715 H   0  0  0  0  0  0  0  0  0  0  0  0
   -2.8338   -7.6170   -2.1248 H   0  0  0  0  0  0  0  0  0  0  0  0
   -0.5816   -9.5712    0.6190 H   0  0  0  0  0  0  0  0  0  0  0  0
   -2.2551  -10.6432    2.0574 H   0  0  0  0  0  0  0  0  0  0  0  0
   -4.3443  -11.5312    1.0873 H   0  0  0  0  0  0  0  0  0  0  0  0
   -4.7467  -11.3305   -1.3405 H   0  0  0  0  0  0  0  0  0  0  0  0
   -3.0549  -10.3000   -2.7930 H   0  0  0  0  0  0  0  0  0  0  0  0
    2.8909  -12.2450    0.0055 H   0  0  0  0  0  0  0  0  0  0  0  0
    1.5798  -15.4525    1.0042 H   0  0  0  0  0  0  0  0  0  0  0  0
    2.3002  -15.7851   -0.5632 H   0  0  0  0  0  0  0  0  0  0  0  0
    3.4893  -13.9557    1.5775 H   0  0  0  0  0  0  0  0  0  0  0  0
    4.0287  -15.5805    1.1601 H   0  0  0  0  0  0  0  0  0  0  0  0
    4.2118  -14.2717   -0.0065 H   0  0  0  0  0  0  0  0  0  0  0  0
  1  2  2  0  0  0  0
  3  4  1  0  0  0  0
  3  1  1  0  0  0  0
  4 85  1  0  0  0  0
  5 18  1  0  0  0  0
  5  4  2  0  0  0  0
  6  5  1  0  0  0  0
  7  6  2  0  0  0  0
  7  8  1  0  0  0  0
  8  3  2  0  0  0  0
  9  8  1  0  0  0  0
  9 15  1  0  0  0  0
 10  9  2  0  0  0  0
 11 10  1  0  0  0  0
 12 11  3  0  0  0  0
 13 10  1  0  0  0  0
 14 13  3  0  0  0  0
 15 17  2  0  0  0  0
 15  1  1  0  0  0  0
 16  6  1  0  0  0  0
 17 41  1  0  0  0  0
 19 33  1  0  0  0  0
 20 19  2  0  0  0  0
 21 19  1  0  0  0  0
 21 26  2  0  0  0  0
 22 21  1  0  0  0  0
 23 22  2  0  0  0  0
 23 24  1  0  0  0  0
 24 25  2  0  0  0  0
 25 26  1  0  0  0  0
 25 89  1  0  0  0  0
 26 27  1  0  0  0  0
 27 28  1  0  0  0  0
 28 31  1  0  0  0  0
 28 29  1  0  0  0  0
 29 30  3  0  0  0  0
 31 32  3  0  0  0  0
 33 27  2  0  0  0  0
 33 35  1  0  0  0  0
 34 24  1  0  0  0  0
 35 80  1  0  0  0  0
 35 90  1  0  0  0  0
 36 23  1  0  0  0  0
 37 45  2  0  0  0  0
 38 37  1  0  0  0  0
 39 38  2  0  0  0  0
 40 41  2  0  0  0  0
 40 39  1  0  0  0  0
 41 42  1  0  0  0  0
 42 38  1  0  0  0  0
 43 40  1  0  0  0  0
 43 93  1  0  0  0  0
 43 92  1  0  0  0  0
 44 43  1  0  0  0  0
 45 46  1  0  0  0  0
 45 52  1  0  0  0  0
 46 49  1  0  0  0  0
 47 51  1  0  0  0  0
 47 46  2  0  0  0  0
 48 37  1  0  0  0  0
 48 47  1  0  0  0  0
 50 78  1  0  0  0  0
 50 49  1  0  0  0  0
 51 50  2  0  0  0  0
 52 53  1  0  0  0  0
 53 55  1  0  0  0  0
 54 52  1  0  0  0  0
 54 64  2  0  0  0  0
 55 97  1  0  0  0  0
 55 56  2  0  0  0  0
 56 98  1  0  0  0  0
 57 56  1  0  0  0  0
 57 99  1  0  0  0  0
 58 57  2  0  0  0  0
 59 53  2  0  0  0  0
 59 58  1  0  0  0  0
 60 54  1  0  0  0  0
 61 60  2  0  0  0  0
 61 62  1  0  0  0  0
 62 63  2  0  0  0  0
 63 64  1  0  0  0  0
 63105  1  0  0  0  0
 64106  1  0  0  0  0
 65 51  1  0  0  0  0
 65 66  1  0  0  0  0
 66 73  1  0  0  0  0
 67 72  1  0  0  0  0
 67 65  1  0  0  0  0
 68 67  2  0  0  0  0
 69 70  2  0  0  0  0
 69 68  1  0  0  0  0
 70 71  1  0  0  0  0
 71110  1  0  0  0  0
 71 72  2  0  0  0  0
 72111  1  0  0  0  0
 73112  1  0  0  0  0
 73 74  2  0  0  0  0
 74113  1  0  0  0  0
 75 74  1  0  0  0  0
 75114  1  0  0  0  0
 76 75  2  0  0  0  0
 77 66  2  0  0  0  0
 77 76  1  0  0  0  0
 78 82  2  0  0  0  0
 79 78  1  0  0  0  0
 79 80  1  0  0  0  0
 80 81  2  0  0  0  0
 81 83  1  0  0  0  0
 82 81  1  0  0  0  0
 82117  1  0  0  0  0
 83 84  1  0  0  0  0
 83118  1  0  0  0  0
 84121  1  0  0  0  0
 84120  1  0  0  0  0
 86  7  1  0  0  0  0
 87 17  1  0  0  0  0
 88 22  1  0  0  0  0
 91 39  1  0  0  0  0
 94 44  1  0  0  0  0
 95 44  1  0  0  0  0
 96 44  1  0  0  0  0
100 58  1  0  0  0  0
101 59  1  0  0  0  0
102 60  1  0  0  0  0
103 61  1  0  0  0  0
104 62  1  0  0  0  0
107 68  1  0  0  0  0
108 69  1  0  0  0  0
109 70  1  0  0  0  0
115 76  1  0  0  0  0
116 77  1  0  0  0  0
119 83  1  0  0  0  0
122 84  1  0  0  0  0
M  RAD  2  28   2  35   2
M  END
