H1.sdf
  xtb     12222117003D
 energy: -328.738330186925 gnorm: 0.000188321426 xtb: 6.4.1 (unknown)
194215  0     0  0            999 V2000
    6.1276    2.2163    3.6083 C   0  0  0  0  0  0  0  0  0  0  0  0
    6.0803    2.1166    2.2281 C   0  0  0  0  0  0  0  0  0  0  0  0
    4.7883    1.9818    1.7242 C   0  0  0  0  0  0  0  0  0  0  0  0
    3.8179    1.9932    2.7028 C   0  0  0  0  0  0  0  0  0  0  0  0
    4.5121    2.1774    4.2748 S   0  0  0  0  0  0  0  0  0  0  0  0
    2.3896    1.8176    2.5542 C   0  0  0  0  0  0  0  0  0  0  0  0
    1.5147    2.3220    3.5249 C   0  0  0  0  0  0  0  0  0  0  0  0
    0.1601    2.0651    3.4608 C   0  0  0  0  0  0  0  0  0  0  0  0
   -0.3295    1.3208    2.3995 C   0  0  0  0  0  0  0  0  0  0  0  0
    0.5228    0.8750    1.3672 C   0  0  0  0  0  0  0  0  0  0  0  0
    1.8861    1.0860    1.4748 C   0  0  0  0  0  0  0  0  0  0  0  0
   -0.2312    0.0159    0.4452 C   0  0  0  0  0  0  0  0  0  0  0  0
   -1.5590   -0.1201    1.0488 C   0  0  0  0  0  0  0  0  0  0  0  0
   -1.6326    0.7436    2.1744 C   0  0  0  0  0  0  0  0  0  0  0  0
   -2.8035    0.9025    2.8922 C   0  0  0  0  0  0  0  0  0  0  0  0
   -3.9001    0.1298    2.5613 C   0  0  0  0  0  0  0  0  0  0  0  0
   -3.8355   -0.7656    1.4916 C   0  0  0  0  0  0  0  0  0  0  0  0
   -2.6888   -0.8313    0.6902 C   0  0  0  0  0  0  0  0  0  0  0  0
   -4.8910   -1.7427    1.3148 C   0  0  0  0  0  0  0  0  0  0  0  0
   -6.2399   -1.6354    1.5701 C   0  0  0  0  0  0  0  0  0  0  0  0
   -6.9171   -2.8479    1.4623 C   0  0  0  0  0  0  0  0  0  0  0  0
   -6.0892   -3.9159    1.1541 C   0  0  0  0  0  0  0  0  0  0  0  0
   -4.4480   -3.3650    0.9520 S   0  0  0  0  0  0  0  0  0  0  0  0
   -6.3149   -5.3168    1.1012 C   0  0  0  0  0  0  0  0  0  0  0  0
   -7.5040   -5.9884    1.2935 N   0  0  0  0  0  0  0  0  0  0  0  0
   -7.3162   -7.3857    1.3271 C   0  0  0  0  0  0  0  0  0  0  0  0
   -5.9006   -7.5717    1.1535 C   0  0  0  0  0  0  0  0  0  0  0  0
   -5.3202   -6.2836    0.9791 C   0  0  0  0  0  0  0  0  0  0  0  0
   -4.8787   -8.5147    1.2030 C   0  0  0  0  0  0  0  0  0  0  0  0
   -3.6918   -7.8358    1.0295 N   0  0  0  0  0  0  0  0  0  0  0  0
   -3.9004   -6.4498    0.8769 C   0  0  0  0  0  0  0  0  0  0  0  0
   -8.8276   -5.4584    1.5103 C   0  0  0  0  0  0  0  0  0  0  0  0
   -9.4509   -4.8955    0.2381 C   0  0  0  0  0  0  0  0  0  0  0  0
   -8.2346   -8.1677    1.4926 O   0  0  0  0  0  0  0  0  0  0  0  0
   -2.9885   -5.6577    0.7062 O   0  0  0  0  0  0  0  0  0  0  0  0
   -2.3474   -8.3574    1.0451 C   0  0  0  0  0  0  0  0  0  0  0  0
   -1.9404   -8.9772   -0.2883 C   0  0  0  0  0  0  0  0  0  0  0  0
   -5.0492   -9.9109    1.4216 C   0  0  0  0  0  0  0  0  0  0  0  0
   -3.7582  -11.0794    1.5684 S   0  0  0  0  0  0  0  0  0  0  0  0
   -4.8764  -12.3524    1.8089 C   0  0  0  0  0  0  0  0  0  0  0  0
   -6.1667  -11.9173    1.7810 C   0  0  0  0  0  0  0  0  0  0  0  0
   -6.2708  -10.5371    1.5617 C   0  0  0  0  0  0  0  0  0  0  0  0
    7.2059    2.2793    4.5321 C   0  0  0  0  0  0  0  0  0  0  0  0
    8.5572    2.2829    4.2578 N   0  0  0  0  0  0  0  0  0  0  0  0
    9.3320    2.2709    5.4368 C   0  0  0  0  0  0  0  0  0  0  0  0
    8.3716    2.2554    6.5078 C   0  0  0  0  0  0  0  0  0  0  0  0
    7.0777    2.2737    5.9162 C   0  0  0  0  0  0  0  0  0  0  0  0
    8.2213    2.2081    7.8913 C   0  0  0  0  0  0  0  0  0  0  0  0
    6.8702    2.2164    8.1545 N   0  0  0  0  0  0  0  0  0  0  0  0
    6.1064    2.2528    6.9706 C   0  0  0  0  0  0  0  0  0  0  0  0
    9.2183    2.3643    2.9795 C   0  0  0  0  0  0  0  0  0  0  0  0
    9.1339    3.7672    2.3831 C   0  0  0  0  0  0  0  0  0  0  0  0
   10.5499    2.2672    5.4201 O   0  0  0  0  0  0  0  0  0  0  0  0
    4.8881    2.2746    6.9641 O   0  0  0  0  0  0  0  0  0  0  0  0
    6.1949    2.1182    9.4246 C   0  0  0  0  0  0  0  0  0  0  0  0
    6.0940    0.6721    9.9034 C   0  0  0  0  0  0  0  0  0  0  0  0
    9.2820    2.1657    8.8395 C   0  0  0  0  0  0  0  0  0  0  0  0
    9.0886    2.1179   10.5759 S   0  0  0  0  0  0  0  0  0  0  0  0
   10.7836    2.0807   10.8084 C   0  0  0  0  0  0  0  0  0  0  0  0
   11.4669    2.1055    9.6303 C   0  0  0  0  0  0  0  0  0  0  0  0
   10.6228    2.1543    8.5127 C   0  0  0  0  0  0  0  0  0  0  0  0
   -4.2077   -5.6480   -2.4444 C   0  0  0  0  0  0  0  0  0  0  0  0
   -3.2203   -6.5750   -2.7388 C   0  0  0  0  0  0  0  0  0  0  0  0
   -1.9306   -6.0546   -2.6586 C   0  0  0  0  0  0  0  0  0  0  0  0
   -1.9017   -4.7338   -2.2703 C   0  0  0  0  0  0  0  0  0  0  0  0
   -3.4883   -4.1198   -2.0149 S   0  0  0  0  0  0  0  0  0  0  0  0
   -0.7934   -3.8005   -2.2404 C   0  0  0  0  0  0  0  0  0  0  0  0
    0.1931   -3.8725   -3.2262 C   0  0  0  0  0  0  0  0  0  0  0  0
    1.1194   -2.8563   -3.3625 C   0  0  0  0  0  0  0  0  0  0  0  0
    1.0268   -1.7517   -2.5363 C   0  0  0  0  0  0  0  0  0  0  0  0
    0.0660   -1.6800   -1.4922 C   0  0  0  0  0  0  0  0  0  0  0  0
   -0.8059   -2.7397   -1.3261 C   0  0  0  0  0  0  0  0  0  0  0  0
    0.2941   -0.4479   -0.7340 C   0  0  0  0  0  0  0  0  0  0  0  0
    1.3317    0.2753   -1.4807 C   0  0  0  0  0  0  0  0  0  0  0  0
    1.7764   -0.5189   -2.5589 C   0  0  0  0  0  0  0  0  0  0  0  0
    2.6817   -0.0262   -3.4850 C   0  0  0  0  0  0  0  0  0  0  0  0
    3.1102    1.2806   -3.3679 C   0  0  0  0  0  0  0  0  0  0  0  0
    2.6200    2.1100   -2.3510 C   0  0  0  0  0  0  0  0  0  0  0  0
    1.7200    1.6014   -1.4102 C   0  0  0  0  0  0  0  0  0  0  0  0
    2.9934    3.5070   -2.3087 C   0  0  0  0  0  0  0  0  0  0  0  0
    2.9996    4.3564   -1.2232 C   0  0  0  0  0  0  0  0  0  0  0  0
    3.3599    5.6625   -1.5477 C   0  0  0  0  0  0  0  0  0  0  0  0
    3.6212    5.8452   -2.8950 C   0  0  0  0  0  0  0  0  0  0  0  0
    3.4445    4.3349   -3.7573 S   0  0  0  0  0  0  0  0  0  0  0  0
    3.9351    6.9973   -3.6660 C   0  0  0  0  0  0  0  0  0  0  0  0
    4.0850    8.2955   -3.2258 N   0  0  0  0  0  0  0  0  0  0  0  0
    4.3218    9.1873   -4.2930 C   0  0  0  0  0  0  0  0  0  0  0  0
    4.3104    8.3621   -5.4713 C   0  0  0  0  0  0  0  0  0  0  0  0
    4.0810    7.0231   -5.0481 C   0  0  0  0  0  0  0  0  0  0  0  0
    4.4184    8.3717   -6.8595 C   0  0  0  0  0  0  0  0  0  0  0  0
    4.2772    7.0711   -7.2877 N   0  0  0  0  0  0  0  0  0  0  0  0
    4.0617    6.1862   -6.2120 C   0  0  0  0  0  0  0  0  0  0  0  0
    4.0939    8.7956   -1.8740 C   0  0  0  0  0  0  0  0  0  0  0  0
    5.3936    8.4543   -1.1493 C   0  0  0  0  0  0  0  0  0  0  0  0
    4.4784   10.3834   -4.1243 O   0  0  0  0  0  0  0  0  0  0  0  0
    3.9179    4.9848   -6.3560 O   0  0  0  0  0  0  0  0  0  0  0  0
    4.2521    6.5602   -8.6357 C   0  0  0  0  0  0  0  0  0  0  0  0
    2.8798    6.7302   -9.2824 C   0  0  0  0  0  0  0  0  0  0  0  0
    4.6423    9.5234   -7.6652 C   0  0  0  0  0  0  0  0  0  0  0  0
    4.7950    9.5294   -9.4063 S   0  0  0  0  0  0  0  0  0  0  0  0
    5.0204   11.2256   -9.4254 C   0  0  0  0  0  0  0  0  0  0  0  0
    4.9842   11.7653   -8.1752 C   0  0  0  0  0  0  0  0  0  0  0  0
    4.7712   10.8071   -7.1750 C   0  0  0  0  0  0  0  0  0  0  0  0
   -5.6232   -5.6921   -2.5482 C   0  0  0  0  0  0  0  0  0  0  0  0
   -6.4092   -6.7589   -2.9305 N   0  0  0  0  0  0  0  0  0  0  0  0
   -7.7619   -6.3871   -3.0745 C   0  0  0  0  0  0  0  0  0  0  0  0
   -7.7930   -4.9824   -2.7669 C   0  0  0  0  0  0  0  0  0  0  0  0
   -6.4702   -4.5953   -2.4105 C   0  0  0  0  0  0  0  0  0  0  0  0
   -8.5943   -3.8454   -2.7952 C   0  0  0  0  0  0  0  0  0  0  0  0
   -7.7992   -2.7797   -2.4321 N   0  0  0  0  0  0  0  0  0  0  0  0
   -6.4732   -3.1820   -2.1726 C   0  0  0  0  0  0  0  0  0  0  0  0
   -6.0225   -8.1136   -3.2389 C   0  0  0  0  0  0  0  0  0  0  0  0
   -5.6777   -8.9239   -1.9947 C   0  0  0  0  0  0  0  0  0  0  0  0
   -8.6272   -7.1749   -3.4109 O   0  0  0  0  0  0  0  0  0  0  0  0
   -5.5994   -2.4022   -1.8311 O   0  0  0  0  0  0  0  0  0  0  0  0
   -8.1498   -1.3831   -2.3522 C   0  0  0  0  0  0  0  0  0  0  0  0
   -8.8578   -1.0271   -1.0485 C   0  0  0  0  0  0  0  0  0  0  0  0
   -9.9695   -3.8094   -3.1610 C   0  0  0  0  0  0  0  0  0  0  0  0
  -10.9491   -2.3674   -3.2822 S   0  0  0  0  0  0  0  0  0  0  0  0
  -12.3165   -3.2811   -3.7558 C   0  0  0  0  0  0  0  0  0  0  0  0
  -12.0478   -4.6147   -3.8213 C   0  0  0  0  0  0  0  0  0  0  0  0
  -10.7219   -4.9197   -3.4855 C   0  0  0  0  0  0  0  0  0  0  0  0
    6.9414    2.1311    1.5880 H   0  0  0  0  0  0  0  0  0  0  0  0
    4.5728    1.8975    0.6731 H   0  0  0  0  0  0  0  0  0  0  0  0
    1.9223    2.8883    4.3493 H   0  0  0  0  0  0  0  0  0  0  0  0
   -0.4991    2.4108    4.2425 H   0  0  0  0  0  0  0  0  0  0  0  0
    2.5731    0.6565    0.7632 H   0  0  0  0  0  0  0  0  0  0  0  0
   -2.8488    1.5936    3.7204 H   0  0  0  0  0  0  0  0  0  0  0  0
   -4.7996    0.1820    3.1558 H   0  0  0  0  0  0  0  0  0  0  0  0
   -2.7344   -1.4429   -0.1938 H   0  0  0  0  0  0  0  0  0  0  0  0
   -6.7223   -0.7042    1.8127 H   0  0  0  0  0  0  0  0  0  0  0  0
   -7.9744   -2.9308    1.6295 H   0  0  0  0  0  0  0  0  0  0  0  0
   -8.7979   -4.7094    2.3068 H   0  0  0  0  0  0  0  0  0  0  0  0
   -9.4233   -6.3085    1.8583 H   0  0  0  0  0  0  0  0  0  0  0  0
   -9.5210   -5.6739   -0.5176 H   0  0  0  0  0  0  0  0  0  0  0  0
  -10.4515   -4.5272    0.4499 H   0  0  0  0  0  0  0  0  0  0  0  0
   -8.8513   -4.0819   -0.1603 H   0  0  0  0  0  0  0  0  0  0  0  0
   -1.7026   -7.4972    1.2513 H   0  0  0  0  0  0  0  0  0  0  0  0
   -2.2426   -9.0802    1.8581 H   0  0  0  0  0  0  0  0  0  0  0  0
   -2.6093   -9.7882   -0.5656 H   0  0  0  0  0  0  0  0  0  0  0  0
   -0.9312   -9.3717   -0.2118 H   0  0  0  0  0  0  0  0  0  0  0  0
   -1.9620   -8.2174   -1.0641 H   0  0  0  0  0  0  0  0  0  0  0  0
   -4.5087  -13.3481    1.9599 H   0  0  0  0  0  0  0  0  0  0  0  0
   -7.0142  -12.5653    1.9128 H   0  0  0  0  0  0  0  0  0  0  0  0
   -7.2040  -10.0055    1.5136 H   0  0  0  0  0  0  0  0  0  0  0  0
    8.8079    1.6126    2.3008 H   0  0  0  0  0  0  0  0  0  0  0  0
   10.2661    2.1168    3.1772 H   0  0  0  0  0  0  0  0  0  0  0  0
    9.6328    3.7894    1.4179 H   0  0  0  0  0  0  0  0  0  0  0  0
    9.6251    4.4767    3.0446 H   0  0  0  0  0  0  0  0  0  0  0  0
    8.0994    4.0766    2.2530 H   0  0  0  0  0  0  0  0  0  0  0  0
    6.6978    2.7434   10.1655 H   0  0  0  0  0  0  0  0  0  0  0  0
    5.1879    2.5114    9.2536 H   0  0  0  0  0  0  0  0  0  0  0  0
    5.5395    0.0831    9.1769 H   0  0  0  0  0  0  0  0  0  0  0  0
    5.5719    0.6361   10.8551 H   0  0  0  0  0  0  0  0  0  0  0  0
    7.0803    0.2325   10.0303 H   0  0  0  0  0  0  0  0  0  0  0  0
   11.1723    2.0452   11.8070 H   0  0  0  0  0  0  0  0  0  0  0  0
   12.5399    2.0877    9.5668 H   0  0  0  0  0  0  0  0  0  0  0  0
   10.9708    2.1794    7.4957 H   0  0  0  0  0  0  0  0  0  0  0  0
   -3.4114   -7.5915   -3.0266 H   0  0  0  0  0  0  0  0  0  0  0  0
   -1.0436   -6.6291   -2.8634 H   0  0  0  0  0  0  0  0  0  0  0  0
    0.1999   -4.7081   -3.9096 H   0  0  0  0  0  0  0  0  0  0  0  0
    1.8820   -2.9075   -4.1251 H   0  0  0  0  0  0  0  0  0  0  0  0
   -1.5055   -2.7942   -0.5105 H   0  0  0  0  0  0  0  0  0  0  0  0
    3.0230   -0.6417   -4.3035 H   0  0  0  0  0  0  0  0  0  0  0  0
    3.8065    1.6910   -4.0843 H   0  0  0  0  0  0  0  0  0  0  0  0
    1.3058    2.2633   -0.6665 H   0  0  0  0  0  0  0  0  0  0  0  0
    2.7697    4.0420   -0.2199 H   0  0  0  0  0  0  0  0  0  0  0  0
    3.4165    6.4370   -0.8072 H   0  0  0  0  0  0  0  0  0  0  0  0
    3.2208    8.4211   -1.3342 H   0  0  0  0  0  0  0  0  0  0  0  0
    4.0046    9.8828   -1.9649 H   0  0  0  0  0  0  0  0  0  0  0  0
    6.2324    8.9149   -1.6654 H   0  0  0  0  0  0  0  0  0  0  0  0
    5.3607    8.8345   -0.1317 H   0  0  0  0  0  0  0  0  0  0  0  0
    5.5556    7.3792   -1.1195 H   0  0  0  0  0  0  0  0  0  0  0  0
    5.0300    7.0411   -9.2329 H   0  0  0  0  0  0  0  0  0  0  0  0
    4.4797    5.4930   -8.5501 H   0  0  0  0  0  0  0  0  0  0  0  0
    2.1320    6.1945   -8.7026 H   0  0  0  0  0  0  0  0  0  0  0  0
    2.5982    7.7792   -9.3322 H   0  0  0  0  0  0  0  0  0  0  0  0
    2.8966    6.3262  -10.2905 H   0  0  0  0  0  0  0  0  0  0  0  0
    5.1691   11.7215  -10.3643 H   0  0  0  0  0  0  0  0  0  0  0  0
    5.1051   12.8153   -7.9788 H   0  0  0  0  0  0  0  0  0  0  0  0
    4.7108   11.0348   -6.1259 H   0  0  0  0  0  0  0  0  0  0  0  0
   -5.1946   -8.1058   -3.9537 H   0  0  0  0  0  0  0  0  0  0  0  0
   -6.8960   -8.5569   -3.7278 H   0  0  0  0  0  0  0  0  0  0  0  0
   -4.8471   -8.4747   -1.4575 H   0  0  0  0  0  0  0  0  0  0  0  0
   -5.4089   -9.9383   -2.2784 H   0  0  0  0  0  0  0  0  0  0  0  0
   -6.5360   -8.9664   -1.3288 H   0  0  0  0  0  0  0  0  0  0  0  0
   -8.7614   -1.1073   -3.2149 H   0  0  0  0  0  0  0  0  0  0  0  0
   -7.2006   -0.8402   -2.4035 H   0  0  0  0  0  0  0  0  0  0  0  0
   -8.1949   -1.2205   -0.2102 H   0  0  0  0  0  0  0  0  0  0  0  0
   -9.1185    0.0274   -1.0535 H   0  0  0  0  0  0  0  0  0  0  0  0
   -9.7680   -1.6083   -0.9237 H   0  0  0  0  0  0  0  0  0  0  0  0
  -13.2379   -2.7728   -3.9605 H   0  0  0  0  0  0  0  0  0  0  0  0
  -12.7769   -5.3536   -4.1003 H   0  0  0  0  0  0  0  0  0  0  0  0
  -10.3163   -5.9153   -3.4853 H   0  0  0  0  0  0  0  0  0  0  0  0
  1  2  2  0  0  0  0
  2  3  1  0  0  0  0
  3  4  2  0  0  0  0
  4  5  1  0  0  0  0
  1  5  1  0  0  0  0
  4  6  1  0  0  0  0
  6  7  2  0  0  0  0
  7  8  1  0  0  0  0
  8  9  2  0  0  0  0
  9 10  1  0  0  0  0
 10 11  2  0  0  0  0
  6 11  1  0  0  0  0
 10 12  1  0  0  0  0
 12 13  1  0  0  0  0
 13 14  2  0  0  0  0
  9 14  1  0  0  0  0
 14 15  1  0  0  0  0
 15 16  2  0  0  0  0
 16 17  1  0  0  0  0
 17 18  2  0  0  0  0
 13 18  1  0  0  0  0
 17 19  1  0  0  0  0
 19 20  2  0  0  0  0
 20 21  1  0  0  0  0
 21 22  2  0  0  0  0
 22 23  1  0  0  0  0
 19 23  1  0  0  0  0
 22 24  1  0  0  0  0
 24 25  1  0  0  0  0
 25 26  1  0  0  0  0
 26 27  1  0  0  0  0
 27 28  1  0  0  0  0
 28 24  2  0  0  0  0
 27 29  2  0  0  0  0
 29 30  1  0  0  0  0
 30 31  1  0  0  0  0
 31 28  1  0  0  0  0
 25 32  1  0  0  0  0
 32 33  1  0  0  0  0
 26 34  2  0  0  0  0
 31 35  2  0  0  0  0
 30 36  1  0  0  0  0
 36 37  1  0  0  0  0
 29 38  1  0  0  0  0
 38 39  1  0  0  0  0
 39 40  1  0  0  0  0
 40 41  2  0  0  0  0
 41 42  1  0  0  0  0
 42 38  2  0  0  0  0
 43 44  1  0  0  0  0
 44 45  1  0  0  0  0
 45 46  1  0  0  0  0
 46 47  1  0  0  0  0
 47 43  2  0  0  0  0
 46 48  2  0  0  0  0
 48 49  1  0  0  0  0
 49 50  1  0  0  0  0
 50 47  1  0  0  0  0
 44 51  1  0  0  0  0
 51 52  1  0  0  0  0
 45 53  2  0  0  0  0
 50 54  2  0  0  0  0
 49 55  1  0  0  0  0
 55 56  1  0  0  0  0
 48 57  1  0  0  0  0
 57 58  1  0  0  0  0
 58 59  1  0  0  0  0
 59 60  2  0  0  0  0
 60 61  1  0  0  0  0
 61 57  2  0  0  0  0
  1 43  1  0  0  0  0
 62 63  2  0  0  0  0
 63 64  1  0  0  0  0
 64 65  2  0  0  0  0
 65 66  1  0  0  0  0
 62 66  1  0  0  0  0
 65 67  1  0  0  0  0
 67 68  2  0  0  0  0
 68 69  1  0  0  0  0
 69 70  2  0  0  0  0
 70 71  1  0  0  0  0
 71 72  2  0  0  0  0
 67 72  1  0  0  0  0
 71 73  1  0  0  0  0
 73 74  1  0  0  0  0
 74 75  2  0  0  0  0
 70 75  1  0  0  0  0
 75 76  1  0  0  0  0
 76 77  2  0  0  0  0
 77 78  1  0  0  0  0
 78 79  2  0  0  0  0
 74 79  1  0  0  0  0
 78 80  1  0  0  0  0
 80 81  2  0  0  0  0
 81 82  1  0  0  0  0
 82 83  2  0  0  0  0
 83 84  1  0  0  0  0
 80 84  1  0  0  0  0
 83 85  1  0  0  0  0
 85 86  1  0  0  0  0
 86 87  1  0  0  0  0
 87 88  1  0  0  0  0
 88 89  1  0  0  0  0
 89 85  2  0  0  0  0
 88 90  2  0  0  0  0
 90 91  1  0  0  0  0
 91 92  1  0  0  0  0
 92 89  1  0  0  0  0
 86 93  1  0  0  0  0
 93 94  1  0  0  0  0
 87 95  2  0  0  0  0
 92 96  2  0  0  0  0
 91 97  1  0  0  0  0
 97 98  1  0  0  0  0
 90 99  1  0  0  0  0
 99100  1  0  0  0  0
100101  1  0  0  0  0
101102  2  0  0  0  0
102103  1  0  0  0  0
103 99  2  0  0  0  0
104105  1  0  0  0  0
105106  1  0  0  0  0
106107  1  0  0  0  0
107108  1  0  0  0  0
108104  2  0  0  0  0
107109  2  0  0  0  0
109110  1  0  0  0  0
110111  1  0  0  0  0
111108  1  0  0  0  0
105112  1  0  0  0  0
112113  1  0  0  0  0
106114  2  0  0  0  0
111115  2  0  0  0  0
110116  1  0  0  0  0
116117  1  0  0  0  0
109118  1  0  0  0  0
118119  1  0  0  0  0
119120  1  0  0  0  0
120121  2  0  0  0  0
121122  1  0  0  0  0
122118  2  0  0  0  0
 62104  1  0  0  0  0
 12 73  2  0  0  0  0
  2123  1  0  0  0  0
  3124  1  0  0  0  0
  7125  1  0  0  0  0
  8126  1  0  0  0  0
 11127  1  0  0  0  0
 15128  1  0  0  0  0
 16129  1  0  0  0  0
 18130  1  0  0  0  0
 20131  1  0  0  0  0
 21132  1  0  0  0  0
 32133  1  0  0  0  0
 32134  1  0  0  0  0
 33135  1  0  0  0  0
 33136  1  0  0  0  0
 33137  1  0  0  0  0
 36138  1  0  0  0  0
 36139  1  0  0  0  0
 37140  1  0  0  0  0
 37141  1  0  0  0  0
 37142  1  0  0  0  0
 40143  1  0  0  0  0
 41144  1  0  0  0  0
 42145  1  0  0  0  0
 51146  1  0  0  0  0
 51147  1  0  0  0  0
 52148  1  0  0  0  0
 52149  1  0  0  0  0
 52150  1  0  0  0  0
 55151  1  0  0  0  0
 55152  1  0  0  0  0
 56153  1  0  0  0  0
 56154  1  0  0  0  0
 56155  1  0  0  0  0
 59156  1  0  0  0  0
 60157  1  0  0  0  0
 61158  1  0  0  0  0
 63159  1  0  0  0  0
 64160  1  0  0  0  0
 68161  1  0  0  0  0
 69162  1  0  0  0  0
 72163  1  0  0  0  0
 76164  1  0  0  0  0
 77165  1  0  0  0  0
 79166  1  0  0  0  0
 81167  1  0  0  0  0
 82168  1  0  0  0  0
 93169  1  0  0  0  0
 93170  1  0  0  0  0
 94171  1  0  0  0  0
 94172  1  0  0  0  0
 94173  1  0  0  0  0
 97174  1  0  0  0  0
 97175  1  0  0  0  0
 98176  1  0  0  0  0
 98177  1  0  0  0  0
 98178  1  0  0  0  0
101179  1  0  0  0  0
102180  1  0  0  0  0
103181  1  0  0  0  0
112182  1  0  0  0  0
112183  1  0  0  0  0
113184  1  0  0  0  0
113185  1  0  0  0  0
113186  1  0  0  0  0
116187  1  0  0  0  0
116188  1  0  0  0  0
117189  1  0  0  0  0
117190  1  0  0  0  0
117191  1  0  0  0  0
120192  1  0  0  0  0
121193  1  0  0  0  0
122194  1  0  0  0  0
M  END
