SCF done       -246.094396632056          0.000580304681
 OpenBabel12282109493D

148162  0  0  0  0  0  0  0  0999 V2000
   -0.8175   -4.2175   -2.3634 C   0  0  0  0  0  0  0  0  0  0  0  0
    0.6083   -4.0366   -2.3114 C   0  0  0  0  0  0  0  0  0  0  0  0
    1.5986   -4.4493   -3.6966 S   0  0  0  0  0  0  0  0  0  0  0  0
    3.0048   -3.9510   -2.8446 C   0  0  0  0  0  0  0  0  0  0  0  0
    2.7197   -3.5101   -1.5687 C   0  0  0  0  0  0  0  0  0  0  0  0
    1.3579   -3.5729   -1.2551 C   0  0  0  0  0  0  0  0  0  0  0  0
    4.4029   -3.8245   -3.1308 C   0  0  0  0  0  0  0  0  0  0  0  0
    5.0084   -3.2857   -1.9734 C   0  0  0  0  0  0  0  0  0  0  0  0
    3.9877   -3.1007   -0.8613 C   0  0  0  0  0  0  0  0  0  0  0  0
    5.1354   -4.1026   -4.2800 C   0  0  0  0  0  0  0  0  0  0  0  0
    6.4781   -3.8013   -4.2574 C   0  0  0  0  0  0  0  0  0  0  0  0
    7.0700   -3.2049   -3.1212 C   0  0  0  0  0  0  0  0  0  0  0  0
    6.3437   -2.9552   -1.9610 C   0  0  0  0  0  0  0  0  0  0  0  0
    7.4985   -3.9783   -5.3714 C   0  0  0  0  0  0  0  0  0  0  0  0
    8.7105   -3.3267   -4.7536 C   0  0  0  0  0  0  0  0  0  0  0  0
    8.4337   -2.9304   -3.4578 C   0  0  0  0  0  0  0  0  0  0  0  0
   10.0182   -3.0436   -5.1444 C   0  0  0  0  0  0  0  0  0  0  0  0
   10.7267   -2.4141   -4.1414 C   0  0  0  0  0  0  0  0  0  0  0  0
    9.7756   -2.1822   -2.6911 S   0  0  0  0  0  0  0  0  0  0  0  0
    4.0063   -1.6518   -0.4212 C   0  0  0  0  0  0  0  0  0  0  0  0
    4.1829   -4.0578    0.3010 C   0  0  0  0  0  0  0  0  0  0  0  0
    7.8534   -5.4301   -5.6396 C   0  0  0  0  0  0  0  0  0  0  0  0
    6.9862   -3.2875   -6.6183 C   0  0  0  0  0  0  0  0  0  0  0  0
    5.0395   -5.1461    0.2219 C   0  0  0  0  0  0  0  0  0  0  0  0
    5.1511   -6.0282    1.2816 C   0  0  0  0  0  0  0  0  0  0  0  0
    4.4082   -5.8531    2.4406 C   0  0  0  0  0  0  0  0  0  0  0  0
    3.5439   -4.7679    2.5111 C   0  0  0  0  0  0  0  0  0  0  0  0
    3.4307   -3.8827    1.4568 C   0  0  0  0  0  0  0  0  0  0  0  0
    3.2435   -0.6994   -1.0828 C   0  0  0  0  0  0  0  0  0  0  0  0
    3.2946    0.6293   -0.7040 C   0  0  0  0  0  0  0  0  0  0  0  0
    4.1205    1.0443    0.3316 C   0  0  0  0  0  0  0  0  0  0  0  0
    4.8972    0.0911    0.9776 C   0  0  0  0  0  0  0  0  0  0  0  0
    4.8450   -1.2389    0.6065 C   0  0  0  0  0  0  0  0  0  0  0  0
    7.2739   -1.9537   -6.8706 C   0  0  0  0  0  0  0  0  0  0  0  0
    6.7599   -1.3246   -7.9898 C   0  0  0  0  0  0  0  0  0  0  0  0
    5.9372   -2.0047   -8.8770 C   0  0  0  0  0  0  0  0  0  0  0  0
    5.6434   -3.3366   -8.6147 C   0  0  0  0  0  0  0  0  0  0  0  0
    6.1573   -3.9706   -7.5000 C   0  0  0  0  0  0  0  0  0  0  0  0
    7.4960   -6.4490   -4.7692 C   0  0  0  0  0  0  0  0  0  0  0  0
    7.8775   -7.7542   -5.0247 C   0  0  0  0  0  0  0  0  0  0  0  0
    8.6318   -8.0732   -6.1449 C   0  0  0  0  0  0  0  0  0  0  0  0
    8.9963   -7.0472   -7.0080 C   0  0  0  0  0  0  0  0  0  0  0  0
    8.6172   -5.7431   -6.7581 C   0  0  0  0  0  0  0  0  0  0  0  0
    4.4976   -6.8430    3.5662 C   0  0  0  0  0  0  0  0  0  0  0  0
    3.5204   -7.9982    3.3394 C   0  0  0  0  0  0  0  0  0  0  0  0
    4.1408    2.4789    0.7747 C   0  0  0  0  0  0  0  0  0  0  0  0
    3.1159    2.7086    1.8873 C   0  0  0  0  0  0  0  0  0  0  0  0
    9.0016   -9.4974   -6.4443 C   0  0  0  0  0  0  0  0  0  0  0  0
    7.9177  -10.1626   -7.2951 C   0  0  0  0  0  0  0  0  0  0  0  0
    5.4172   -1.3345  -10.1162 C   0  0  0  0  0  0  0  0  0  0  0  0
    6.3822   -1.5478  -11.2842 C   0  0  0  0  0  0  0  0  0  0  0  0
   -1.4598   -5.7295   -2.9698 S   0  0  0  0  0  0  0  0  0  0  0  0
   -3.0533   -5.2679   -2.5844 C   0  0  0  0  0  0  0  0  0  0  0  0
   -3.1299   -3.9902   -2.1003 C   0  0  0  0  0  0  0  0  0  0  0  0
   -1.8328   -3.3839   -1.9635 C   0  0  0  0  0  0  0  0  0  0  0  0
   -4.3612   -3.3296   -1.7492 C   0  0  0  0  0  0  0  0  0  0  0  0
   -1.7495   -2.1424   -1.4239 O   0  0  0  0  0  0  0  0  0  0  0  0
   -0.7495   -1.2637   -1.8992 C   0  0  0  0  0  0  0  0  0  0  0  0
   -4.6592   -2.0556   -2.0949 C   0  0  0  0  0  0  0  0  0  0  0  0
   -3.9017   -1.2700   -3.1196 C   0  0  0  0  0  0  0  0  0  0  0  0
   -4.5658    0.0402   -3.1539 C   0  0  0  0  0  0  0  0  0  0  0  0
   -5.6967    0.0288   -2.2743 C   0  0  0  0  0  0  0  0  0  0  0  0
   -5.7898   -1.2629   -1.6265 C   0  0  0  0  0  0  0  0  0  0  0  0
   -4.4083    1.2196   -3.8060 C   0  0  0  0  0  0  0  0  0  0  0  0
   -5.6364    2.3407   -3.3469 S   0  0  0  0  0  0  0  0  0  0  0  0
   -6.3747    1.2105   -2.2760 C   0  0  0  0  0  0  0  0  0  0  0  0
   -3.0124   -1.6633   -3.8386 O   0  0  0  0  0  0  0  0  0  0  0  0
   -6.7524   -1.6140   -0.7199 C   0  0  0  0  0  0  0  0  0  0  0  0
   -7.7699   -0.7102   -0.3470 C   0  0  0  0  0  0  0  0  0  0  0  0
   -6.8585   -2.8613   -0.0734 C   0  0  0  0  0  0  0  0  0  0  0  0
   -7.0022   -3.8552    0.4832 N   0  0  0  0  0  0  0  0  0  0  0  0
   -8.6015    0.0172   -0.0375 N   0  0  0  0  0  0  0  0  0  0  0  0
   12.0547   -1.9059   -4.2036 C   0  0  0  0  0  0  0  0  0  0  0  0
   12.9943   -1.9663   -5.6735 S   0  0  0  0  0  0  0  0  0  0  0  0
   14.2778   -1.1067   -4.9607 C   0  0  0  0  0  0  0  0  0  0  0  0
   14.0343   -0.7641   -3.6472 C   0  0  0  0  0  0  0  0  0  0  0  0
   12.7516   -1.2556   -3.2142 C   0  0  0  0  0  0  0  0  0  0  0  0
   14.8430   -0.0175   -2.7433 C   0  0  0  0  0  0  0  0  0  0  0  0
   12.2315   -1.0481   -1.9664 O   0  0  0  0  0  0  0  0  0  0  0  0
   12.5700   -2.0374   -1.0011 C   0  0  0  0  0  0  0  0  0  0  0  0
   15.9792    0.7124   -2.9195 C   0  0  0  0  0  0  0  0  0  0  0  0
   16.6602    1.0855   -4.1925 C   0  0  0  0  0  0  0  0  0  0  0  0
   17.5891    2.1620   -3.8215 C   0  0  0  0  0  0  0  0  0  0  0  0
   17.5582    2.3637   -2.4048 C   0  0  0  0  0  0  0  0  0  0  0  0
   16.6283    1.4225   -1.8197 C   0  0  0  0  0  0  0  0  0  0  0  0
   18.4550    2.9886   -4.4607 C   0  0  0  0  0  0  0  0  0  0  0  0
   19.2427    4.0331   -3.3369 S   0  0  0  0  0  0  0  0  0  0  0  0
   18.4062    3.3467   -1.9946 C   0  0  0  0  0  0  0  0  0  0  0  0
   16.4982    0.6256   -5.3018 O   0  0  0  0  0  0  0  0  0  0  0  0
   16.4824    1.2102   -0.4748 C   0  0  0  0  0  0  0  0  0  0  0  0
   17.1869    1.9912    0.4656 C   0  0  0  0  0  0  0  0  0  0  0  0
   15.7062    0.1957    0.1184 C   0  0  0  0  0  0  0  0  0  0  0  0
   15.1247   -0.6351    0.6581 N   0  0  0  0  0  0  0  0  0  0  0  0
   17.7497    2.6260    1.2381 N   0  0  0  0  0  0  0  0  0  0  0  0
    0.9296   -3.3235   -0.3008 H   0  0  0  0  0  0  0  0  0  0  0  0
    4.6596   -4.5262   -5.1510 H   0  0  0  0  0  0  0  0  0  0  0  0
    6.8137   -2.5111   -1.0968 H   0  0  0  0  0  0  0  0  0  0  0  0
   10.4463   -3.2614   -6.1063 H   0  0  0  0  0  0  0  0  0  0  0  0
    5.6275   -5.3070   -0.6695 H   0  0  0  0  0  0  0  0  0  0  0  0
    5.8291   -6.8666    1.2050 H   0  0  0  0  0  0  0  0  0  0  0  0
    2.9533   -4.6134    3.4031 H   0  0  0  0  0  0  0  0  0  0  0  0
    2.7600   -3.0390    1.5339 H   0  0  0  0  0  0  0  0  0  0  0  0
    2.6078   -0.9959   -1.9050 H   0  0  0  0  0  0  0  0  0  0  0  0
    2.6875    1.3549   -1.2270 H   0  0  0  0  0  0  0  0  0  0  0  0
    5.5546    0.3945    1.7801 H   0  0  0  0  0  0  0  0  0  0  0  0
    5.4551   -1.9644    1.1250 H   0  0  0  0  0  0  0  0  0  0  0  0
    7.9049   -1.4011   -6.1898 H   0  0  0  0  0  0  0  0  0  0  0  0
    6.9990   -0.2865   -8.1731 H   0  0  0  0  0  0  0  0  0  0  0  0
    5.0014   -3.8840   -9.2904 H   0  0  0  0  0  0  0  0  0  0  0  0
    5.9217   -5.0094   -7.3183 H   0  0  0  0  0  0  0  0  0  0  0  0
    6.9134   -6.2266   -3.8873 H   0  0  0  0  0  0  0  0  0  0  0  0
    7.5856   -8.5365   -4.3383 H   0  0  0  0  0  0  0  0  0  0  0  0
    9.5873   -7.2726   -7.8845 H   0  0  0  0  0  0  0  0  0  0  0  0
    8.9062   -4.9584   -7.4423 H   0  0  0  0  0  0  0  0  0  0  0  0
    5.5132   -7.2390    3.6310 H   0  0  0  0  0  0  0  0  0  0  0  0
    4.2612   -6.3519    4.5121 H   0  0  0  0  0  0  0  0  0  0  0  0
    3.7467   -8.5070    2.4050 H   0  0  0  0  0  0  0  0  0  0  0  0
    3.5857   -8.7179    4.1520 H   0  0  0  0  0  0  0  0  0  0  0  0
    2.4998   -7.6253    3.2860 H   0  0  0  0  0  0  0  0  0  0  0  0
    5.1353    2.7381    1.1433 H   0  0  0  0  0  0  0  0  0  0  0  0
    3.9083    3.1310   -0.0697 H   0  0  0  0  0  0  0  0  0  0  0  0
    3.3399    2.0767    2.7438 H   0  0  0  0  0  0  0  0  0  0  0  0
    3.1287    3.7474    2.2092 H   0  0  0  0  0  0  0  0  0  0  0  0
    2.1154    2.4658    1.5359 H   0  0  0  0  0  0  0  0  0  0  0  0
    9.9510   -9.5284   -6.9827 H   0  0  0  0  0  0  0  0  0  0  0  0
    9.1188  -10.0537   -5.5120 H   0  0  0  0  0  0  0  0  0  0  0  0
    7.7958   -9.6301   -8.2358 H   0  0  0  0  0  0  0  0  0  0  0  0
    8.1828  -11.1948   -7.5118 H   0  0  0  0  0  0  0  0  0  0  0  0
    6.9651  -10.1510   -6.7700 H   0  0  0  0  0  0  0  0  0  0  0  0
    4.4403   -1.7467  -10.3773 H   0  0  0  0  0  0  0  0  0  0  0  0
    5.2997   -0.2638   -9.9372 H   0  0  0  0  0  0  0  0  0  0  0  0
    6.5034   -2.6100  -11.4851 H   0  0  0  0  0  0  0  0  0  0  0  0
    6.0059   -1.0648  -12.1831 H   0  0  0  0  0  0  0  0  0  0  0  0
    7.3589   -1.1311  -11.0483 H   0  0  0  0  0  0  0  0  0  0  0  0
   -3.8713   -5.9242   -2.8071 H   0  0  0  0  0  0  0  0  0  0  0  0
   -5.0691   -3.9136   -1.1749 H   0  0  0  0  0  0  0  0  0  0  0  0
    0.2134   -1.4445   -1.4155 H   0  0  0  0  0  0  0  0  0  0  0  0
   -0.6387   -1.3515   -2.9821 H   0  0  0  0  0  0  0  0  0  0  0  0
   -1.0964   -0.2613   -1.6486 H   0  0  0  0  0  0  0  0  0  0  0  0
   -3.6570    1.5047   -4.5149 H   0  0  0  0  0  0  0  0  0  0  0  0
   -7.2511    1.4968   -1.7301 H   0  0  0  0  0  0  0  0  0  0  0  0
   15.1496   -0.8776   -5.5401 H   0  0  0  0  0  0  0  0  0  0  0  0
   14.4187    0.0054   -1.7452 H   0  0  0  0  0  0  0  0  0  0  0  0
   13.6412   -2.0362   -0.7818 H   0  0  0  0  0  0  0  0  0  0  0  0
   12.0181   -1.7711   -0.1029 H   0  0  0  0  0  0  0  0  0  0  0  0
   12.2682   -3.0341   -1.3360 H   0  0  0  0  0  0  0  0  0  0  0  0
   18.6801    3.0534   -5.5063 H   0  0  0  0  0  0  0  0  0  0  0  0
   18.5945    3.7200   -1.0081 H   0  0  0  0  0  0  0  0  0  0  0  0
  1  2  1  0  0  0  0
  1 55  2  0  0  0  0
  2  6  2  0  0  0  0
  3  4  1  0  0  0  0
  3  2  1  0  0  0  0
  4  5  2  0  0  0  0
  5  6  1  0  0  0  0
  5  9  1  0  0  0  0
  6 95  1  0  0  0  0
  7  4  1  0  0  0  0
  7  8  2  0  0  0  0
  8 13  1  0  0  0  0
  8  9  1  0  0  0  0
  9 20  1  0  0  0  0
  9 21  1  0  0  0  0
 10 11  2  0  0  0  0
 10  7  1  0  0  0  0
 11 12  1  0  0  0  0
 12 13  2  0  0  0  0
 13 97  1  0  0  0  0
 14 15  1  0  0  0  0
 14 11  1  0  0  0  0
 15 16  2  0  0  0  0
 16 12  1  0  0  0  0
 16 19  1  0  0  0  0
 17 15  1  0  0  0  0
 17 18  2  0  0  0  0
 18 19  1  0  0  0  0
 20 33  2  0  0  0  0
 21 28  1  0  0  0  0
 22 14  1  0  0  0  0
 22 39  2  0  0  0  0
 23 14  1  0  0  0  0
 24 21  2  0  0  0  0
 24 25  1  0  0  0  0
 25 26  2  0  0  0  0
 26 27  1  0  0  0  0
 26 44  1  0  0  0  0
 27101  1  0  0  0  0
 28102  1  0  0  0  0
 28 27  2  0  0  0  0
 29 30  2  0  0  0  0
 29 20  1  0  0  0  0
 30 31  1  0  0  0  0
 31 46  1  0  0  0  0
 31 32  2  0  0  0  0
 32105  1  0  0  0  0
 33 32  1  0  0  0  0
 33106  1  0  0  0  0
 34 23  1  0  0  0  0
 34107  1  0  0  0  0
 35 34  2  0  0  0  0
 36 37  2  0  0  0  0
 36 35  1  0  0  0  0
 37 38  1  0  0  0  0
 38110  1  0  0  0  0
 38 23  2  0  0  0  0
 39111  1  0  0  0  0
 40 39  1  0  0  0  0
 40112  1  0  0  0  0
 41 40  2  0  0  0  0
 42 43  2  0  0  0  0
 42 41  1  0  0  0  0
 43 22  1  0  0  0  0
 44115  1  0  0  0  0
 44116  1  0  0  0  0
 45 44  1  0  0  0  0
 45118  1  0  0  0  0
 46120  1  0  0  0  0
 46 47  1  0  0  0  0
 47123  1  0  0  0  0
 47122  1  0  0  0  0
 48 41  1  0  0  0  0
 48126  1  0  0  0  0
 49129  1  0  0  0  0
 49 48  1  0  0  0  0
 50131  1  0  0  0  0
 50 36  1  0  0  0  0
 51134  1  0  0  0  0
 51 50  1  0  0  0  0
 52 53  1  0  0  0  0
 52  1  1  0  0  0  0
 53 54  2  0  0  0  0
 54 55  1  0  0  0  0
 54 56  1  0  0  0  0
 55 57  1  0  0  0  0
 56136  1  0  0  0  0
 58139  1  0  0  0  0
 58 57  1  0  0  0  0
 58137  1  0  0  0  0
 59 56  2  0  0  0  0
 59 63  1  0  0  0  0
 60 59  1  0  0  0  0
 61 60  1  0  0  0  0
 61 62  1  0  0  0  0
 62 63  1  0  0  0  0
 63 68  2  0  0  0  0
 64 65  1  0  0  0  0
 64 61  2  0  0  0  0
 65 66  1  0  0  0  0
 66 62  2  0  0  0  0
 66141  1  0  0  0  0
 67 60  2  0  0  0  0
 68 69  1  0  0  0  0
 68 70  1  0  0  0  0
 69 72  3  0  0  0  0
 70 71  3  0  0  0  0
 73 18  1  0  0  0  0
 73 77  2  0  0  0  0
 74 75  1  0  0  0  0
 74 73  1  0  0  0  0
 75 76  2  0  0  0  0
 76 77  1  0  0  0  0
 76 78  1  0  0  0  0
 77 79  1  0  0  0  0
 78143  1  0  0  0  0
 79 80  1  0  0  0  0
 80144  1  0  0  0  0
 80145  1  0  0  0  0
 81 78  2  0  0  0  0
 81 85  1  0  0  0  0
 82 83  1  0  0  0  0
 82 81  1  0  0  0  0
 83 84  1  0  0  0  0
 84 88  2  0  0  0  0
 84 85  1  0  0  0  0
 85 90  2  0  0  0  0
 86 83  2  0  0  0  0
 86 87  1  0  0  0  0
 87 88  1  0  0  0  0
 88148  1  0  0  0  0
 89 82  2  0  0  0  0
 90 92  1  0  0  0  0
 90 91  1  0  0  0  0
 91 94  3  0  0  0  0
 92 93  3  0  0  0  0
 96 10  1  0  0  0  0
 98 17  1  0  0  0  0
 99 24  1  0  0  0  0
100 25  1  0  0  0  0
103 29  1  0  0  0  0
104 30  1  0  0  0  0
108 35  1  0  0  0  0
109 37  1  0  0  0  0
113 42  1  0  0  0  0
114 43  1  0  0  0  0
117 45  1  0  0  0  0
119 45  1  0  0  0  0
121 46  1  0  0  0  0
124 47  1  0  0  0  0
125 48  1  0  0  0  0
127 49  1  0  0  0  0
128 49  1  0  0  0  0
130 50  1  0  0  0  0
132 51  1  0  0  0  0
133 51  1  0  0  0  0
135 53  1  0  0  0  0
138 58  1  0  0  0  0
140 64  1  0  0  0  0
142 75  1  0  0  0  0
146 80  1  0  0  0  0
147 86  1  0  0  0  0
M  END
