i-IEICO-2Cl.sdf
  xtb     12202114483D
 energy: -264.656707468038 gnorm: 0.000662673983 xtb: 6.4.1 (unknown)
160174  0     0  0            999 V2000
   -0.0155    2.3343    0.0145 C   0  0  0  0  0  0  0  0  0  0  0  0
    0.7128    1.3718    0.7492 C   0  0  0  0  0  0  0  0  0  0  0  0
    0.9365    0.0893    0.2570 C   0  0  0  0  0  0  0  0  0  0  0  0
    0.4357   -0.2017   -0.9905 C   0  0  0  0  0  0  0  0  0  0  0  0
   -0.2655    0.7720   -1.7386 C   0  0  0  0  0  0  0  0  0  0  0  0
   -0.5159    2.0433   -1.2343 C   0  0  0  0  0  0  0  0  0  0  0  0
   -0.1325    3.6370    0.7906 C   0  0  0  0  0  0  0  0  0  0  0  0
    0.6464    3.2977    2.0358 C   0  0  0  0  0  0  0  0  0  0  0  0
    1.1183    1.9995    1.9706 C   0  0  0  0  0  0  0  0  0  0  0  0
    1.0433    3.9679    3.1916 C   0  0  0  0  0  0  0  0  0  0  0  0
    1.8232    3.1709    4.0043 C   0  0  0  0  0  0  0  0  0  0  0  0
    2.0618    1.5689    3.3416 S   0  0  0  0  0  0  0  0  0  0  0  0
    0.5493   -1.5027   -1.7694 C   0  0  0  0  0  0  0  0  0  0  0  0
   -0.0575   -1.0976   -3.0889 C   0  0  0  0  0  0  0  0  0  0  0  0
   -0.5745    0.1777   -3.0054 C   0  0  0  0  0  0  0  0  0  0  0  0
   -0.3267   -1.7271   -4.3087 C   0  0  0  0  0  0  0  0  0  0  0  0
   -1.0741   -0.9306   -5.1438 C   0  0  0  0  0  0  0  0  0  0  0  0
   -1.4079    0.6403   -4.4364 S   0  0  0  0  0  0  0  0  0  0  0  0
    2.3876    3.5191    5.2649 C   0  0  0  0  0  0  0  0  0  0  0  0
   -1.5285   -1.2445   -6.4715 C   0  0  0  0  0  0  0  0  0  0  0  0
    1.9915   -1.9462   -1.8203 C   0  0  0  0  0  0  0  0  0  0  0  0
   -0.3845   -2.5903   -1.2623 C   0  0  0  0  0  0  0  0  0  0  0  0
    0.5447    4.8173    0.1215 C   0  0  0  0  0  0  0  0  0  0  0  0
   -1.6050    3.8978    1.0464 C   0  0  0  0  0  0  0  0  0  0  0  0
    1.4718    4.6483   -0.8966 C   0  0  0  0  0  0  0  0  0  0  0  0
    2.1032    5.7439   -1.4573 C   0  0  0  0  0  0  0  0  0  0  0  0
    1.8363    7.0305   -1.0103 C   0  0  0  0  0  0  0  0  0  0  0  0
    0.9201    7.1928    0.0212 C   0  0  0  0  0  0  0  0  0  0  0  0
    0.2861    6.1023    0.5841 C   0  0  0  0  0  0  0  0  0  0  0  0
   -2.2287    3.4278    2.1935 C   0  0  0  0  0  0  0  0  0  0  0  0
   -3.5806    3.6386    2.3942 C   0  0  0  0  0  0  0  0  0  0  0  0
   -4.3448    4.3172    1.4551 C   0  0  0  0  0  0  0  0  0  0  0  0
   -3.7193    4.7726    0.3015 C   0  0  0  0  0  0  0  0  0  0  0  0
   -2.3687    4.5655    0.0969 C   0  0  0  0  0  0  0  0  0  0  0  0
    2.5202   -2.7172   -0.7925 C   0  0  0  0  0  0  0  0  0  0  0  0
    3.8520   -3.0850   -0.8064 C   0  0  0  0  0  0  0  0  0  0  0  0
    4.6891   -2.6944   -1.8436 C   0  0  0  0  0  0  0  0  0  0  0  0
    4.1575   -1.9177   -2.8643 C   0  0  0  0  0  0  0  0  0  0  0  0
    2.8263   -1.5440   -2.8533 C   0  0  0  0  0  0  0  0  0  0  0  0
   -1.4539   -2.3046   -0.4262 C   0  0  0  0  0  0  0  0  0  0  0  0
   -2.3647   -3.2914   -0.0938 C   0  0  0  0  0  0  0  0  0  0  0  0
   -2.2369   -4.5807   -0.5910 C   0  0  0  0  0  0  0  0  0  0  0  0
   -1.1598   -4.8635   -1.4216 C   0  0  0  0  0  0  0  0  0  0  0  0
   -0.2464   -3.8828   -1.7552 C   0  0  0  0  0  0  0  0  0  0  0  0
    6.1457   -3.0594   -1.8339 C   0  0  0  0  0  0  0  0  0  0  0  0
   -3.2712   -5.6275   -0.2922 C   0  0  0  0  0  0  0  0  0  0  0  0
   -5.8205    4.5098    1.6559 C   0  0  0  0  0  0  0  0  0  0  0  0
    2.4844    8.2191   -1.6598 C   0  0  0  0  0  0  0  0  0  0  0  0
   -6.6001    3.3475    1.0378 C   0  0  0  0  0  0  0  0  0  0  0  0
    1.6578    8.6878   -2.8591 C   0  0  0  0  0  0  0  0  0  0  0  0
    6.9608   -1.9823   -1.1152 C   0  0  0  0  0  0  0  0  0  0  0  0
   -4.3769   -5.5952   -1.3497 C   0  0  0  0  0  0  0  0  0  0  0  0
   -1.2367   -0.0743   -7.7437 S   0  0  0  0  0  0  0  0  0  0  0  0
   -1.7671   -1.1625   -8.9345 C   0  0  0  0  0  0  0  0  0  0  0  0
   -2.2452   -2.3361   -8.4104 C   0  0  0  0  0  0  0  0  0  0  0  0
   -2.1190   -2.3806   -6.9729 C   0  0  0  0  0  0  0  0  0  0  0  0
    1.9145    4.9799    6.0886 S   0  0  0  0  0  0  0  0  0  0  0  0
    2.9652    4.6466    7.3927 C   0  0  0  0  0  0  0  0  0  0  0  0
    3.6189    3.4493    7.2556 C   0  0  0  0  0  0  0  0  0  0  0  0
    3.2992    2.8085    6.0127 C   0  0  0  0  0  0  0  0  0  0  0  0
    3.8808    1.6500    5.5842 O   0  0  0  0  0  0  0  0  0  0  0  0
    4.9777    1.8100    4.6882 C   0  0  0  0  0  0  0  0  0  0  0  0
    6.2700    2.2014    5.3954 C   0  0  0  0  0  0  0  0  0  0  0  0
    4.5679    2.9097    8.1887 C   0  0  0  0  0  0  0  0  0  0  0  0
    4.6379    1.5881    8.4803 C   0  0  0  0  0  0  0  0  0  0  0  0
    3.5237    0.6281    8.2322 C   0  0  0  0  0  0  0  0  0  0  0  0
    3.9881   -0.6547    8.8098 C   0  0  0  0  0  0  0  0  0  0  0  0
    5.2505   -0.4824    9.4049 C   0  0  0  0  0  0  0  0  0  0  0  0
    5.6916    0.8916    9.1982 C   0  0  0  0  0  0  0  0  0  0  0  0
    3.3252   -1.8641    8.8378 C   0  0  0  0  0  0  0  0  0  0  0  0
    3.9532   -2.9280    9.4747 C   0  0  0  0  0  0  0  0  0  0  0  0
    5.1999   -2.7749   10.0736 C   0  0  0  0  0  0  0  0  0  0  0  0
    5.8568   -1.5555   10.0451 C   0  0  0  0  0  0  0  0  0  0  0  0
    2.4250    0.8637    7.7919 O   0  0  0  0  0  0  0  0  0  0  0  0
    6.9202    1.4004    9.5247 C   0  0  0  0  0  0  0  0  0  0  0  0
    7.3574    2.7051    9.2118 C   0  0  0  0  0  0  0  0  0  0  0  0
    7.9286    0.6729   10.1917 C   0  0  0  0  0  0  0  0  0  0  0  0
    8.7862    0.1347   10.7321 N   0  0  0  0  0  0  0  0  0  0  0  0
    7.7863    3.7419    8.9680 N   0  0  0  0  0  0  0  0  0  0  0  0
    3.1758   -4.4636    9.5298 Cl  0  0  0  0  0  0  0  0  0  0  0  0
   -2.4983   -3.5158   -6.3491 O   0  0  0  0  0  0  0  0  0  0  0  0
   -2.8411   -3.5546   -4.9713 C   0  0  0  0  0  0  0  0  0  0  0  0
   -3.8821   -2.5296   -4.5461 C   0  0  0  0  0  0  0  0  0  0  0  0
   -2.7018   -3.4230   -9.2326 C   0  0  0  0  0  0  0  0  0  0  0  0
   -3.7582   -4.2290   -8.9681 C   0  0  0  0  0  0  0  0  0  0  0  0
   -4.8285   -3.9111   -7.9891 C   0  0  0  0  0  0  0  0  0  0  0  0
   -5.7548   -5.0638   -8.0310 C   0  0  0  0  0  0  0  0  0  0  0  0
   -5.3403   -5.9658   -9.0268 C   0  0  0  0  0  0  0  0  0  0  0  0
   -4.1200   -5.4631   -9.6496 C   0  0  0  0  0  0  0  0  0  0  0  0
   -6.8849   -5.2796   -7.2695 C   0  0  0  0  0  0  0  0  0  0  0  0
   -7.6106   -6.4403   -7.5095 C   0  0  0  0  0  0  0  0  0  0  0  0
   -7.2173   -7.3443   -8.4912 C   0  0  0  0  0  0  0  0  0  0  0  0
   -6.0853   -7.1152   -9.2567 C   0  0  0  0  0  0  0  0  0  0  0  0
   -4.9936   -2.8768   -7.3846 O   0  0  0  0  0  0  0  0  0  0  0  0
   -3.4300   -6.0764  -10.6597 C   0  0  0  0  0  0  0  0  0  0  0  0
   -3.8259   -7.2862  -11.2704 C   0  0  0  0  0  0  0  0  0  0  0  0
   -2.2360   -5.6000  -11.2430 C   0  0  0  0  0  0  0  0  0  0  0  0
   -4.0961   -8.2597  -11.8150 N   0  0  0  0  0  0  0  0  0  0  0  0
   -1.2632   -5.2887  -11.7674 N   0  0  0  0  0  0  0  0  0  0  0  0
   -9.0227   -6.7667   -6.5789 Cl  0  0  0  0  0  0  0  0  0  0  0  0
    1.4890   -0.6360    0.8342 H   0  0  0  0  0  0  0  0  0  0  0  0
   -1.0648    2.7701   -1.8132 H   0  0  0  0  0  0  0  0  0  0  0  0
    0.7936    4.9830    3.4431 H   0  0  0  0  0  0  0  0  0  0  0  0
    0.0486   -2.6920   -4.5990 H   0  0  0  0  0  0  0  0  0  0  0  0
    1.7028    3.6567   -1.2574 H   0  0  0  0  0  0  0  0  0  0  0  0
    2.8181    5.5942   -2.2541 H   0  0  0  0  0  0  0  0  0  0  0  0
    0.7023    8.1853    0.3899 H   0  0  0  0  0  0  0  0  0  0  0  0
   -0.4260    6.2481    1.3837 H   0  0  0  0  0  0  0  0  0  0  0  0
   -1.6557    2.8970    2.9396 H   0  0  0  0  0  0  0  0  0  0  0  0
   -4.0471    3.2724    3.2978 H   0  0  0  0  0  0  0  0  0  0  0  0
   -4.2964    5.3002   -0.4447 H   0  0  0  0  0  0  0  0  0  0  0  0
   -1.9001    4.9392   -0.8021 H   0  0  0  0  0  0  0  0  0  0  0  0
    1.8808   -3.0409    0.0165 H   0  0  0  0  0  0  0  0  0  0  0  0
    4.2469   -3.6881   -0.0010 H   0  0  0  0  0  0  0  0  0  0  0  0
    4.7928   -1.6022   -3.6799 H   0  0  0  0  0  0  0  0  0  0  0  0
    2.4321   -0.9370   -3.6558 H   0  0  0  0  0  0  0  0  0  0  0  0
   -1.5823   -1.3059   -0.0354 H   0  0  0  0  0  0  0  0  0  0  0  0
   -3.1922   -3.0510    0.5585 H   0  0  0  0  0  0  0  0  0  0  0  0
   -1.0385   -5.8623   -1.8167 H   0  0  0  0  0  0  0  0  0  0  0  0
    0.5846   -4.1203   -2.4041 H   0  0  0  0  0  0  0  0  0  0  0  0
    6.5094   -3.1618   -2.8583 H   0  0  0  0  0  0  0  0  0  0  0  0
    6.2849   -4.0152   -1.3246 H   0  0  0  0  0  0  0  0  0  0  0  0
   -2.8087   -6.6164   -0.2856 H   0  0  0  0  0  0  0  0  0  0  0  0
   -3.7091   -5.4476    0.6915 H   0  0  0  0  0  0  0  0  0  0  0  0
   -6.0450    4.5666    2.7229 H   0  0  0  0  0  0  0  0  0  0  0  0
   -6.1389    5.4444    1.1894 H   0  0  0  0  0  0  0  0  0  0  0  0
    3.4889    7.9551   -1.9969 H   0  0  0  0  0  0  0  0  0  0  0  0
    2.5687    9.0354   -0.9396 H   0  0  0  0  0  0  0  0  0  0  0  0
   -7.6692    3.4857    1.1824 H   0  0  0  0  0  0  0  0  0  0  0  0
   -6.3987    3.2819   -0.0291 H   0  0  0  0  0  0  0  0  0  0  0  0
   -6.3052    2.4074    1.4989 H   0  0  0  0  0  0  0  0  0  0  0  0
    1.5723    7.8904   -3.5940 H   0  0  0  0  0  0  0  0  0  0  0  0
    2.1258    9.5480   -3.3321 H   0  0  0  0  0  0  0  0  0  0  0  0
    0.6559    8.9681   -2.5411 H   0  0  0  0  0  0  0  0  0  0  0  0
    6.8449   -1.0236   -1.6159 H   0  0  0  0  0  0  0  0  0  0  0  0
    6.6208   -1.8736   -0.0876 H   0  0  0  0  0  0  0  0  0  0  0  0
    8.0161   -2.2451   -1.1066 H   0  0  0  0  0  0  0  0  0  0  0  0
   -4.8619   -4.6214   -1.3592 H   0  0  0  0  0  0  0  0  0  0  0  0
   -5.1269   -6.3544   -1.1411 H   0  0  0  0  0  0  0  0  0  0  0  0
   -3.9604   -5.7791   -2.3380 H   0  0  0  0  0  0  0  0  0  0  0  0
   -1.7683   -0.8727   -9.9668 H   0  0  0  0  0  0  0  0  0  0  0  0
    3.0037    5.3147    8.2300 H   0  0  0  0  0  0  0  0  0  0  0  0
    5.0862    0.8334    4.2108 H   0  0  0  0  0  0  0  0  0  0  0  0
    4.7334    2.5540    3.9195 H   0  0  0  0  0  0  0  0  0  0  0  0
    6.1704    3.1679    5.8849 H   0  0  0  0  0  0  0  0  0  0  0  0
    6.5326    1.4574    6.1437 H   0  0  0  0  0  0  0  0  0  0  0  0
    7.0736    2.2637    4.6669 H   0  0  0  0  0  0  0  0  0  0  0  0
    5.2600    3.6106    8.6368 H   0  0  0  0  0  0  0  0  0  0  0  0
    2.3569   -1.9701    8.3748 H   0  0  0  0  0  0  0  0  0  0  0  0
    5.6567   -3.6183   10.5671 H   0  0  0  0  0  0  0  0  0  0  0  0
    6.8182   -1.4583   10.5225 H   0  0  0  0  0  0  0  0  0  0  0  0
   -1.9478   -3.4612   -4.3426 H   0  0  0  0  0  0  0  0  0  0  0  0
   -3.2429   -4.5654   -4.8527 H   0  0  0  0  0  0  0  0  0  0  0  0
   -4.7136   -2.5322   -5.2455 H   0  0  0  0  0  0  0  0  0  0  0  0
   -3.4608   -1.5290   -4.5155 H   0  0  0  0  0  0  0  0  0  0  0  0
   -4.2386   -2.7840   -3.5518 H   0  0  0  0  0  0  0  0  0  0  0  0
   -2.1205   -3.5891  -10.1310 H   0  0  0  0  0  0  0  0  0  0  0  0
   -7.1854   -4.5701   -6.5147 H   0  0  0  0  0  0  0  0  0  0  0  0
   -7.8051   -8.2334   -8.6572 H   0  0  0  0  0  0  0  0  0  0  0  0
   -5.8047   -7.8286  -10.0141 H   0  0  0  0  0  0  0  0  0  0  0  0
  1  2  1  0  0  0  0
  2  3  2  0  0  0  0
  3  4  1  0  0  0  0
  4  5  2  0  0  0  0
  5  6  1  0  0  0  0
  6  1  2  0  0  0  0
  1  7  1  0  0  0  0
  7  8  1  0  0  0  0
  8  9  2  0  0  0  0
  9  2  1  0  0  0  0
  8 10  1  0  0  0  0
 10 11  2  0  0  0  0
 11 12  1  0  0  0  0
 12  9  1  0  0  0  0
  4 13  1  0  0  0  0
 13 14  1  0  0  0  0
 14 15  2  0  0  0  0
 15  5  1  0  0  0  0
 14 16  1  0  0  0  0
 16 17  2  0  0  0  0
 17 18  1  0  0  0  0
 18 15  1  0  0  0  0
 11 19  1  0  0  0  0
 17 20  1  0  0  0  0
 13 21  1  0  0  0  0
 13 22  1  0  0  0  0
  7 23  1  0  0  0  0
  7 24  1  0  0  0  0
 23 25  2  0  0  0  0
 25 26  1  0  0  0  0
 26 27  2  0  0  0  0
 27 28  1  0  0  0  0
 28 29  2  0  0  0  0
 29 23  1  0  0  0  0
 24 30  2  0  0  0  0
 30 31  1  0  0  0  0
 31 32  2  0  0  0  0
 32 33  1  0  0  0  0
 33 34  2  0  0  0  0
 34 24  1  0  0  0  0
 21 35  2  0  0  0  0
 35 36  1  0  0  0  0
 36 37  2  0  0  0  0
 37 38  1  0  0  0  0
 38 39  2  0  0  0  0
 39 21  1  0  0  0  0
 22 40  2  0  0  0  0
 40 41  1  0  0  0  0
 41 42  2  0  0  0  0
 42 43  1  0  0  0  0
 43 44  2  0  0  0  0
 44 22  1  0  0  0  0
 37 45  1  0  0  0  0
 42 46  1  0  0  0  0
 32 47  1  0  0  0  0
 27 48  1  0  0  0  0
 47 49  1  0  0  0  0
 48 50  1  0  0  0  0
 45 51  1  0  0  0  0
 46 52  1  0  0  0  0
 20 53  1  0  0  0  0
 53 54  1  0  0  0  0
 54 55  2  0  0  0  0
 55 56  1  0  0  0  0
 56 20  2  0  0  0  0
 19 57  1  0  0  0  0
 57 58  1  0  0  0  0
 58 59  2  0  0  0  0
 59 60  1  0  0  0  0
 60 19  2  0  0  0  0
 60 61  1  0  0  0  0
 61 62  1  0  0  0  0
 62 63  1  0  0  0  0
 64 65  2  0  0  0  0
 65 66  1  0  0  0  0
 66 67  1  0  0  0  0
 67 68  2  0  0  0  0
 68 69  1  0  0  0  0
 69 65  1  0  0  0  0
 67 70  1  0  0  0  0
 70 71  2  0  0  0  0
 71 72  1  0  0  0  0
 72 73  2  0  0  0  0
 73 68  1  0  0  0  0
 66 74  2  0  0  0  0
 69 75  2  0  0  0  0
 75 76  1  0  0  0  0
 75 77  1  0  0  0  0
 77 78  3  0  0  0  0
 76 79  3  0  0  0  0
 71 80  1  0  0  0  0
 56 81  1  0  0  0  0
 81 82  1  0  0  0  0
 82 83  1  0  0  0  0
 84 85  2  0  0  0  0
 85 86  1  0  0  0  0
 86 87  1  0  0  0  0
 87 88  2  0  0  0  0
 88 89  1  0  0  0  0
 89 85  1  0  0  0  0
 87 90  1  0  0  0  0
 90 91  2  0  0  0  0
 91 92  1  0  0  0  0
 92 93  2  0  0  0  0
 93 88  1  0  0  0  0
 86 94  2  0  0  0  0
 89 95  2  0  0  0  0
 95 96  1  0  0  0  0
 95 97  1  0  0  0  0
 96 98  3  0  0  0  0
 97 99  3  0  0  0  0
 91100  1  0  0  0  0
 59 64  1  0  0  0  0
 84 55  1  0  0  0  0
  3101  1  0  0  0  0
  6102  1  0  0  0  0
 10103  1  0  0  0  0
 16104  1  0  0  0  0
 25105  1  0  0  0  0
 26106  1  0  0  0  0
 28107  1  0  0  0  0
 29108  1  0  0  0  0
 30109  1  0  0  0  0
 31110  1  0  0  0  0
 33111  1  0  0  0  0
 34112  1  0  0  0  0
 35113  1  0  0  0  0
 36114  1  0  0  0  0
 38115  1  0  0  0  0
 39116  1  0  0  0  0
 40117  1  0  0  0  0
 41118  1  0  0  0  0
 43119  1  0  0  0  0
 44120  1  0  0  0  0
 45121  1  0  0  0  0
 45122  1  0  0  0  0
 46123  1  0  0  0  0
 46124  1  0  0  0  0
 47125  1  0  0  0  0
 47126  1  0  0  0  0
 48127  1  0  0  0  0
 48128  1  0  0  0  0
 49129  1  0  0  0  0
 49130  1  0  0  0  0
 49131  1  0  0  0  0
 50132  1  0  0  0  0
 50133  1  0  0  0  0
 50134  1  0  0  0  0
 51135  1  0  0  0  0
 51136  1  0  0  0  0
 51137  1  0  0  0  0
 52138  1  0  0  0  0
 52139  1  0  0  0  0
 52140  1  0  0  0  0
 54141  1  0  0  0  0
 58142  1  0  0  0  0
 62143  1  0  0  0  0
 62144  1  0  0  0  0
 63145  1  0  0  0  0
 63146  1  0  0  0  0
 63147  1  0  0  0  0
 64148  1  0  0  0  0
 70149  1  0  0  0  0
 72150  1  0  0  0  0
 73151  1  0  0  0  0
 82152  1  0  0  0  0
 82153  1  0  0  0  0
 83154  1  0  0  0  0
 83155  1  0  0  0  0
 83156  1  0  0  0  0
 84157  1  0  0  0  0
 90158  1  0  0  0  0
 92159  1  0  0  0  0
 93160  1  0  0  0  0
M  END
