SCF done       -272.759513543154          0.000748430427
 OpenBabel12282109493D

160174  0  0  0  0  0  0  0  0999 V2000
    2.1811   -2.9157    0.6726 C   0  0  0  0  0  0  0  0  0  0  0  0
    2.1705   -2.3644    1.9744 C   0  0  0  0  0  0  0  0  0  0  0  0
    1.1169   -1.5777    2.4296 C   0  0  0  0  0  0  0  0  0  0  0  0
    0.0667   -1.3722    1.5654 C   0  0  0  0  0  0  0  0  0  0  0  0
    0.0560   -1.9615    0.2795 C   0  0  0  0  0  0  0  0  0  0  0  0
    1.1195   -2.7306   -0.1829 C   0  0  0  0  0  0  0  0  0  0  0  0
    3.4462   -3.7256    0.4358 C   0  0  0  0  0  0  0  0  0  0  0  0
    4.1130   -3.6153    1.7838 C   0  0  0  0  0  0  0  0  0  0  0  0
    3.3656   -2.8099    2.6232 C   0  0  0  0  0  0  0  0  0  0  0  0
    5.2670   -4.1192    2.3815 C   0  0  0  0  0  0  0  0  0  0  0  0
    5.3837   -3.7107    3.6944 C   0  0  0  0  0  0  0  0  0  0  0  0
    4.0705   -2.6584    4.1817 S   0  0  0  0  0  0  0  0  0  0  0  0
   -1.2109   -0.5867    1.8143 C   0  0  0  0  0  0  0  0  0  0  0  0
   -1.9679   -0.8644    0.5409 C   0  0  0  0  0  0  0  0  0  0  0  0
   -1.1945   -1.6152   -0.3250 C   0  0  0  0  0  0  0  0  0  0  0  0
   -3.1985   -0.4909    0.0054 C   0  0  0  0  0  0  0  0  0  0  0  0
   -3.3630   -0.9651   -1.2796 C   0  0  0  0  0  0  0  0  0  0  0  0
   -1.9808   -1.8915   -1.8277 S   0  0  0  0  0  0  0  0  0  0  0  0
    6.3748   -4.1067    4.6398 C   0  0  0  0  0  0  0  0  0  0  0  0
   -4.4829   -0.7425   -2.1333 C   0  0  0  0  0  0  0  0  0  0  0  0
   -1.8713   -1.1120    3.0705 C   0  0  0  0  0  0  0  0  0  0  0  0
   -1.0152    0.9184    1.8511 C   0  0  0  0  0  0  0  0  0  0  0  0
    3.0576   -5.1448    0.0712 C   0  0  0  0  0  0  0  0  0  0  0  0
    4.3797   -3.1137   -0.5925 C   0  0  0  0  0  0  0  0  0  0  0  0
    2.8363   -5.4919   -1.2557 C   0  0  0  0  0  0  0  0  0  0  0  0
    2.4524   -6.7766   -1.5902 C   0  0  0  0  0  0  0  0  0  0  0  0
    2.2744   -7.7464   -0.6121 C   0  0  0  0  0  0  0  0  0  0  0  0
    2.4818   -7.3909    0.7136 C   0  0  0  0  0  0  0  0  0  0  0  0
    2.8600   -6.1052    1.0536 C   0  0  0  0  0  0  0  0  0  0  0  0
    4.2140   -1.8188   -1.0607 C   0  0  0  0  0  0  0  0  0  0  0  0
    5.1117   -1.2811   -1.9660 C   0  0  0  0  0  0  0  0  0  0  0  0
    6.1967   -2.0166   -2.4208 C   0  0  0  0  0  0  0  0  0  0  0  0
    6.3666   -3.3081   -1.9371 C   0  0  0  0  0  0  0  0  0  0  0  0
    5.4735   -3.8496   -1.0341 C   0  0  0  0  0  0  0  0  0  0  0  0
   -1.5292   -0.5870    4.3103 C   0  0  0  0  0  0  0  0  0  0  0  0
   -2.0851   -1.1004    5.4666 C   0  0  0  0  0  0  0  0  0  0  0  0
   -2.9895   -2.1531    5.4170 C   0  0  0  0  0  0  0  0  0  0  0  0
   -3.3250   -2.6763    4.1755 C   0  0  0  0  0  0  0  0  0  0  0  0
   -2.7704   -2.1677    3.0158 C   0  0  0  0  0  0  0  0  0  0  0  0
   -2.0768    1.7241    2.2482 C   0  0  0  0  0  0  0  0  0  0  0  0
   -1.9710    3.0996    2.1984 C   0  0  0  0  0  0  0  0  0  0  0  0
   -0.8061    3.7091    1.7477 C   0  0  0  0  0  0  0  0  0  0  0  0
    0.2506    2.9007    1.3546 C   0  0  0  0  0  0  0  0  0  0  0  0
    0.1497    1.5212    1.4015 C   0  0  0  0  0  0  0  0  0  0  0  0
   -3.6264   -2.6812    6.6701 C   0  0  0  0  0  0  0  0  0  0  0  0
   -0.7218    5.2041    1.6351 C   0  0  0  0  0  0  0  0  0  0  0  0
    7.1925   -1.4163   -3.3710 C   0  0  0  0  0  0  0  0  0  0  0  0
    1.9159   -9.1563   -0.9843 C   0  0  0  0  0  0  0  0  0  0  0  0
    8.3366   -0.7557   -2.5992 C   0  0  0  0  0  0  0  0  0  0  0  0
    3.1811   -9.9797   -1.2340 C   0  0  0  0  0  0  0  0  0  0  0  0
   -4.9408   -1.9505    6.9516 C   0  0  0  0  0  0  0  0  0  0  0  0
   -1.3346    5.6722    0.3134 C   0  0  0  0  0  0  0  0  0  0  0  0
   -4.7205   -1.6590   -3.5947 S   0  0  0  0  0  0  0  0  0  0  0  0
   -6.1396   -0.7971   -3.9729 C   0  0  0  0  0  0  0  0  0  0  0  0
   -6.4705    0.1348   -3.0163 C   0  0  0  0  0  0  0  0  0  0  0  0
   -5.5104    0.1588   -1.9529 C   0  0  0  0  0  0  0  0  0  0  0  0
    6.5250   -3.3121    6.1818 S   0  0  0  0  0  0  0  0  0  0  0  0
    7.7519   -4.3841    6.6780 C   0  0  0  0  0  0  0  0  0  0  0  0
    8.0921   -5.2938    5.7048 C   0  0  0  0  0  0  0  0  0  0  0  0
    7.3007   -5.1222    4.5228 C   0  0  0  0  0  0  0  0  0  0  0  0
    7.4407   -5.8807    3.4017 O   0  0  0  0  0  0  0  0  0  0  0  0
    7.1471   -7.2690    3.5329 C   0  0  0  0  0  0  0  0  0  0  0  0
    5.6569   -7.5356    3.6938 C   0  0  0  0  0  0  0  0  0  0  0  0
    9.1557   -6.2499    5.8019 C   0  0  0  0  0  0  0  0  0  0  0  0
    9.6049   -6.8987    6.9028 C   0  0  0  0  0  0  0  0  0  0  0  0
   10.9457   -7.5458    6.8882 C   0  0  0  0  0  0  0  0  0  0  0  0
   11.2676   -7.7869    8.3119 C   0  0  0  0  0  0  0  0  0  0  0  0
   10.1618   -7.4408    9.1108 C   0  0  0  0  0  0  0  0  0  0  0  0
    9.0621   -7.0265    8.2438 C   0  0  0  0  0  0  0  0  0  0  0  0
   12.4409   -8.2580    8.8653 C   0  0  0  0  0  0  0  0  0  0  0  0
   12.5178   -8.3764   10.2475 C   0  0  0  0  0  0  0  0  0  0  0  0
   11.4263   -8.0205   11.0496 C   0  0  0  0  0  0  0  0  0  0  0  0
   10.2423   -7.5553   10.4888 C   0  0  0  0  0  0  0  0  0  0  0  0
   11.6285   -7.7805    5.9202 O   0  0  0  0  0  0  0  0  0  0  0  0
    7.7403   -7.0072    8.5950 C   0  0  0  0  0  0  0  0  0  0  0  0
    6.6800   -6.8706    7.6747 C   0  0  0  0  0  0  0  0  0  0  0  0
    7.2737   -7.2168    9.9103 C   0  0  0  0  0  0  0  0  0  0  0  0
    6.8452   -7.3649   10.9641 N   0  0  0  0  0  0  0  0  0  0  0  0
    5.7691   -6.8310    6.9778 N   0  0  0  0  0  0  0  0  0  0  0  0
   11.5424   -8.1575   12.7566 Cl  0  0  0  0  0  0  0  0  0  0  0  0
   13.9595   -8.9597   10.9732 Cl  0  0  0  0  0  0  0  0  0  0  0  0
   -5.6006    0.9909   -0.8787 O   0  0  0  0  0  0  0  0  0  0  0  0
   -5.4211    2.3796   -1.1482 C   0  0  0  0  0  0  0  0  0  0  0  0
   -3.9935    2.7183   -1.5553 C   0  0  0  0  0  0  0  0  0  0  0  0
   -7.6679    0.9187   -2.9863 C   0  0  0  0  0  0  0  0  0  0  0  0
   -8.4265    1.3546   -4.0208 C   0  0  0  0  0  0  0  0  0  0  0  0
   -9.8337    1.7778   -3.7814 C   0  0  0  0  0  0  0  0  0  0  0  0
  -10.4644    1.7708   -5.1202 C   0  0  0  0  0  0  0  0  0  0  0  0
   -9.4887    1.5094   -6.1003 C   0  0  0  0  0  0  0  0  0  0  0  0
   -8.1856    1.3978   -5.4511 C   0  0  0  0  0  0  0  0  0  0  0  0
  -11.7903    1.9608   -5.4524 C   0  0  0  0  0  0  0  0  0  0  0  0
  -12.1536    1.8770   -6.7909 C   0  0  0  0  0  0  0  0  0  0  0  0
  -11.1900    1.6053   -7.7701 C   0  0  0  0  0  0  0  0  0  0  0  0
   -9.8531    1.4246   -7.4337 C   0  0  0  0  0  0  0  0  0  0  0  0
  -10.3480    2.0269   -2.7177 O   0  0  0  0  0  0  0  0  0  0  0  0
   -6.9726    1.5571   -6.0635 C   0  0  0  0  0  0  0  0  0  0  0  0
   -5.7623    1.7162   -5.3565 C   0  0  0  0  0  0  0  0  0  0  0  0
   -6.8062    1.6722   -7.4594 C   0  0  0  0  0  0  0  0  0  0  0  0
   -4.7606    1.9106   -4.8314 N   0  0  0  0  0  0  0  0  0  0  0  0
   -6.6180    1.7545   -8.5882 N   0  0  0  0  0  0  0  0  0  0  0  0
  -13.7934    2.1056   -7.2434 Cl  0  0  0  0  0  0  0  0  0  0  0  0
  -11.6583    1.4897   -9.4173 Cl  0  0  0  0  0  0  0  0  0  0  0  0
    1.1280   -1.1590    3.4242 H   0  0  0  0  0  0  0  0  0  0  0  0
    1.0996   -3.1670   -1.1698 H   0  0  0  0  0  0  0  0  0  0  0  0
    5.9933   -4.7523    1.9088 H   0  0  0  0  0  0  0  0  0  0  0  0
   -3.9540    0.0804    0.5099 H   0  0  0  0  0  0  0  0  0  0  0  0
    2.9770   -4.7551   -2.0335 H   0  0  0  0  0  0  0  0  0  0  0  0
    2.2876   -7.0297   -2.6280 H   0  0  0  0  0  0  0  0  0  0  0  0
    2.3419   -8.1274    1.4925 H   0  0  0  0  0  0  0  0  0  0  0  0
    3.0011   -5.8484    2.0935 H   0  0  0  0  0  0  0  0  0  0  0  0
    3.3779   -1.2247   -0.7224 H   0  0  0  0  0  0  0  0  0  0  0  0
    4.9626   -0.2729   -2.3259 H   0  0  0  0  0  0  0  0  0  0  0  0
    7.2078   -3.8970   -2.2744 H   0  0  0  0  0  0  0  0  0  0  0  0
    5.6174   -4.8583   -0.6750 H   0  0  0  0  0  0  0  0  0  0  0  0
   -0.8306    0.2355    4.3696 H   0  0  0  0  0  0  0  0  0  0  0  0
   -1.8087   -0.6795    6.4231 H   0  0  0  0  0  0  0  0  0  0  0  0
   -4.0258   -3.4970    4.1149 H   0  0  0  0  0  0  0  0  0  0  0  0
   -3.0395   -2.5951    2.0608 H   0  0  0  0  0  0  0  0  0  0  0  0
   -2.9892    1.2664    2.6020 H   0  0  0  0  0  0  0  0  0  0  0  0
   -2.8056    3.7112    2.5111 H   0  0  0  0  0  0  0  0  0  0  0  0
    1.1664    3.3540    1.0023 H   0  0  0  0  0  0  0  0  0  0  0  0
    0.9838    0.9131    1.0833 H   0  0  0  0  0  0  0  0  0  0  0  0
   -3.8251   -3.7495    6.5618 H   0  0  0  0  0  0  0  0  0  0  0  0
   -2.9497   -2.5437    7.5158 H   0  0  0  0  0  0  0  0  0  0  0  0
   -1.2587    5.6694    2.4646 H   0  0  0  0  0  0  0  0  0  0  0  0
    0.3214    5.5222    1.6820 H   0  0  0  0  0  0  0  0  0  0  0  0
    7.5995   -2.1939   -4.0208 H   0  0  0  0  0  0  0  0  0  0  0  0
    6.7025   -0.6688   -3.9981 H   0  0  0  0  0  0  0  0  0  0  0  0
    1.3396   -9.6171   -0.1794 H   0  0  0  0  0  0  0  0  0  0  0  0
    1.3026   -9.1564   -1.8877 H   0  0  0  0  0  0  0  0  0  0  0  0
    8.8449   -1.4882   -1.9761 H   0  0  0  0  0  0  0  0  0  0  0  0
    9.0595   -0.3218   -3.2863 H   0  0  0  0  0  0  0  0  0  0  0  0
    7.9523    0.0321   -1.9550 H   0  0  0  0  0  0  0  0  0  0  0  0
    3.7995  -10.0030   -0.3393 H   0  0  0  0  0  0  0  0  0  0  0  0
    2.9243  -11.0010   -1.5058 H   0  0  0  0  0  0  0  0  0  0  0  0
    3.7640   -9.5414   -2.0411 H   0  0  0  0  0  0  0  0  0  0  0  0
   -5.6335   -2.0860    6.1240 H   0  0  0  0  0  0  0  0  0  0  0  0
   -5.4033   -2.3335    7.8584 H   0  0  0  0  0  0  0  0  0  0  0  0
   -4.7616   -0.8848    7.0761 H   0  0  0  0  0  0  0  0  0  0  0  0
   -2.3813    5.3813    0.2580 H   0  0  0  0  0  0  0  0  0  0  0  0
   -1.2691    6.7542    0.2246 H   0  0  0  0  0  0  0  0  0  0  0  0
   -0.8108    5.2214   -0.5265 H   0  0  0  0  0  0  0  0  0  0  0  0
   -6.7102   -1.0738   -4.8377 H   0  0  0  0  0  0  0  0  0  0  0  0
    8.2262   -4.2438    7.6295 H   0  0  0  0  0  0  0  0  0  0  0  0
    7.5256   -7.7130    2.6090 H   0  0  0  0  0  0  0  0  0  0  0  0
    7.6966   -7.6930    4.3842 H   0  0  0  0  0  0  0  0  0  0  0  0
    5.1045   -7.1144    2.8575 H   0  0  0  0  0  0  0  0  0  0  0  0
    5.4842   -8.6078    3.7283 H   0  0  0  0  0  0  0  0  0  0  0  0
    5.2945   -7.0942    4.6194 H   0  0  0  0  0  0  0  0  0  0  0  0
    9.7197   -6.4184    4.8888 H   0  0  0  0  0  0  0  0  0  0  0  0
   13.2756   -8.5276    8.2377 H   0  0  0  0  0  0  0  0  0  0  0  0
    9.4220   -7.2866   11.1345 H   0  0  0  0  0  0  0  0  0  0  0  0
   -5.6863    2.8700   -0.2087 H   0  0  0  0  0  0  0  0  0  0  0  0
   -6.1193    2.7039   -1.9318 H   0  0  0  0  0  0  0  0  0  0  0  0
   -3.7504    2.2425   -2.5026 H   0  0  0  0  0  0  0  0  0  0  0  0
   -3.8991    3.7939   -1.6754 H   0  0  0  0  0  0  0  0  0  0  0  0
   -3.2895    2.3826   -0.7970 H   0  0  0  0  0  0  0  0  0  0  0  0
   -8.0629    1.1186   -1.9941 H   0  0  0  0  0  0  0  0  0  0  0  0
  -12.5243    2.1689   -4.6900 H   0  0  0  0  0  0  0  0  0  0  0  0
   -9.1359    1.2133   -8.2104 H   0  0  0  0  0  0  0  0  0  0  0  0
  1  2  2  0  0  0  0
  2  3  1  0  0  0  0
  2  9  1  0  0  0  0
  3103  1  0  0  0  0
  4 13  1  0  0  0  0
  4  3  2  0  0  0  0
  5  4  1  0  0  0  0
  6  5  2  0  0  0  0
  6  1  1  0  0  0  0
  7  1  1  0  0  0  0
  7  8  1  0  0  0  0
  8 10  1  0  0  0  0
  8  9  2  0  0  0  0
  9 12  1  0  0  0  0
 10 11  2  0  0  0  0
 11 12  1  0  0  0  0
 11 19  1  0  0  0  0
 13 22  1  0  0  0  0
 13 21  1  0  0  0  0
 14 13  1  0  0  0  0
 15  5  1  0  0  0  0
 15 14  2  0  0  0  0
 16106  1  0  0  0  0
 16 14  1  0  0  0  0
 17 16  2  0  0  0  0
 18 17  1  0  0  0  0
 18 15  1  0  0  0  0
 19 57  1  0  0  0  0
 20 56  2  0  0  0  0
 20 17  1  0  0  0  0
 21 35  1  0  0  0  0
 22 40  2  0  0  0  0
 23  7  1  0  0  0  0
 23 29  2  0  0  0  0
 24  7  1  0  0  0  0
 25 23  1  0  0  0  0
 26 25  2  0  0  0  0
 26 27  1  0  0  0  0
 27 28  2  0  0  0  0
 28 29  1  0  0  0  0
 28109  1  0  0  0  0
 29110  1  0  0  0  0
 30111  1  0  0  0  0
 30 24  2  0  0  0  0
 31 30  1  0  0  0  0
 32 31  2  0  0  0  0
 32 33  1  0  0  0  0
 33 34  2  0  0  0  0
 34114  1  0  0  0  0
 34 24  1  0  0  0  0
 35115  1  0  0  0  0
 35 36  2  0  0  0  0
 36116  1  0  0  0  0
 37 36  1  0  0  0  0
 37 45  1  0  0  0  0
 38 37  2  0  0  0  0
 39 21  2  0  0  0  0
 39 38  1  0  0  0  0
 40119  1  0  0  0  0
 41 40  1  0  0  0  0
 41120  1  0  0  0  0
 42 41  2  0  0  0  0
 43 44  2  0  0  0  0
 43 42  1  0  0  0  0
 44 22  1  0  0  0  0
 45 51  1  0  0  0  0
 45124  1  0  0  0  0
 46126  1  0  0  0  0
 46 42  1  0  0  0  0
 46125  1  0  0  0  0
 47 49  1  0  0  0  0
 47 32  1  0  0  0  0
 48 27  1  0  0  0  0
 48129  1  0  0  0  0
 49131  1  0  0  0  0
 49133  1  0  0  0  0
 50 48  1  0  0  0  0
 50134  1  0  0  0  0
 51139  1  0  0  0  0
 51138  1  0  0  0  0
 52 46  1  0  0  0  0
 53 20  1  0  0  0  0
 54 53  1  0  0  0  0
 54 55  2  0  0  0  0
 55 85  1  0  0  0  0
 55 56  1  0  0  0  0
 56 82  1  0  0  0  0
 57 58  1  0  0  0  0
 58144  1  0  0  0  0
 59 64  1  0  0  0  0
 59 58  2  0  0  0  0
 60 19  2  0  0  0  0
 60 59  1  0  0  0  0
 61 62  1  0  0  0  0
 61 60  1  0  0  0  0
 62 63  1  0  0  0  0
 62146  1  0  0  0  0
 63148  1  0  0  0  0
 63149  1  0  0  0  0
 64 65  2  0  0  0  0
 65 69  1  0  0  0  0
 66 65  1  0  0  0  0
 66 67  1  0  0  0  0
 67 70  2  0  0  0  0
 67 68  1  0  0  0  0
 68 73  2  0  0  0  0
 69 75  2  0  0  0  0
 69 68  1  0  0  0  0
 70 71  1  0  0  0  0
 71 81  1  0  0  0  0
 71 72  2  0  0  0  0
 72 80  1  0  0  0  0
 73 72  1  0  0  0  0
 73152  1  0  0  0  0
 74 66  2  0  0  0  0
 75 77  1  0  0  0  0
 76 75  1  0  0  0  0
 77 78  3  0  0  0  0
 79 76  3  0  0  0  0
 83 82  1  0  0  0  0
 83153  1  0  0  0  0
 84 83  1  0  0  0  0
 84157  1  0  0  0  0
 85158  1  0  0  0  0
 86 87  1  0  0  0  0
 86 85  2  0  0  0  0
 87 95  2  0  0  0  0
 88 87  1  0  0  0  0
 89 90  1  0  0  0  0
 89 88  2  0  0  0  0
 90 86  1  0  0  0  0
 91 88  1  0  0  0  0
 91159  1  0  0  0  0
 92 91  2  0  0  0  0
 93 94  2  0  0  0  0
 93 92  1  0  0  0  0
 94 89  1  0  0  0  0
 96 90  2  0  0  0  0
 96 97  1  0  0  0  0
 97 99  3  0  0  0  0
 98 96  1  0  0  0  0
100 98  3  0  0  0  0
101 92  1  0  0  0  0
102 93  1  0  0  0  0
104  6  1  0  0  0  0
105 10  1  0  0  0  0
107 25  1  0  0  0  0
108 26  1  0  0  0  0
112 31  1  0  0  0  0
113 33  1  0  0  0  0
117 38  1  0  0  0  0
118 39  1  0  0  0  0
121 43  1  0  0  0  0
122 44  1  0  0  0  0
123 45  1  0  0  0  0
127 47  1  0  0  0  0
128 47  1  0  0  0  0
130 48  1  0  0  0  0
132 49  1  0  0  0  0
135 50  1  0  0  0  0
136 50  1  0  0  0  0
137 51  1  0  0  0  0
140 52  1  0  0  0  0
141 52  1  0  0  0  0
142 52  1  0  0  0  0
143 54  1  0  0  0  0
145 62  1  0  0  0  0
147 63  1  0  0  0  0
150 64  1  0  0  0  0
151 70  1  0  0  0  0
154 83  1  0  0  0  0
155 84  1  0  0  0  0
156 84  1  0  0  0  0
160 94  1  0  0  0  0
M  END
