ICz-RdCN2.sdf
  xtb     12202113133D
 energy: -184.884344536186 gnorm: 0.000303794909 xtb: 6.4.1 (unknown)
104114  0     0  0            999 V2000
    4.0673   -2.3511    3.6476 C   0  0  0  0  0  0  0  0  0  0  0  0
    5.0734   -3.3153    3.2201 C   0  0  0  0  0  0  0  0  0  0  0  0
    4.7312   -4.3710    2.3886 C   0  0  0  0  0  0  0  0  0  0  0  0
    5.6688   -5.1913    1.7674 C   0  0  0  0  0  0  0  0  0  0  0  0
    7.0368   -5.0304    1.9406 C   0  0  0  0  0  0  0  0  0  0  0  0
    7.4280   -4.0359    2.8787 C   0  0  0  0  0  0  0  0  0  0  0  0
    6.4561   -3.1724    3.4982 C   0  0  0  0  0  0  0  0  0  0  0  0
    8.6688   -3.7494    3.2630 N   0  0  0  0  0  0  0  0  0  0  0  0
    8.6200   -2.5304    4.3109 S   0  0  0  0  0  0  0  0  0  0  0  0
    7.0332   -2.2937    4.3187 N   0  0  0  0  0  0  0  0  0  0  0  0
    8.0491   -5.7274    1.2122 C   0  0  0  0  0  0  0  0  0  0  0  0
    7.9217   -6.4382    0.0680 C   0  0  0  0  0  0  0  0  0  0  0  0
    9.0836   -6.9937   -0.6290 C   0  0  0  0  0  0  0  0  0  0  0  0
    8.7057   -7.5629   -1.8411 N   0  0  0  0  0  0  0  0  0  0  0  0
    7.3823   -7.5181   -2.1351 C   0  0  0  0  0  0  0  0  0  0  0  0
    6.4650   -6.7453   -0.8566 S   0  0  0  0  0  0  0  0  0  0  0  0
    6.7282   -7.9976   -3.2410 C   0  0  0  0  0  0  0  0  0  0  0  0
    9.7346   -8.0816   -2.7239 C   0  0  0  0  0  0  0  0  0  0  0  0
   10.1261   -7.0600   -3.7851 C   0  0  0  0  0  0  0  0  0  0  0  0
   10.2276   -6.9701   -0.2401 O   0  0  0  0  0  0  0  0  0  0  0  0
    7.3058   -8.6454   -4.3463 C   0  0  0  0  0  0  0  0  0  0  0  0
    5.3281   -7.8453   -3.3284 C   0  0  0  0  0  0  0  0  0  0  0  0
    4.1901   -7.7222   -3.4029 N   0  0  0  0  0  0  0  0  0  0  0  0
    7.7117   -9.1754   -5.2810 N   0  0  0  0  0  0  0  0  0  0  0  0
   -5.7024    3.9114    0.7621 C   0  0  0  0  0  0  0  0  0  0  0  0
   -5.1719    4.5851   -0.3274 C   0  0  0  0  0  0  0  0  0  0  0  0
   -5.9467    5.0723   -1.3764 C   0  0  0  0  0  0  0  0  0  0  0  0
   -7.3279    4.9392   -1.4121 C   0  0  0  0  0  0  0  0  0  0  0  0
   -7.9243    4.3663   -0.2556 C   0  0  0  0  0  0  0  0  0  0  0  0
   -7.1168    3.8365    0.8130 C   0  0  0  0  0  0  0  0  0  0  0  0
   -9.2247    4.2039   -0.0278 N   0  0  0  0  0  0  0  0  0  0  0  0
   -9.4163    3.4758    1.3934 S   0  0  0  0  0  0  0  0  0  0  0  0
   -7.8683    3.3148    1.7833 N   0  0  0  0  0  0  0  0  0  0  0  0
   -8.1569    5.2640   -2.5304 C   0  0  0  0  0  0  0  0  0  0  0  0
   -7.7848    5.4380   -3.8193 C   0  0  0  0  0  0  0  0  0  0  0  0
   -8.7641    5.6426   -4.8887 C   0  0  0  0  0  0  0  0  0  0  0  0
   -8.1431    5.6308   -6.1335 N   0  0  0  0  0  0  0  0  0  0  0  0
   -6.7962    5.4685   -6.1278 C   0  0  0  0  0  0  0  0  0  0  0  0
   -6.1708    5.3369   -4.4954 S   0  0  0  0  0  0  0  0  0  0  0  0
   -5.9327    5.3917   -7.1903 C   0  0  0  0  0  0  0  0  0  0  0  0
   -8.9494    5.8268   -7.3245 C   0  0  0  0  0  0  0  0  0  0  0  0
   -8.8941    7.2708   -7.8080 C   0  0  0  0  0  0  0  0  0  0  0  0
   -9.9567    5.7778   -4.7480 O   0  0  0  0  0  0  0  0  0  0  0  0
   -4.5557    5.2085   -6.9422 C   0  0  0  0  0  0  0  0  0  0  0  0
   -6.2647    5.4683   -8.5538 C   0  0  0  0  0  0  0  0  0  0  0  0
   -6.4646    5.5226   -9.6835 N   0  0  0  0  0  0  0  0  0  0  0  0
   -3.4352    5.0627   -6.7444 N   0  0  0  0  0  0  0  0  0  0  0  0
    4.3968   -0.9850    3.6805 C   0  0  0  0  0  0  0  0  0  0  0  0
    3.4246   -0.0181    3.7992 C   0  0  0  0  0  0  0  0  0  0  0  0
    2.0949   -0.4093    3.9036 C   0  0  0  0  0  0  0  0  0  0  0  0
    1.7719   -1.7881    3.9891 C   0  0  0  0  0  0  0  0  0  0  0  0
    2.7495   -2.7574    3.8560 C   0  0  0  0  0  0  0  0  0  0  0  0
    0.8513    0.2961    3.8464 C   0  0  0  0  0  0  0  0  0  0  0  0
   -0.1714   -0.6918    3.9335 C   0  0  0  0  0  0  0  0  0  0  0  0
    0.4114   -1.9315    4.0954 N   0  0  0  0  0  0  0  0  0  0  0  0
   -0.2983   -3.1823    4.1250 C   0  0  0  0  0  0  0  0  0  0  0  0
   -0.5914   -3.7079    2.7199 C   0  0  0  0  0  0  0  0  0  0  0  0
    0.5546    1.6291    3.5925 C   0  0  0  0  0  0  0  0  0  0  0  0
   -0.7732    1.9327    3.3564 C   0  0  0  0  0  0  0  0  0  0  0  0
   -1.7957    0.9445    3.4442 C   0  0  0  0  0  0  0  0  0  0  0  0
   -1.5061   -0.3754    3.7660 C   0  0  0  0  0  0  0  0  0  0  0  0
   -1.3231    3.1114    2.8982 N   0  0  0  0  0  0  0  0  0  0  0  0
   -2.6516    2.8990    2.6302 C   0  0  0  0  0  0  0  0  0  0  0  0
   -3.0002    1.5736    2.9976 C   0  0  0  0  0  0  0  0  0  0  0  0
   -0.6131    4.3509    2.7345 C   0  0  0  0  0  0  0  0  0  0  0  0
   -0.6172    5.1734    4.0226 C   0  0  0  0  0  0  0  0  0  0  0  0
   -3.5596    3.7163    1.9805 C   0  0  0  0  0  0  0  0  0  0  0  0
   -4.8273    3.2112    1.6946 C   0  0  0  0  0  0  0  0  0  0  0  0
   -5.2024    1.9401    2.1624 C   0  0  0  0  0  0  0  0  0  0  0  0
   -4.3000    1.1212    2.8020 C   0  0  0  0  0  0  0  0  0  0  0  0
    3.6904   -4.5294    2.1515 H   0  0  0  0  0  0  0  0  0  0  0  0
    5.3029   -5.9696    1.1161 H   0  0  0  0  0  0  0  0  0  0  0  0
    9.0617   -5.6105    1.5808 H   0  0  0  0  0  0  0  0  0  0  0  0
    9.3829   -9.0068   -3.1835 H   0  0  0  0  0  0  0  0  0  0  0  0
   10.5937   -8.2975   -2.0829 H   0  0  0  0  0  0  0  0  0  0  0  0
   10.9148   -7.4729   -4.4064 H   0  0  0  0  0  0  0  0  0  0  0  0
   10.4913   -6.1502   -3.3137 H   0  0  0  0  0  0  0  0  0  0  0  0
    9.2815   -6.8150   -4.4252 H   0  0  0  0  0  0  0  0  0  0  0  0
   -4.0997    4.6777   -0.4090 H   0  0  0  0  0  0  0  0  0  0  0  0
   -5.4382    5.5592   -2.1939 H   0  0  0  0  0  0  0  0  0  0  0  0
   -9.2232    5.2942   -2.3394 H   0  0  0  0  0  0  0  0  0  0  0  0
   -9.9725    5.5721   -7.0345 H   0  0  0  0  0  0  0  0  0  0  0  0
   -8.6123    5.1412   -8.1040 H   0  0  0  0  0  0  0  0  0  0  0  0
   -9.5315    7.3803   -8.6801 H   0  0  0  0  0  0  0  0  0  0  0  0
   -7.8820    7.5528   -8.0885 H   0  0  0  0  0  0  0  0  0  0  0  0
   -9.2481    7.9415   -7.0284 H   0  0  0  0  0  0  0  0  0  0  0  0
    5.4281   -0.6988    3.5544 H   0  0  0  0  0  0  0  0  0  0  0  0
    3.6864    1.0286    3.7726 H   0  0  0  0  0  0  0  0  0  0  0  0
    2.5031   -3.8076    3.8908 H   0  0  0  0  0  0  0  0  0  0  0  0
    0.3049   -3.9063    4.6796 H   0  0  0  0  0  0  0  0  0  0  0  0
   -1.2334   -3.0334    4.6719 H   0  0  0  0  0  0  0  0  0  0  0  0
   -1.2005   -2.9946    2.1700 H   0  0  0  0  0  0  0  0  0  0  0  0
   -1.1234   -4.6537    2.7763 H   0  0  0  0  0  0  0  0  0  0  0  0
    0.3355   -3.8592    2.1717 H   0  0  0  0  0  0  0  0  0  0  0  0
    1.3412    2.3634    3.5224 H   0  0  0  0  0  0  0  0  0  0  0  0
   -2.2891   -1.1155    3.8121 H   0  0  0  0  0  0  0  0  0  0  0  0
   -1.0823    4.9185    1.9271 H   0  0  0  0  0  0  0  0  0  0  0  0
    0.4146    4.1275    2.4355 H   0  0  0  0  0  0  0  0  0  0  0  0
   -0.1455    4.6140    4.8270 H   0  0  0  0  0  0  0  0  0  0  0  0
   -0.0740    6.1032    3.8768 H   0  0  0  0  0  0  0  0  0  0  0  0
   -1.6381    5.4060    4.3169 H   0  0  0  0  0  0  0  0  0  0  0  0
   -3.2961    4.7189    1.6799 H   0  0  0  0  0  0  0  0  0  0  0  0
   -6.2020    1.5898    1.9638 H   0  0  0  0  0  0  0  0  0  0  0  0
   -4.5858    0.1283    3.1139 H   0  0  0  0  0  0  0  0  0  0  0  0
  2  3  2  0  0  0  0
  3  4  1  0  0  0  0
  4  5  2  0  0  0  0
  5  6  1  0  0  0  0
  6  7  1  0  0  0  0
  7  2  1  0  0  0  0
  6  8  2  0  0  0  0
  8  9  1  0  0  0  0
  9 10  1  0  0  0  0
 10  7  2  0  0  0  0
  2  1  1  0  0  0  0
 11 12  2  0  0  0  0
 12 13  1  0  0  0  0
 13 14  1  0  0  0  0
 14 15  1  0  0  0  0
 15 16  1  0  0  0  0
 16 12  1  0  0  0  0
 15 17  2  0  0  0  0
 14 18  1  0  0  0  0
 18 19  1  0  0  0  0
 13 20  2  0  0  0  0
 17 21  1  0  0  0  0
 17 22  1  0  0  0  0
 22 23  3  0  0  0  0
 21 24  3  0  0  0  0
 11  5  1  0  0  0  0
 25 26  2  0  0  0  0
 26 27  1  0  0  0  0
 27 28  2  0  0  0  0
 28 29  1  0  0  0  0
 29 30  1  0  0  0  0
 30 25  1  0  0  0  0
 29 31  2  0  0  0  0
 31 32  1  0  0  0  0
 32 33  1  0  0  0  0
 33 30  2  0  0  0  0
 34 35  2  0  0  0  0
 35 36  1  0  0  0  0
 36 37  1  0  0  0  0
 37 38  1  0  0  0  0
 38 39  1  0  0  0  0
 39 35  1  0  0  0  0
 38 40  2  0  0  0  0
 37 41  1  0  0  0  0
 41 42  1  0  0  0  0
 36 43  2  0  0  0  0
 40 44  1  0  0  0  0
 40 45  1  0  0  0  0
 45 46  3  0  0  0  0
 44 47  3  0  0  0  0
 28 34  1  0  0  0  0
  1 48  2  0  0  0  0
 48 49  1  0  0  0  0
 49 50  2  0  0  0  0
 50 51  1  0  0  0  0
 51 52  2  0  0  0  0
 52  1  1  0  0  0  0
 50 53  1  0  0  0  0
 53 54  2  0  0  0  0
 54 55  1  0  0  0  0
 55 51  1  0  0  0  0
 55 56  1  0  0  0  0
 56 57  1  0  0  0  0
 53 58  1  0  0  0  0
 58 59  2  0  0  0  0
 59 60  1  0  0  0  0
 60 61  2  0  0  0  0
 61 54  1  0  0  0  0
 59 62  1  0  0  0  0
 62 63  1  0  0  0  0
 63 64  2  0  0  0  0
 64 60  1  0  0  0  0
 62 65  1  0  0  0  0
 65 66  1  0  0  0  0
 63 67  1  0  0  0  0
 67 68  2  0  0  0  0
 68 69  1  0  0  0  0
 69 70  2  0  0  0  0
 70 64  1  0  0  0  0
 68 25  1  0  0  0  0
  3 71  1  0  0  0  0
  4 72  1  0  0  0  0
 11 73  1  0  0  0  0
 18 74  1  0  0  0  0
 18 75  1  0  0  0  0
 19 76  1  0  0  0  0
 19 77  1  0  0  0  0
 19 78  1  0  0  0  0
 26 79  1  0  0  0  0
 27 80  1  0  0  0  0
 34 81  1  0  0  0  0
 41 82  1  0  0  0  0
 41 83  1  0  0  0  0
 42 84  1  0  0  0  0
 42 85  1  0  0  0  0
 42 86  1  0  0  0  0
 48 87  1  0  0  0  0
 49 88  1  0  0  0  0
 52 89  1  0  0  0  0
 56 90  1  0  0  0  0
 56 91  1  0  0  0  0
 57 92  1  0  0  0  0
 57 93  1  0  0  0  0
 57 94  1  0  0  0  0
 58 95  1  0  0  0  0
 61 96  1  0  0  0  0
 65 97  1  0  0  0  0
 65 98  1  0  0  0  0
 66 99  1  0  0  0  0
 66100  1  0  0  0  0
 66101  1  0  0  0  0
 67102  1  0  0  0  0
 69103  1  0  0  0  0
 70104  1  0  0  0  0
M  END
