ICz-Rd2.sdf
  xtb     12202113123D
 energy: -167.011527285960 gnorm: 0.000458305689 xtb: 6.4.1 (unknown)
 96106  0     0  0            999 V2000
    2.3931    5.9502    0.2261 C   0  0  0  0  0  0  0  0  0  0  0  0
    2.9106    6.1785    1.4911 C   0  0  0  0  0  0  0  0  0  0  0  0
    3.3653    7.4225    1.9276 C   0  0  0  0  0  0  0  0  0  0  0  0
    3.3246    8.5557    1.1246 C   0  0  0  0  0  0  0  0  0  0  0  0
    2.7772    8.3706   -0.1787 C   0  0  0  0  0  0  0  0  0  0  0  0
    2.3273    7.0803   -0.6279 C   0  0  0  0  0  0  0  0  0  0  0  0
    2.6146    9.3080   -1.1088 N   0  0  0  0  0  0  0  0  0  0  0  0
    1.9540    8.6369   -2.4146 S   0  0  0  0  0  0  0  0  0  0  0  0
    1.8452    7.1321   -1.8704 N   0  0  0  0  0  0  0  0  0  0  0  0
    3.7660    9.8752    1.4485 C   0  0  0  0  0  0  0  0  0  0  0  0
   -2.2423   -6.8552   -2.1740 C   0  0  0  0  0  0  0  0  0  0  0  0
   -2.6692   -7.0973   -3.4680 C   0  0  0  0  0  0  0  0  0  0  0  0
   -3.0692   -8.3574   -3.9155 C   0  0  0  0  0  0  0  0  0  0  0  0
   -3.1009   -9.4665   -3.0885 C   0  0  0  0  0  0  0  0  0  0  0  0
   -2.6259   -9.2794   -1.7675 C   0  0  0  0  0  0  0  0  0  0  0  0
   -2.2120   -7.9791   -1.3094 C   0  0  0  0  0  0  0  0  0  0  0  0
   -2.4454  -10.2194   -0.8425 N   0  0  0  0  0  0  0  0  0  0  0  0
   -1.8557   -9.5305    0.4822 S   0  0  0  0  0  0  0  0  0  0  0  0
   -1.7692   -8.0212   -0.0519 N   0  0  0  0  0  0  0  0  0  0  0  0
   -3.5381  -10.7537   -3.5669 C   0  0  0  0  0  0  0  0  0  0  0  0
    1.9534    4.6293   -0.2096 C   0  0  0  0  0  0  0  0  0  0  0  0
   -4.2462  -11.6570   -2.8579 C   0  0  0  0  0  0  0  0  0  0  0  0
   -4.9458  -11.4500   -1.5829 C   0  0  0  0  0  0  0  0  0  0  0  0
   -5.5101  -12.6428   -1.1574 N   0  0  0  0  0  0  0  0  0  0  0  0
   -5.4050  -13.7195   -1.9750 C   0  0  0  0  0  0  0  0  0  0  0  0
   -4.5355  -13.2881   -3.4405 S   0  0  0  0  0  0  0  0  0  0  0  0
   -5.9941  -15.2086   -1.6671 S   0  0  0  0  0  0  0  0  0  0  0  0
   -6.2470  -12.6983    0.0904 C   0  0  0  0  0  0  0  0  0  0  0  0
   -7.7438  -12.5361   -0.1428 C   0  0  0  0  0  0  0  0  0  0  0  0
   -5.0945  -10.4087   -0.9865 O   0  0  0  0  0  0  0  0  0  0  0  0
    4.3660   10.4211    2.5386 C   0  0  0  0  0  0  0  0  0  0  0  0
    4.8050    9.8642    3.8186 C   0  0  0  0  0  0  0  0  0  0  0  0
    5.4045   10.8467    4.5907 N   0  0  0  0  0  0  0  0  0  0  0  0
    5.4738   12.1032    4.0832 C   0  0  0  0  0  0  0  0  0  0  0  0
    4.7530   12.1429    2.4881 S   0  0  0  0  0  0  0  0  0  0  0  0
    6.1376   13.3938    4.8305 S   0  0  0  0  0  0  0  0  0  0  0  0
    5.9105   10.5299    5.9127 C   0  0  0  0  0  0  0  0  0  0  0  0
    4.8955   10.8822    6.9926 C   0  0  0  0  0  0  0  0  0  0  0  0
    4.7025    8.7209    4.2132 O   0  0  0  0  0  0  0  0  0  0  0  0
    2.1563    4.2264   -1.5400 C   0  0  0  0  0  0  0  0  0  0  0  0
    1.7816    2.9755   -1.9749 C   0  0  0  0  0  0  0  0  0  0  0  0
    1.1770    2.1024   -1.0787 C   0  0  0  0  0  0  0  0  0  0  0  0
    0.9578    2.5090    0.2624 C   0  0  0  0  0  0  0  0  0  0  0  0
    1.3480    3.7629    0.6999 C   0  0  0  0  0  0  0  0  0  0  0  0
    0.6624    0.7720   -1.1921 C   0  0  0  0  0  0  0  0  0  0  0  0
    0.1452    0.4334    0.0909 C   0  0  0  0  0  0  0  0  0  0  0  0
    0.3522    1.4898    0.9531 N   0  0  0  0  0  0  0  0  0  0  0  0
   -0.1055    1.5512    2.3147 C   0  0  0  0  0  0  0  0  0  0  0  0
   -1.5423    2.0649    2.4044 C   0  0  0  0  0  0  0  0  0  0  0  0
    0.6068   -0.1192   -2.2557 C   0  0  0  0  0  0  0  0  0  0  0  0
    0.0273   -1.3487   -2.0050 C   0  0  0  0  0  0  0  0  0  0  0  0
   -0.5022   -1.6834   -0.7254 C   0  0  0  0  0  0  0  0  0  0  0  0
   -0.4475   -0.7912    0.3375 C   0  0  0  0  0  0  0  0  0  0  0  0
   -0.1422   -2.4189   -2.8572 N   0  0  0  0  0  0  0  0  0  0  0  0
   -0.7942   -3.4195   -2.1812 C   0  0  0  0  0  0  0  0  0  0  0  0
   -1.0290   -3.0095   -0.8445 C   0  0  0  0  0  0  0  0  0  0  0  0
    0.2199   -2.4407   -4.2482 C   0  0  0  0  0  0  0  0  0  0  0  0
   -0.9004   -1.8981   -5.1354 C   0  0  0  0  0  0  0  0  0  0  0  0
   -1.1925   -4.6677   -2.6262 C   0  0  0  0  0  0  0  0  0  0  0  0
   -1.8209   -5.5298   -1.7285 C   0  0  0  0  0  0  0  0  0  0  0  0
   -2.0456   -5.1220   -0.4037 C   0  0  0  0  0  0  0  0  0  0  0  0
   -1.6610   -3.8763    0.0392 C   0  0  0  0  0  0  0  0  0  0  0  0
    3.0001    5.3440    2.1705 H   0  0  0  0  0  0  0  0  0  0  0  0
    3.7717    7.5030    2.9220 H   0  0  0  0  0  0  0  0  0  0  0  0
    3.5838   10.5728    0.6371 H   0  0  0  0  0  0  0  0  0  0  0  0
   -2.7258   -6.2725   -4.1623 H   0  0  0  0  0  0  0  0  0  0  0  0
   -3.4105   -8.4618   -4.9355 H   0  0  0  0  0  0  0  0  0  0  0  0
   -3.2558  -11.0117   -4.5806 H   0  0  0  0  0  0  0  0  0  0  0  0
   -5.8671  -11.8825    0.7095 H   0  0  0  0  0  0  0  0  0  0  0  0
   -6.0366  -13.6601    0.5639 H   0  0  0  0  0  0  0  0  0  0  0  0
   -8.1179  -13.3409   -0.7711 H   0  0  0  0  0  0  0  0  0  0  0  0
   -7.9485  -11.5827   -0.6243 H   0  0  0  0  0  0  0  0  0  0  0  0
   -8.2652  -12.5669    0.8094 H   0  0  0  0  0  0  0  0  0  0  0  0
    6.8356   11.0913    6.0623 H   0  0  0  0  0  0  0  0  0  0  0  0
    6.1167    9.4571    5.9173 H   0  0  0  0  0  0  0  0  0  0  0  0
    4.6797   11.9477    6.9744 H   0  0  0  0  0  0  0  0  0  0  0  0
    5.2994   10.6255    7.9674 H   0  0  0  0  0  0  0  0  0  0  0  0
    3.9722   10.3286    6.8383 H   0  0  0  0  0  0  0  0  0  0  0  0
    2.6280    4.9136   -2.2229 H   0  0  0  0  0  0  0  0  0  0  0  0
    1.9532    2.6763   -2.9977 H   0  0  0  0  0  0  0  0  0  0  0  0
    1.1576    4.0875    1.7116 H   0  0  0  0  0  0  0  0  0  0  0  0
    0.5635    2.2084    2.8764 H   0  0  0  0  0  0  0  0  0  0  0  0
   -0.0371    0.5498    2.7486 H   0  0  0  0  0  0  0  0  0  0  0  0
   -1.8654    2.1002    3.4413 H   0  0  0  0  0  0  0  0  0  0  0  0
   -1.6113    3.0642    1.9809 H   0  0  0  0  0  0  0  0  0  0  0  0
   -2.2104    1.4096    1.8504 H   0  0  0  0  0  0  0  0  0  0  0  0
    1.0012    0.1517   -3.2222 H   0  0  0  0  0  0  0  0  0  0  0  0
   -0.8533   -1.0572    1.3007 H   0  0  0  0  0  0  0  0  0  0  0  0
    0.4546   -3.4711   -4.5287 H   0  0  0  0  0  0  0  0  0  0  0  0
    1.1250   -1.8415   -4.3796 H   0  0  0  0  0  0  0  0  0  0  0  0
   -1.1257   -0.8682   -4.8689 H   0  0  0  0  0  0  0  0  0  0  0  0
   -0.6030   -1.9331   -6.1801 H   0  0  0  0  0  0  0  0  0  0  0  0
   -1.8028   -2.4913   -5.0069 H   0  0  0  0  0  0  0  0  0  0  0  0
   -0.9911   -4.9879   -3.6371 H   0  0  0  0  0  0  0  0  0  0  0  0
   -2.5392   -5.8030    0.2698 H   0  0  0  0  0  0  0  0  0  0  0  0
   -1.8466   -3.5763    1.0594 H   0  0  0  0  0  0  0  0  0  0  0  0
  1  2  2  0  0  0  0
  2  3  1  0  0  0  0
  3  4  2  0  0  0  0
  4  5  1  0  0  0  0
  5  6  1  0  0  0  0
  6  1  1  0  0  0  0
  5  7  2  0  0  0  0
  7  8  1  0  0  0  0
  8  9  1  0  0  0  0
  9  6  2  0  0  0  0
  4 10  1  0  0  0  0
 11 12  2  0  0  0  0
 12 13  1  0  0  0  0
 13 14  2  0  0  0  0
 14 15  1  0  0  0  0
 15 16  1  0  0  0  0
 16 11  1  0  0  0  0
 15 17  2  0  0  0  0
 17 18  1  0  0  0  0
 18 19  1  0  0  0  0
 19 16  2  0  0  0  0
 14 20  1  0  0  0  0
  1 21  1  0  0  0  0
 20 22  2  0  0  0  0
 22 23  1  0  0  0  0
 23 24  1  0  0  0  0
 24 25  1  0  0  0  0
 25 26  1  0  0  0  0
 26 22  1  0  0  0  0
 25 27  2  0  0  0  0
 24 28  1  0  0  0  0
 28 29  1  0  0  0  0
 23 30  2  0  0  0  0
 10 31  2  0  0  0  0
 31 32  1  0  0  0  0
 32 33  1  0  0  0  0
 33 34  1  0  0  0  0
 34 35  1  0  0  0  0
 35 31  1  0  0  0  0
 34 36  2  0  0  0  0
 33 37  1  0  0  0  0
 37 38  1  0  0  0  0
 32 39  2  0  0  0  0
 21 40  2  0  0  0  0
 40 41  1  0  0  0  0
 41 42  2  0  0  0  0
 42 43  1  0  0  0  0
 43 44  2  0  0  0  0
 44 21  1  0  0  0  0
 42 45  1  0  0  0  0
 45 46  2  0  0  0  0
 46 47  1  0  0  0  0
 47 43  1  0  0  0  0
 47 48  1  0  0  0  0
 48 49  1  0  0  0  0
 45 50  1  0  0  0  0
 50 51  2  0  0  0  0
 51 52  1  0  0  0  0
 52 53  2  0  0  0  0
 53 46  1  0  0  0  0
 51 54  1  0  0  0  0
 54 55  1  0  0  0  0
 55 56  2  0  0  0  0
 56 52  1  0  0  0  0
 54 57  1  0  0  0  0
 57 58  1  0  0  0  0
 55 59  1  0  0  0  0
 59 60  2  0  0  0  0
 60 61  1  0  0  0  0
 61 62  2  0  0  0  0
 62 56  1  0  0  0  0
 11 60  1  0  0  0  0
  2 63  1  0  0  0  0
  3 64  1  0  0  0  0
 10 65  1  0  0  0  0
 12 66  1  0  0  0  0
 13 67  1  0  0  0  0
 20 68  1  0  0  0  0
 28 69  1  0  0  0  0
 28 70  1  0  0  0  0
 29 71  1  0  0  0  0
 29 72  1  0  0  0  0
 29 73  1  0  0  0  0
 37 74  1  0  0  0  0
 37 75  1  0  0  0  0
 38 76  1  0  0  0  0
 38 77  1  0  0  0  0
 38 78  1  0  0  0  0
 40 79  1  0  0  0  0
 41 80  1  0  0  0  0
 44 81  1  0  0  0  0
 48 82  1  0  0  0  0
 48 83  1  0  0  0  0
 49 84  1  0  0  0  0
 49 85  1  0  0  0  0
 49 86  1  0  0  0  0
 50 87  1  0  0  0  0
 53 88  1  0  0  0  0
 57 89  1  0  0  0  0
 57 90  1  0  0  0  0
 58 91  1  0  0  0  0
 58 92  1  0  0  0  0
 58 93  1  0  0  0  0
 59 94  1  0  0  0  0
 61 95  1  0  0  0  0
 62 96  1  0  0  0  0
M  END
