ID-4F.sdf
  xtb     12202113143D
 energy: -167.470509777701 gnorm: 0.000415938102 xtb: 6.4.1 (unknown)
 92100  0     0  0            999 V2000
    0.6297   -0.4420   -2.1542 C   0  0  0  0  0  0  0  0  0  0  0  0
   -0.3907    0.2087   -1.4148 C   0  0  0  0  0  0  0  0  0  0  0  0
   -0.1604    0.5907   -0.1137 C   0  0  0  0  0  0  0  0  0  0  0  0
    1.0771    0.2691    0.4419 C   0  0  0  0  0  0  0  0  0  0  0  0
    2.0846   -0.4017   -0.2910 C   0  0  0  0  0  0  0  0  0  0  0  0
    1.8718   -0.7518   -1.6032 C   0  0  0  0  0  0  0  0  0  0  0  0
    1.5833    0.4831    1.7590 C   0  0  0  0  0  0  0  0  0  0  0  0
    2.8779   -0.0368    1.8703 C   0  0  0  0  0  0  0  0  0  0  0  0
    3.3331   -0.5999    0.5510 C   0  0  0  0  0  0  0  0  0  0  0  0
    0.1250   -0.6455   -3.4729 C   0  0  0  0  0  0  0  0  0  0  0  0
   -1.1722   -0.1449   -3.5838 C   0  0  0  0  0  0  0  0  0  0  0  0
   -1.6354    0.4030   -2.2598 C   0  0  0  0  0  0  0  0  0  0  0  0
    0.9795    1.1502    3.2081 S   0  0  0  0  0  0  0  0  0  0  0  0
    2.4744    0.7156    4.0239 C   0  0  0  0  0  0  0  0  0  0  0  0
    3.3737    0.0822    3.1487 C   0  0  0  0  0  0  0  0  0  0  0  0
    0.6975   -1.3172   -4.9310 S   0  0  0  0  0  0  0  0  0  0  0  0
   -0.8413   -0.9444   -5.7203 C   0  0  0  0  0  0  0  0  0  0  0  0
   -1.7200   -0.3130   -4.8410 C   0  0  0  0  0  0  0  0  0  0  0  0
    3.7284   -2.0808    0.6569 C   0  0  0  0  0  0  0  0  0  0  0  0
    4.4634    0.2511   -0.0720 C   0  0  0  0  0  0  0  0  0  0  0  0
    5.7382    0.3339    0.7566 C   0  0  0  0  0  0  0  0  0  0  0  0
    2.5871   -2.9565    1.1610 C   0  0  0  0  0  0  0  0  0  0  0  0
   -2.8092   -0.4882   -1.7869 C   0  0  0  0  0  0  0  0  0  0  0  0
   -2.0460    1.8804   -2.3560 C   0  0  0  0  0  0  0  0  0  0  0  0
   -3.3514   -0.1920   -0.3955 C   0  0  0  0  0  0  0  0  0  0  0  0
   -0.9561    2.7507   -2.9714 C   0  0  0  0  0  0  0  0  0  0  0  0
   -0.9407   -1.3166   -7.0694 C   0  0  0  0  0  0  0  0  0  0  0  0
    2.7880    0.9352    5.3690 C   0  0  0  0  0  0  0  0  0  0  0  0
    2.0696    1.5438    6.3709 C   0  0  0  0  0  0  0  0  0  0  0  0
   -1.9903   -1.2790   -7.9543 C   0  0  0  0  0  0  0  0  0  0  0  0
   -3.4017   -0.9311   -7.6947 C   0  0  0  0  0  0  0  0  0  0  0  0
   -4.1294   -1.2700   -8.9381 C   0  0  0  0  0  0  0  0  0  0  0  0
   -3.2275   -1.7393   -9.9050 C   0  0  0  0  0  0  0  0  0  0  0  0
   -1.8792   -1.7071   -9.3391 C   0  0  0  0  0  0  0  0  0  0  0  0
    0.7422    2.1467    6.2298 C   0  0  0  0  0  0  0  0  0  0  0  0
    0.4071    2.7072    7.5555 C   0  0  0  0  0  0  0  0  0  0  0  0
    1.4597    2.4497    8.4493 C   0  0  0  0  0  0  0  0  0  0  0  0
    2.5098    1.7142    7.7414 C   0  0  0  0  0  0  0  0  0  0  0  0
   -5.4855   -1.1732   -9.1796 C   0  0  0  0  0  0  0  0  0  0  0  0
   -5.9449   -1.5646  -10.4262 C   0  0  0  0  0  0  0  0  0  0  0  0
   -5.0570   -2.0380  -11.3930 C   0  0  0  0  0  0  0  0  0  0  0  0
   -3.6947   -2.1306  -11.1505 C   0  0  0  0  0  0  0  0  0  0  0  0
   -0.7322    3.3886    7.9339 C   0  0  0  0  0  0  0  0  0  0  0  0
   -0.8131    3.8237    9.2469 C   0  0  0  0  0  0  0  0  0  0  0  0
    0.2270    3.5746   10.1427 C   0  0  0  0  0  0  0  0  0  0  0  0
    1.3709    2.8885    9.7610 C   0  0  0  0  0  0  0  0  0  0  0  0
   -3.9117   -0.4750   -6.6924 O   0  0  0  0  0  0  0  0  0  0  0  0
    0.0403    2.1911    5.2362 O   0  0  0  0  0  0  0  0  0  0  0  0
    3.6775    1.2733    8.3075 C   0  0  0  0  0  0  0  0  0  0  0  0
   -0.7334   -1.9795  -10.0393 C   0  0  0  0  0  0  0  0  0  0  0  0
    0.5885   -1.8708   -9.5551 C   0  0  0  0  0  0  0  0  0  0  0  0
   -0.7131   -2.3848  -11.3917 C   0  0  0  0  0  0  0  0  0  0  0  0
    4.6965    0.5532    7.6486 C   0  0  0  0  0  0  0  0  0  0  0  0
    4.0270    1.4772    9.6600 C   0  0  0  0  0  0  0  0  0  0  0  0
    1.6958   -1.7952   -9.2593 N   0  0  0  0  0  0  0  0  0  0  0  0
   -0.6230   -2.7208  -12.4853 N   0  0  0  0  0  0  0  0  0  0  0  0
    4.3728    1.6093   10.7462 N   0  0  0  0  0  0  0  0  0  0  0  0
    5.5701   -0.0363    7.1912 N   0  0  0  0  0  0  0  0  0  0  0  0
   -5.5285   -2.4156  -12.5864 F   0  0  0  0  0  0  0  0  0  0  0  0
   -7.2516   -1.4909  -10.7056 F   0  0  0  0  0  0  0  0  0  0  0  0
   -1.8983    4.4895    9.6591 F   0  0  0  0  0  0  0  0  0  0  0  0
    0.1235    4.0075   11.4038 F   0  0  0  0  0  0  0  0  0  0  0  0
   -0.8897    1.1270    0.4721 H   0  0  0  0  0  0  0  0  0  0  0  0
    2.6227   -1.2492   -2.1978 H   0  0  0  0  0  0  0  0  0  0  0  0
    4.3311   -0.2710    3.4887 H   0  0  0  0  0  0  0  0  0  0  0  0
   -2.7040   -0.0049   -5.1406 H   0  0  0  0  0  0  0  0  0  0  0  0
    4.0473   -2.4291   -0.3273 H   0  0  0  0  0  0  0  0  0  0  0  0
    4.5739   -2.1723    1.3391 H   0  0  0  0  0  0  0  0  0  0  0  0
    4.0770    1.2619   -0.2271 H   0  0  0  0  0  0  0  0  0  0  0  0
    4.6970   -0.1674   -1.0529 H   0  0  0  0  0  0  0  0  0  0  0  0
    6.4714    0.9395    0.2290 H   0  0  0  0  0  0  0  0  0  0  0  0
    6.1702   -0.6492    0.9207 H   0  0  0  0  0  0  0  0  0  0  0  0
    5.5461    0.7999    1.7190 H   0  0  0  0  0  0  0  0  0  0  0  0
    1.7323   -2.9037    0.4902 H   0  0  0  0  0  0  0  0  0  0  0  0
    2.9120   -3.9922    1.2225 H   0  0  0  0  0  0  0  0  0  0  0  0
    2.2663   -2.6394    2.1508 H   0  0  0  0  0  0  0  0  0  0  0  0
   -3.6139   -0.3775   -2.5168 H   0  0  0  0  0  0  0  0  0  0  0  0
   -2.4752   -1.5287   -1.8192 H   0  0  0  0  0  0  0  0  0  0  0  0
   -2.2731    2.2508   -1.3561 H   0  0  0  0  0  0  0  0  0  0  0  0
   -2.9523    1.9501   -2.9601 H   0  0  0  0  0  0  0  0  0  0  0  0
   -2.6030   -0.3891    0.3669 H   0  0  0  0  0  0  0  0  0  0  0  0
   -3.6847    0.8383   -0.3090 H   0  0  0  0  0  0  0  0  0  0  0  0
   -4.2052   -0.8376   -0.2023 H   0  0  0  0  0  0  0  0  0  0  0  0
   -0.0379    2.6863   -2.3910 H   0  0  0  0  0  0  0  0  0  0  0  0
   -1.2769    3.7893   -2.9920 H   0  0  0  0  0  0  0  0  0  0  0  0
   -0.7408    2.4403   -3.9913 H   0  0  0  0  0  0  0  0  0  0  0  0
   -0.0171   -1.7288   -7.4590 H   0  0  0  0  0  0  0  0  0  0  0  0
    3.7670    0.5582    5.6392 H   0  0  0  0  0  0  0  0  0  0  0  0
   -6.1660   -0.8078   -8.4271 H   0  0  0  0  0  0  0  0  0  0  0  0
   -3.0537   -2.5051  -11.9313 H   0  0  0  0  0  0  0  0  0  0  0  0
   -1.5327    3.5787    7.2369 H   0  0  0  0  0  0  0  0  0  0  0  0
    2.1443    2.7239   10.4929 H   0  0  0  0  0  0  0  0  0  0  0  0
  1  2  1  0  0  0  0
  2  3  2  0  0  0  0
  3  4  1  0  0  0  0
  4  5  2  0  0  0  0
  5  6  1  0  0  0  0
  6  1  2  0  0  0  0
  4  7  1  0  0  0  0
  7  8  2  0  0  0  0
  8  9  1  0  0  0  0
  9  5  1  0  0  0  0
  1 10  1  0  0  0  0
 10 11  2  0  0  0  0
 11 12  1  0  0  0  0
 12  2  1  0  0  0  0
  7 13  1  0  0  0  0
 13 14  1  0  0  0  0
 14 15  2  0  0  0  0
 15  8  1  0  0  0  0
 10 16  1  0  0  0  0
 16 17  1  0  0  0  0
 17 18  2  0  0  0  0
 18 11  1  0  0  0  0
  9 19  1  0  0  0  0
  9 20  1  0  0  0  0
 20 21  1  0  0  0  0
 19 22  1  0  0  0  0
 12 23  1  0  0  0  0
 12 24  1  0  0  0  0
 23 25  1  0  0  0  0
 24 26  1  0  0  0  0
 17 27  1  0  0  0  0
 14 28  1  0  0  0  0
 28 29  2  0  0  0  0
 27 30  2  0  0  0  0
 30 31  1  0  0  0  0
 31 32  1  0  0  0  0
 32 33  2  0  0  0  0
 33 34  1  0  0  0  0
 34 30  1  0  0  0  0
 29 35  1  0  0  0  0
 35 36  1  0  0  0  0
 36 37  2  0  0  0  0
 37 38  1  0  0  0  0
 38 29  1  0  0  0  0
 32 39  1  0  0  0  0
 39 40  2  0  0  0  0
 40 41  1  0  0  0  0
 41 42  2  0  0  0  0
 42 33  1  0  0  0  0
 36 43  1  0  0  0  0
 43 44  2  0  0  0  0
 44 45  1  0  0  0  0
 45 46  2  0  0  0  0
 46 37  1  0  0  0  0
 31 47  2  0  0  0  0
 35 48  2  0  0  0  0
 38 49  2  0  0  0  0
 34 50  2  0  0  0  0
 50 51  1  0  0  0  0
 50 52  1  0  0  0  0
 49 53  1  0  0  0  0
 49 54  1  0  0  0  0
 51 55  3  0  0  0  0
 52 56  3  0  0  0  0
 54 57  3  0  0  0  0
 53 58  3  0  0  0  0
 41 59  1  0  0  0  0
 40 60  1  0  0  0  0
 44 61  1  0  0  0  0
 45 62  1  0  0  0  0
  3 63  1  0  0  0  0
  6 64  1  0  0  0  0
 15 65  1  0  0  0  0
 18 66  1  0  0  0  0
 19 67  1  0  0  0  0
 19 68  1  0  0  0  0
 20 69  1  0  0  0  0
 20 70  1  0  0  0  0
 21 71  1  0  0  0  0
 21 72  1  0  0  0  0
 21 73  1  0  0  0  0
 22 74  1  0  0  0  0
 22 75  1  0  0  0  0
 22 76  1  0  0  0  0
 23 77  1  0  0  0  0
 23 78  1  0  0  0  0
 24 79  1  0  0  0  0
 24 80  1  0  0  0  0
 25 81  1  0  0  0  0
 25 82  1  0  0  0  0
 25 83  1  0  0  0  0
 26 84  1  0  0  0  0
 26 85  1  0  0  0  0
 26 86  1  0  0  0  0
 27 87  1  0  0  0  0
 28 88  1  0  0  0  0
 39 89  1  0  0  0  0
 42 90  1  0  0  0  0
 43 91  1  0  0  0  0
 46 92  1  0  0  0  0
M  END
