IDIC8-F.sdf
  xtb     12202113263D
 energy: -159.032384804252 gnorm: 0.000729867532 xtb: 6.4.1 (unknown)
 92100  0     0  0            999 V2000
    4.3016   -3.6276    3.2790 C   0  0  0  0  0  0  0  0  0  0  0  0
    5.4865   -4.1385    2.8088 C   0  0  0  0  0  0  0  0  0  0  0  0
    6.3833   -5.0072    3.5446 C   0  0  0  0  0  0  0  0  0  0  0  0
    7.5190   -5.3054    2.6687 C   0  0  0  0  0  0  0  0  0  0  0  0
    7.3288   -4.6490    1.4402 C   0  0  0  0  0  0  0  0  0  0  0  0
    6.0589   -3.9000    1.4788 C   0  0  0  0  0  0  0  0  0  0  0  0
    8.6502   -6.0792    2.8671 C   0  0  0  0  0  0  0  0  0  0  0  0
    9.5532   -6.1646    1.8155 C   0  0  0  0  0  0  0  0  0  0  0  0
    9.3754   -5.5209    0.6000 C   0  0  0  0  0  0  0  0  0  0  0  0
    8.2416   -4.7475    0.4075 C   0  0  0  0  0  0  0  0  0  0  0  0
    5.5950   -3.2239    0.5781 O   0  0  0  0  0  0  0  0  0  0  0  0
    6.2246   -5.4927    4.8163 C   0  0  0  0  0  0  0  0  0  0  0  0
    7.1458   -6.3474    5.4596 C   0  0  0  0  0  0  0  0  0  0  0  0
    5.1349   -5.2300    5.6731 C   0  0  0  0  0  0  0  0  0  0  0  0
    7.8446   -7.0450    6.0446 N   0  0  0  0  0  0  0  0  0  0  0  0
    4.2869   -5.0684    6.4311 N   0  0  0  0  0  0  0  0  0  0  0  0
    3.3415   -2.8216    2.6557 C   0  0  0  0  0  0  0  0  0  0  0  0
    3.3944   -2.2045    1.0107 S   0  0  0  0  0  0  0  0  0  0  0  0
    1.8674   -1.4759    1.2398 C   0  0  0  0  0  0  0  0  0  0  0  0
    1.3345   -1.6780    2.5151 C   0  0  0  0  0  0  0  0  0  0  0  0
    2.1619   -2.4352    3.3129 C   0  0  0  0  0  0  0  0  0  0  0  0
   -4.4956    3.7540   -3.2080 C   0  0  0  0  0  0  0  0  0  0  0  0
   -4.8595    4.1976   -4.4546 C   0  0  0  0  0  0  0  0  0  0  0  0
   -6.0268    5.0266   -4.6977 C   0  0  0  0  0  0  0  0  0  0  0  0
   -6.2644    5.0501   -6.1403 C   0  0  0  0  0  0  0  0  0  0  0  0
   -5.2311    4.3419   -6.7754 C   0  0  0  0  0  0  0  0  0  0  0  0
   -4.2905    3.8153   -5.7658 C   0  0  0  0  0  0  0  0  0  0  0  0
   -7.2744    5.6225   -6.8956 C   0  0  0  0  0  0  0  0  0  0  0  0
   -7.2045    5.4608   -8.2727 C   0  0  0  0  0  0  0  0  0  0  0  0
   -6.1861    4.7682   -8.9112 C   0  0  0  0  0  0  0  0  0  0  0  0
   -5.1800    4.1968   -8.1490 C   0  0  0  0  0  0  0  0  0  0  0  0
   -3.2849    3.1789   -6.0081 O   0  0  0  0  0  0  0  0  0  0  0  0
   -6.7469    5.7338   -3.7713 C   0  0  0  0  0  0  0  0  0  0  0  0
   -7.8676    6.5329   -4.0844 C   0  0  0  0  0  0  0  0  0  0  0  0
   -6.4662    5.8107   -2.3899 C   0  0  0  0  0  0  0  0  0  0  0  0
   -8.7857    7.1971   -4.2659 N   0  0  0  0  0  0  0  0  0  0  0  0
   -6.3009    5.9476   -1.2616 N   0  0  0  0  0  0  0  0  0  0  0  0
    0.9679   -0.6963    0.4519 C   0  0  0  0  0  0  0  0  0  0  0  0
   -0.1633   -0.4093    1.2567 C   0  0  0  0  0  0  0  0  0  0  0  0
   -0.0329   -1.0537    2.6245 C   0  0  0  0  0  0  0  0  0  0  0  0
    1.0903   -0.2317   -0.8561 C   0  0  0  0  0  0  0  0  0  0  0  0
    0.0616    0.5307   -1.3561 C   0  0  0  0  0  0  0  0  0  0  0  0
   -1.0601    0.8328   -0.5479 C   0  0  0  0  0  0  0  0  0  0  0  0
   -1.1767    0.3810    0.7658 C   0  0  0  0  0  0  0  0  0  0  0  0
   -0.0808    1.1341   -2.7422 C   0  0  0  0  0  0  0  0  0  0  0  0
   -1.4079    1.8310   -2.6168 C   0  0  0  0  0  0  0  0  0  0  0  0
   -1.9381    1.6299   -1.3414 C   0  0  0  0  0  0  0  0  0  0  0  0
   -0.1123   -0.0212    3.7593 C   0  0  0  0  0  0  0  0  0  0  0  0
   -1.0437   -2.2074    2.8278 C   0  0  0  0  0  0  0  0  0  0  0  0
   -0.1313   -0.0203   -3.7679 C   0  0  0  0  0  0  0  0  0  0  0  0
    1.0534    2.1247   -3.0540 C   0  0  0  0  0  0  0  0  0  0  0  0
   -2.2178    2.6078   -3.4247 C   0  0  0  0  0  0  0  0  0  0  0  0
   -3.3960    2.9897   -2.7865 C   0  0  0  0  0  0  0  0  0  0  0  0
   -3.4483    2.3920   -1.1247 S   0  0  0  0  0  0  0  0  0  0  0  0
   10.6560   -6.9108    1.9860 F   0  0  0  0  0  0  0  0  0  0  0  0
   -8.1758    6.0016   -9.0254 F   0  0  0  0  0  0  0  0  0  0  0  0
   -2.5155   -1.8191    2.7944 C   0  0  0  0  0  0  0  0  0  0  0  0
   -0.3710    0.4031   -5.2112 C   0  0  0  0  0  0  0  0  0  0  0  0
    0.9697    1.0473    3.6527 C   0  0  0  0  0  0  0  0  0  0  0  0
    1.2109    3.1948   -1.9795 C   0  0  0  0  0  0  0  0  0  0  0  0
    4.0345   -3.8861    4.2965 H   0  0  0  0  0  0  0  0  0  0  0  0
    8.8540   -6.6067    3.7840 H   0  0  0  0  0  0  0  0  0  0  0  0
   10.1201   -5.6335   -0.1718 H   0  0  0  0  0  0  0  0  0  0  0  0
    8.0653   -4.2301   -0.5224 H   0  0  0  0  0  0  0  0  0  0  0  0
    1.9618   -2.7229    4.3299 H   0  0  0  0  0  0  0  0  0  0  0  0
   -5.1799    3.9956   -2.4026 H   0  0  0  0  0  0  0  0  0  0  0  0
   -8.0967    6.1703   -6.4664 H   0  0  0  0  0  0  0  0  0  0  0  0
   -6.1966    4.6852   -9.9863 H   0  0  0  0  0  0  0  0  0  0  0  0
   -4.3710    3.6483   -8.6056 H   0  0  0  0  0  0  0  0  0  0  0  0
    1.9702   -0.4662   -1.4351 H   0  0  0  0  0  0  0  0  0  0  0  0
   -2.0334    0.6613    1.3581 H   0  0  0  0  0  0  0  0  0  0  0  0
   -1.0901    0.4604    3.7342 H   0  0  0  0  0  0  0  0  0  0  0  0
   -0.0156   -0.5437    4.7131 H   0  0  0  0  0  0  0  0  0  0  0  0
   -0.8181   -2.6709    3.7907 H   0  0  0  0  0  0  0  0  0  0  0  0
   -0.8609   -2.9545    2.0509 H   0  0  0  0  0  0  0  0  0  0  0  0
    0.8138   -0.5638   -3.7055 H   0  0  0  0  0  0  0  0  0  0  0  0
   -0.9264   -0.7054   -3.4617 H   0  0  0  0  0  0  0  0  0  0  0  0
    1.9869    1.5679   -3.1530 H   0  0  0  0  0  0  0  0  0  0  0  0
    0.8409    2.6089   -4.0073 H   0  0  0  0  0  0  0  0  0  0  0  0
   -1.9958    2.9084   -4.4305 H   0  0  0  0  0  0  0  0  0  0  0  0
   -2.7442   -1.0602    3.5374 H   0  0  0  0  0  0  0  0  0  0  0  0
   -3.1203   -2.6962    3.0139 H   0  0  0  0  0  0  0  0  0  0  0  0
   -2.8004   -1.4529    1.8122 H   0  0  0  0  0  0  0  0  0  0  0  0
   -0.4005   -0.4822   -5.8425 H   0  0  0  0  0  0  0  0  0  0  0  0
    0.4270    1.0455   -5.5728 H   0  0  0  0  0  0  0  0  0  0  0  0
   -1.3174    0.9246   -5.3185 H   0  0  0  0  0  0  0  0  0  0  0  0
    0.8896    1.5826    2.7089 H   0  0  0  0  0  0  0  0  0  0  0  0
    1.9606    0.6030    3.7120 H   0  0  0  0  0  0  0  0  0  0  0  0
    0.8669    1.7639    4.4638 H   0  0  0  0  0  0  0  0  0  0  0  0
    0.2935    3.7691   -1.8696 H   0  0  0  0  0  0  0  0  0  0  0  0
    2.0107    3.8794   -2.2512 H   0  0  0  0  0  0  0  0  0  0  0  0
    1.4536    2.7480   -1.0178 H   0  0  0  0  0  0  0  0  0  0  0  0
  1  2  2  0  0  0  0
  2  3  1  0  0  0  0
  3  4  1  0  0  0  0
  4  5  2  0  0  0  0
  5  6  1  0  0  0  0
  6  2  1  0  0  0  0
  4  7  1  0  0  0  0
  7  8  2  0  0  0  0
  8  9  1  0  0  0  0
  9 10  2  0  0  0  0
 10  5  1  0  0  0  0
  6 11  2  0  0  0  0
  3 12  2  0  0  0  0
 12 13  1  0  0  0  0
 12 14  1  0  0  0  0
 13 15  3  0  0  0  0
 14 16  3  0  0  0  0
  1 17  1  0  0  0  0
 17 18  1  0  0  0  0
 18 19  1  0  0  0  0
 19 20  2  0  0  0  0
 20 21  1  0  0  0  0
 21 17  2  0  0  0  0
 22 23  2  0  0  0  0
 23 24  1  0  0  0  0
 24 25  1  0  0  0  0
 25 26  2  0  0  0  0
 26 27  1  0  0  0  0
 27 23  1  0  0  0  0
 25 28  1  0  0  0  0
 28 29  2  0  0  0  0
 29 30  1  0  0  0  0
 30 31  2  0  0  0  0
 31 26  1  0  0  0  0
 27 32  2  0  0  0  0
 24 33  2  0  0  0  0
 33 34  1  0  0  0  0
 33 35  1  0  0  0  0
 34 36  3  0  0  0  0
 35 37  3  0  0  0  0
 19 38  1  0  0  0  0
 38 39  2  0  0  0  0
 39 40  1  0  0  0  0
 40 20  1  0  0  0  0
 38 41  1  0  0  0  0
 41 42  2  0  0  0  0
 42 43  1  0  0  0  0
 43 44  2  0  0  0  0
 44 39  1  0  0  0  0
 42 45  1  0  0  0  0
 45 46  1  0  0  0  0
 46 47  2  0  0  0  0
 47 43  1  0  0  0  0
 40 48  1  0  0  0  0
 40 49  1  0  0  0  0
 45 50  1  0  0  0  0
 45 51  1  0  0  0  0
 46 52  1  0  0  0  0
 52 53  2  0  0  0  0
 53 54  1  0  0  0  0
 54 47  1  0  0  0  0
 53 22  1  0  0  0  0
  8 55  1  0  0  0  0
 29 56  1  0  0  0  0
 49 57  1  0  0  0  0
 50 58  1  0  0  0  0
 48 59  1  0  0  0  0
 51 60  1  0  0  0  0
  1 61  1  0  0  0  0
  7 62  1  0  0  0  0
  9 63  1  0  0  0  0
 10 64  1  0  0  0  0
 21 65  1  0  0  0  0
 22 66  1  0  0  0  0
 28 67  1  0  0  0  0
 30 68  1  0  0  0  0
 31 69  1  0  0  0  0
 41 70  1  0  0  0  0
 44 71  1  0  0  0  0
 48 72  1  0  0  0  0
 48 73  1  0  0  0  0
 49 74  1  0  0  0  0
 49 75  1  0  0  0  0
 50 76  1  0  0  0  0
 50 77  1  0  0  0  0
 51 78  1  0  0  0  0
 51 79  1  0  0  0  0
 52 80  1  0  0  0  0
 57 81  1  0  0  0  0
 57 82  1  0  0  0  0
 57 83  1  0  0  0  0
 58 84  1  0  0  0  0
 58 85  1  0  0  0  0
 58 86  1  0  0  0  0
 59 87  1  0  0  0  0
 59 88  1  0  0  0  0
 59 89  1  0  0  0  0
 60 90  1  0  0  0  0
 60 91  1  0  0  0  0
 60 92  1  0  0  0  0
M  END
