IDT-PDOT.sdf
  xtb     12202114143D
 energy: -285.922838726849 gnorm: 0.000193441655 xtb: 6.4.1 (unknown)
164180  0     0  0            999 V2000
    1.0833    0.4118    1.6835 C   0  0  0  0  0  0  0  0  0  0  0  0
    0.7945   -0.9398    1.3752 C   0  0  0  0  0  0  0  0  0  0  0  0
    1.0820   -1.4846    0.1252 C   0  0  0  0  0  0  0  0  0  0  0  0
    1.5914   -0.6355   -0.8279 C   0  0  0  0  0  0  0  0  0  0  0  0
    1.8025    0.7357   -0.5431 C   0  0  0  0  0  0  0  0  0  0  0  0
    1.5850    1.2630    0.7281 C   0  0  0  0  0  0  0  0  0  0  0  0
    0.6622    0.7435    3.1059 C   0  0  0  0  0  0  0  0  0  0  0  0
   -0.0704   -0.5190    3.4838 C   0  0  0  0  0  0  0  0  0  0  0  0
    0.1009   -1.4848    2.4982 C   0  0  0  0  0  0  0  0  0  0  0  0
   -0.8676   -0.9486    4.5339 C   0  0  0  0  0  0  0  0  0  0  0  0
   -1.3128   -2.2492    4.3458 C   0  0  0  0  0  0  0  0  0  0  0  0
   -0.6978   -2.9580    2.8652 S   0  0  0  0  0  0  0  0  0  0  0  0
    1.9006   -0.9365   -2.2855 C   0  0  0  0  0  0  0  0  0  0  0  0
    2.1060    0.4574   -2.8233 C   0  0  0  0  0  0  0  0  0  0  0  0
    2.1305    1.3735   -1.7772 C   0  0  0  0  0  0  0  0  0  0  0  0
    2.2662    1.0483   -4.0669 C   0  0  0  0  0  0  0  0  0  0  0  0
    2.4048    2.4269   -3.9720 C   0  0  0  0  0  0  0  0  0  0  0  0
    2.3915    2.9832   -2.3094 S   0  0  0  0  0  0  0  0  0  0  0  0
   -2.2269   -2.9566    5.1545 C   0  0  0  0  0  0  0  0  0  0  0  0
    2.4323    3.3452   -5.0406 C   0  0  0  0  0  0  0  0  0  0  0  0
    0.7540   -1.7023   -2.9085 C   0  0  0  0  0  0  0  0  0  0  0  0
    3.2237   -1.6647   -2.4719 C   0  0  0  0  0  0  0  0  0  0  0  0
    1.8396    0.8663    4.0613 C   0  0  0  0  0  0  0  0  0  0  0  0
   -0.1852    1.9976    3.1064 C   0  0  0  0  0  0  0  0  0  0  0  0
    1.6048    1.2908    5.3640 C   0  0  0  0  0  0  0  0  0  0  0  0
    2.6418    1.3770    6.2717 C   0  0  0  0  0  0  0  0  0  0  0  0
    3.9393    1.0391    5.9063 C   0  0  0  0  0  0  0  0  0  0  0  0
    4.1659    0.6066    4.6075 C   0  0  0  0  0  0  0  0  0  0  0  0
    3.1304    0.5175    3.6938 C   0  0  0  0  0  0  0  0  0  0  0  0
   -1.5623    1.9347    2.9494 C   0  0  0  0  0  0  0  0  0  0  0  0
   -2.3165    3.0932    2.9093 C   0  0  0  0  0  0  0  0  0  0  0  0
   -1.7167    4.3404    3.0163 C   0  0  0  0  0  0  0  0  0  0  0  0
   -0.3362    4.3983    3.1581 C   0  0  0  0  0  0  0  0  0  0  0  0
    0.4217    3.2441    3.2020 C   0  0  0  0  0  0  0  0  0  0  0  0
    0.7225   -3.0893   -2.8283 C   0  0  0  0  0  0  0  0  0  0  0  0
   -0.3383   -3.7986   -3.3574 C   0  0  0  0  0  0  0  0  0  0  0  0
   -1.3947   -3.1447   -3.9785 C   0  0  0  0  0  0  0  0  0  0  0  0
   -1.3645   -1.7585   -4.0444 C   0  0  0  0  0  0  0  0  0  0  0  0
   -0.3066   -1.0434   -3.5133 C   0  0  0  0  0  0  0  0  0  0  0  0
    4.1230   -1.8435   -1.4317 C   0  0  0  0  0  0  0  0  0  0  0  0
    5.3378   -2.4668   -1.6569 C   0  0  0  0  0  0  0  0  0  0  0  0
    5.6882   -2.9159   -2.9222 C   0  0  0  0  0  0  0  0  0  0  0  0
    4.7843   -2.7305   -3.9613 C   0  0  0  0  0  0  0  0  0  0  0  0
    3.5703   -2.1102   -3.7422 C   0  0  0  0  0  0  0  0  0  0  0  0
   -2.5634   -3.9183   -4.5172 C   0  0  0  0  0  0  0  0  0  0  0  0
    6.9902   -3.6267   -3.1545 C   0  0  0  0  0  0  0  0  0  0  0  0
   -2.5301    5.5994    2.9277 C   0  0  0  0  0  0  0  0  0  0  0  0
    5.0573    1.0907    6.9073 C   0  0  0  0  0  0  0  0  0  0  0  0
   -2.5878    6.0964    1.4818 C   0  0  0  0  0  0  0  0  0  0  0  0
    5.1702   -0.2418    7.6510 C   0  0  0  0  0  0  0  0  0  0  0  0
   -3.6086   -4.1376   -3.4215 C   0  0  0  0  0  0  0  0  0  0  0  0
    6.8183   -5.1350   -2.9630 C   0  0  0  0  0  0  0  0  0  0  0  0
    2.1576    2.8513   -6.6745 S   0  0  0  0  0  0  0  0  0  0  0  0
    2.2201    4.5085   -7.2129 C   0  0  0  0  0  0  0  0  0  0  0  0
    2.5196    5.3868   -6.1388 C   0  0  0  0  0  0  0  0  0  0  0  0
    2.6163    4.7287   -4.9119 C   0  0  0  0  0  0  0  0  0  0  0  0
   -3.1006   -2.1879    6.4367 S   0  0  0  0  0  0  0  0  0  0  0  0
   -3.9995   -3.6557    6.7516 C   0  0  0  0  0  0  0  0  0  0  0  0
   -3.5995   -4.6864    5.8694 C   0  0  0  0  0  0  0  0  0  0  0  0
   -2.6083   -4.2859    4.9700 C   0  0  0  0  0  0  0  0  0  0  0  0
   -5.0219   -3.8569    7.6736 C   0  0  0  0  0  0  0  0  0  0  0  0
   -5.6213   -2.9667    8.5389 C   0  0  0  0  0  0  0  0  0  0  0  0
   -5.2757   -1.5541    8.6672 C   0  0  0  0  0  0  0  0  0  0  0  0
   -6.2588   -0.9798    9.6118 C   0  0  0  0  0  0  0  0  0  0  0  0
   -7.1259   -1.9945   10.0502 C   0  0  0  0  0  0  0  0  0  0  0  0
   -6.7325   -3.2557    9.4152 C   0  0  0  0  0  0  0  0  0  0  0  0
   -6.3809    0.3276   10.0361 C   0  0  0  0  0  0  0  0  0  0  0  0
   -7.4050    0.6221   10.9222 C   0  0  0  0  0  0  0  0  0  0  0  0
   -8.2722   -0.3767   11.3620 C   0  0  0  0  0  0  0  0  0  0  0  0
   -8.1464   -1.6918   10.9371 C   0  0  0  0  0  0  0  0  0  0  0  0
   -4.3696   -0.9485    8.1208 O   0  0  0  0  0  0  0  0  0  0  0  0
   -7.3257   -4.4713    9.6459 C   0  0  0  0  0  0  0  0  0  0  0  0
   -6.9389   -5.7014    9.0739 C   0  0  0  0  0  0  0  0  0  0  0  0
   -8.4168   -4.6635   10.5187 C   0  0  0  0  0  0  0  0  0  0  0  0
   -9.3053   -4.8873   11.2106 N   0  0  0  0  0  0  0  0  0  0  0  0
   -6.6925   -6.7480    8.6691 N   0  0  0  0  0  0  0  0  0  0  0  0
   -9.2554   -0.0637   12.2152 F   0  0  0  0  0  0  0  0  0  0  0  0
   -7.5641    1.8794   11.3577 F   0  0  0  0  0  0  0  0  0  0  0  0
    1.9509    5.0037   -8.4840 C   0  0  0  0  0  0  0  0  0  0  0  0
    1.5718    4.3404   -9.6322 C   0  0  0  0  0  0  0  0  0  0  0  0
    1.4785    2.8915   -9.7771 C   0  0  0  0  0  0  0  0  0  0  0  0
    1.0527    2.6501  -11.1735 C   0  0  0  0  0  0  0  0  0  0  0  0
    0.8998    3.8831  -11.8297 C   0  0  0  0  0  0  0  0  0  0  0  0
    1.2078    4.9599  -10.8840 C   0  0  0  0  0  0  0  0  0  0  0  0
    0.8136    1.4462  -11.8041 C   0  0  0  0  0  0  0  0  0  0  0  0
    0.4110    1.4843  -13.1299 C   0  0  0  0  0  0  0  0  0  0  0  0
    0.2586    2.7019  -13.7907 C   0  0  0  0  0  0  0  0  0  0  0  0
    0.4987    3.9123  -13.1554 C   0  0  0  0  0  0  0  0  0  0  0  0
    1.7051    2.0362   -8.9380 O   0  0  0  0  0  0  0  0  0  0  0  0
    1.1154    6.3014  -11.1607 C   0  0  0  0  0  0  0  0  0  0  0  0
    0.7519    6.8241  -12.4189 C   0  0  0  0  0  0  0  0  0  0  0  0
    1.3401    7.3511  -10.2459 C   0  0  0  0  0  0  0  0  0  0  0  0
    0.4659    7.3143  -13.4171 N   0  0  0  0  0  0  0  0  0  0  0  0
    1.4817    8.2700   -9.5704 N   0  0  0  0  0  0  0  0  0  0  0  0
    0.1643    0.3394  -13.7811 F   0  0  0  0  0  0  0  0  0  0  0  0
   -0.1316    2.7099  -15.0715 F   0  0  0  0  0  0  0  0  0  0  0  0
   -4.1930   -5.8889    5.9661 O   0  0  0  0  0  0  0  0  0  0  0  0
   -3.7093   -6.9292    5.1303 C   0  0  0  0  0  0  0  0  0  0  0  0
   -2.1943   -7.0970    5.2464 C   0  0  0  0  0  0  0  0  0  0  0  0
   -1.4476   -6.2302    4.2234 C   0  0  0  0  0  0  0  0  0  0  0  0
   -2.1032   -5.0115    3.9202 O   0  0  0  0  0  0  0  0  0  0  0  0
    2.7091    6.6887   -6.4497 O   0  0  0  0  0  0  0  0  0  0  0  0
    2.3773    7.7022   -5.5229 C   0  0  0  0  0  0  0  0  0  0  0  0
    3.1066    7.6005   -4.1866 C   0  0  0  0  0  0  0  0  0  0  0  0
    2.5214    6.5019   -3.3027 C   0  0  0  0  0  0  0  0  0  0  0  0
    2.9248    5.2011   -3.6698 O   0  0  0  0  0  0  0  0  0  0  0  0
    0.8674   -2.5202   -0.0889 H   0  0  0  0  0  0  0  0  0  0  0  0
    1.7639    2.3075    0.9313 H   0  0  0  0  0  0  0  0  0  0  0  0
   -1.1566   -0.3671    5.3904 H   0  0  0  0  0  0  0  0  0  0  0  0
    2.2573    0.5424   -5.0152 H   0  0  0  0  0  0  0  0  0  0  0  0
    0.6038    1.5653    5.6627 H   0  0  0  0  0  0  0  0  0  0  0  0
    2.4421    1.7136    7.2790 H   0  0  0  0  0  0  0  0  0  0  0  0
    5.1672    0.3372    4.3024 H   0  0  0  0  0  0  0  0  0  0  0  0
    3.3343    0.1786    2.6886 H   0  0  0  0  0  0  0  0  0  0  0  0
   -2.0512    0.9755    2.8621 H   0  0  0  0  0  0  0  0  0  0  0  0
   -3.3891    3.0252    2.7957 H   0  0  0  0  0  0  0  0  0  0  0  0
    0.1514    5.3595    3.2405 H   0  0  0  0  0  0  0  0  0  0  0  0
    1.4934    3.3104    3.3245 H   0  0  0  0  0  0  0  0  0  0  0  0
    1.5410   -3.6173   -2.3600 H   0  0  0  0  0  0  0  0  0  0  0  0
   -0.3438   -4.8775   -3.2920 H   0  0  0  0  0  0  0  0  0  0  0  0
   -2.1778   -1.2297   -4.5207 H   0  0  0  0  0  0  0  0  0  0  0  0
   -0.3055    0.0351   -3.5749 H   0  0  0  0  0  0  0  0  0  0  0  0
    3.8777   -1.4977   -0.4382 H   0  0  0  0  0  0  0  0  0  0  0  0
    6.0261   -2.6003   -0.8343 H   0  0  0  0  0  0  0  0  0  0  0  0
    5.0375   -3.0706   -4.9552 H   0  0  0  0  0  0  0  0  0  0  0  0
    2.8792   -1.9751   -4.5612 H   0  0  0  0  0  0  0  0  0  0  0  0
   -2.2254   -4.8872   -4.8905 H   0  0  0  0  0  0  0  0  0  0  0  0
   -3.0190   -3.3728   -5.3458 H   0  0  0  0  0  0  0  0  0  0  0  0
    7.7433   -3.2588   -2.4548 H   0  0  0  0  0  0  0  0  0  0  0  0
    7.3420   -3.4313   -4.1694 H   0  0  0  0  0  0  0  0  0  0  0  0
   -2.0841    6.3732    3.5559 H   0  0  0  0  0  0  0  0  0  0  0  0
   -3.5444    5.4118    3.2848 H   0  0  0  0  0  0  0  0  0  0  0  0
    6.0008    1.2998    6.3991 H   0  0  0  0  0  0  0  0  0  0  0  0
    4.8724    1.8896    7.6280 H   0  0  0  0  0  0  0  0  0  0  0  0
   -3.0411    5.3429    0.8414 H   0  0  0  0  0  0  0  0  0  0  0  0
   -3.1756    7.0089    1.4157 H   0  0  0  0  0  0  0  0  0  0  0  0
   -1.5852    6.3003    1.1118 H   0  0  0  0  0  0  0  0  0  0  0  0
    5.9789   -0.2053    8.3772 H   0  0  0  0  0  0  0  0  0  0  0  0
    5.3678   -1.0502    6.9506 H   0  0  0  0  0  0  0  0  0  0  0  0
    4.2425   -0.4624    8.1743 H   0  0  0  0  0  0  0  0  0  0  0  0
   -3.1756   -4.6900   -2.5905 H   0  0  0  0  0  0  0  0  0  0  0  0
   -3.9679   -3.1822   -3.0454 H   0  0  0  0  0  0  0  0  0  0  0  0
   -4.4550   -4.6994   -3.8096 H   0  0  0  0  0  0  0  0  0  0  0  0
    7.7610   -5.6502   -3.1323 H   0  0  0  0  0  0  0  0  0  0  0  0
    6.0799   -5.5230   -3.6611 H   0  0  0  0  0  0  0  0  0  0  0  0
    6.4803   -5.3517   -1.9520 H   0  0  0  0  0  0  0  0  0  0  0  0
   -5.4050   -4.8700    7.6568 H   0  0  0  0  0  0  0  0  0  0  0  0
   -5.7084    1.0968    9.6915 H   0  0  0  0  0  0  0  0  0  0  0  0
   -8.8444   -2.4249   11.3064 H   0  0  0  0  0  0  0  0  0  0  0  0
    2.0325    6.0824   -8.5386 H   0  0  0  0  0  0  0  0  0  0  0  0
    0.9315    0.5068  -11.2881 H   0  0  0  0  0  0  0  0  0  0  0  0
    0.3649    4.8253  -13.7116 H   0  0  0  0  0  0  0  0  0  0  0  0
   -4.2322   -7.8169    5.4901 H   0  0  0  0  0  0  0  0  0  0  0  0
   -3.9984   -6.7380    4.0894 H   0  0  0  0  0  0  0  0  0  0  0  0
   -1.9013   -6.8234    6.2628 H   0  0  0  0  0  0  0  0  0  0  0  0
   -1.9193   -8.1390    5.0883 H   0  0  0  0  0  0  0  0  0  0  0  0
   -0.4279   -6.0255    4.5783 H   0  0  0  0  0  0  0  0  0  0  0  0
   -1.3854   -6.7407    3.2592 H   0  0  0  0  0  0  0  0  0  0  0  0
    1.2903    7.7028   -5.3525 H   0  0  0  0  0  0  0  0  0  0  0  0
    2.6503    8.6231   -6.0426 H   0  0  0  0  0  0  0  0  0  0  0  0
    3.0127    8.5543   -3.6677 H   0  0  0  0  0  0  0  0  0  0  0  0
    4.1660    7.4018   -4.3609 H   0  0  0  0  0  0  0  0  0  0  0  0
    2.8789    6.6046   -2.2756 H   0  0  0  0  0  0  0  0  0  0  0  0
    1.4229    6.5694   -3.3033 H   0  0  0  0  0  0  0  0  0  0  0  0
  1  2  1  0  0  0  0
  2  3  2  0  0  0  0
  3  4  1  0  0  0  0
  4  5  2  0  0  0  0
  5  6  1  0  0  0  0
  6  1  2  0  0  0  0
  1  7  1  0  0  0  0
  7  8  1  0  0  0  0
  8  9  2  0  0  0  0
  9  2  1  0  0  0  0
  8 10  1  0  0  0  0
 10 11  2  0  0  0  0
 11 12  1  0  0  0  0
 12  9  1  0  0  0  0
  4 13  1  0  0  0  0
 13 14  1  0  0  0  0
 14 15  2  0  0  0  0
 15  5  1  0  0  0  0
 14 16  1  0  0  0  0
 16 17  2  0  0  0  0
 17 18  1  0  0  0  0
 18 15  1  0  0  0  0
 11 19  1  0  0  0  0
 17 20  1  0  0  0  0
 13 21  1  0  0  0  0
 13 22  1  0  0  0  0
  7 23  1  0  0  0  0
  7 24  1  0  0  0  0
 23 25  2  0  0  0  0
 25 26  1  0  0  0  0
 26 27  2  0  0  0  0
 27 28  1  0  0  0  0
 28 29  2  0  0  0  0
 29 23  1  0  0  0  0
 24 30  2  0  0  0  0
 30 31  1  0  0  0  0
 31 32  2  0  0  0  0
 32 33  1  0  0  0  0
 33 34  2  0  0  0  0
 34 24  1  0  0  0  0
 21 35  2  0  0  0  0
 35 36  1  0  0  0  0
 36 37  2  0  0  0  0
 37 38  1  0  0  0  0
 38 39  2  0  0  0  0
 39 21  1  0  0  0  0
 22 40  2  0  0  0  0
 40 41  1  0  0  0  0
 41 42  2  0  0  0  0
 42 43  1  0  0  0  0
 43 44  2  0  0  0  0
 44 22  1  0  0  0  0
 37 45  1  0  0  0  0
 42 46  1  0  0  0  0
 32 47  1  0  0  0  0
 27 48  1  0  0  0  0
 47 49  1  0  0  0  0
 48 50  1  0  0  0  0
 45 51  1  0  0  0  0
 46 52  1  0  0  0  0
 20 53  1  0  0  0  0
 53 54  1  0  0  0  0
 54 55  2  0  0  0  0
 55 56  1  0  0  0  0
 56 20  2  0  0  0  0
 19 57  1  0  0  0  0
 57 58  1  0  0  0  0
 58 59  2  0  0  0  0
 59 60  1  0  0  0  0
 60 19  2  0  0  0  0
 58 61  1  0  0  0  0
 61 62  2  0  0  0  0
 62 63  1  0  0  0  0
 63 64  1  0  0  0  0
 64 65  2  0  0  0  0
 65 66  1  0  0  0  0
 66 62  1  0  0  0  0
 64 67  1  0  0  0  0
 67 68  2  0  0  0  0
 68 69  1  0  0  0  0
 69 70  2  0  0  0  0
 70 65  1  0  0  0  0
 63 71  2  0  0  0  0
 66 72  2  0  0  0  0
 72 73  1  0  0  0  0
 72 74  1  0  0  0  0
 74 75  3  0  0  0  0
 73 76  3  0  0  0  0
 69 77  1  0  0  0  0
 68 78  1  0  0  0  0
 54 79  1  0  0  0  0
 79 80  2  0  0  0  0
 80 81  1  0  0  0  0
 81 82  1  0  0  0  0
 82 83  2  0  0  0  0
 83 84  1  0  0  0  0
 84 80  1  0  0  0  0
 82 85  1  0  0  0  0
 85 86  2  0  0  0  0
 86 87  1  0  0  0  0
 87 88  2  0  0  0  0
 88 83  1  0  0  0  0
 81 89  2  0  0  0  0
 84 90  2  0  0  0  0
 90 91  1  0  0  0  0
 90 92  1  0  0  0  0
 91 93  3  0  0  0  0
 92 94  3  0  0  0  0
 86 95  1  0  0  0  0
 87 96  1  0  0  0  0
 59 97  1  0  0  0  0
 97 98  1  0  0  0  0
 98 99  1  0  0  0  0
 99100  1  0  0  0  0
100101  1  0  0  0  0
101 60  1  0  0  0  0
 55102  1  0  0  0  0
102103  1  0  0  0  0
103104  1  0  0  0  0
104105  1  0  0  0  0
105106  1  0  0  0  0
106 56  1  0  0  0  0
  3107  1  0  0  0  0
  6108  1  0  0  0  0
 10109  1  0  0  0  0
 16110  1  0  0  0  0
 25111  1  0  0  0  0
 26112  1  0  0  0  0
 28113  1  0  0  0  0
 29114  1  0  0  0  0
 30115  1  0  0  0  0
 31116  1  0  0  0  0
 33117  1  0  0  0  0
 34118  1  0  0  0  0
 35119  1  0  0  0  0
 36120  1  0  0  0  0
 38121  1  0  0  0  0
 39122  1  0  0  0  0
 40123  1  0  0  0  0
 41124  1  0  0  0  0
 43125  1  0  0  0  0
 44126  1  0  0  0  0
 45127  1  0  0  0  0
 45128  1  0  0  0  0
 46129  1  0  0  0  0
 46130  1  0  0  0  0
 47131  1  0  0  0  0
 47132  1  0  0  0  0
 48133  1  0  0  0  0
 48134  1  0  0  0  0
 49135  1  0  0  0  0
 49136  1  0  0  0  0
 49137  1  0  0  0  0
 50138  1  0  0  0  0
 50139  1  0  0  0  0
 50140  1  0  0  0  0
 51141  1  0  0  0  0
 51142  1  0  0  0  0
 51143  1  0  0  0  0
 52144  1  0  0  0  0
 52145  1  0  0  0  0
 52146  1  0  0  0  0
 61147  1  0  0  0  0
 67148  1  0  0  0  0
 70149  1  0  0  0  0
 79150  1  0  0  0  0
 85151  1  0  0  0  0
 88152  1  0  0  0  0
 98153  1  0  0  0  0
 98154  1  0  0  0  0
 99155  1  0  0  0  0
 99156  1  0  0  0  0
100157  1  0  0  0  0
100158  1  0  0  0  0
103159  1  0  0  0  0
103160  1  0  0  0  0
104161  1  0  0  0  0
104162  1  0  0  0  0
105163  1  0  0  0  0
105164  1  0  0  0  0
M  END
