IDT-2B.sdf
  xtb     12202113343D
 energy: -216.467774837120 gnorm: 0.000271184223 xtb: 6.4.1 (unknown)
138150  0     0  0            999 V2000
    2.7419   -0.2329    5.8441 C   0  0  0  0  0  0  0  0  0  0  0  0
    2.0404    0.1519    6.9581 C   0  0  0  0  0  0  0  0  0  0  0  0
    2.6201    0.6545    8.1880 C   0  0  0  0  0  0  0  0  0  0  0  0
    1.5270    1.1993    8.9937 C   0  0  0  0  0  0  0  0  0  0  0  0
    0.3116    0.9521    8.3315 C   0  0  0  0  0  0  0  0  0  0  0  0
    0.5780    0.2567    7.0624 C   0  0  0  0  0  0  0  0  0  0  0  0
    1.5259    1.8783   10.1990 C   0  0  0  0  0  0  0  0  0  0  0  0
    0.3140    2.3052   10.7424 C   0  0  0  0  0  0  0  0  0  0  0  0
   -0.8797    2.0402   10.0753 C   0  0  0  0  0  0  0  0  0  0  0  0
   -0.8937    1.3630    8.8660 C   0  0  0  0  0  0  0  0  0  0  0  0
   -0.2532   -0.1403    6.2646 O   0  0  0  0  0  0  0  0  0  0  0  0
    3.9370    0.6121    8.5660 C   0  0  0  0  0  0  0  0  0  0  0  0
    4.9889    0.0466    7.8157 C   0  0  0  0  0  0  0  0  0  0  0  0
    4.4242    1.1127    9.7914 C   0  0  0  0  0  0  0  0  0  0  0  0
    5.8994   -0.3978    7.2738 N   0  0  0  0  0  0  0  0  0  0  0  0
    4.8876    1.5004   10.7679 N   0  0  0  0  0  0  0  0  0  0  0  0
    2.2911   -0.6168    4.5735 C   0  0  0  0  0  0  0  0  0  0  0  0
    0.6205   -0.8698    4.0870 S   0  0  0  0  0  0  0  0  0  0  0  0
    1.1306   -1.1232    2.4761 C   0  0  0  0  0  0  0  0  0  0  0  0
    2.5144   -1.0257    2.3101 C   0  0  0  0  0  0  0  0  0  0  0  0
    3.1717   -0.7646    3.4912 C   0  0  0  0  0  0  0  0  0  0  0  0
   -2.6359    0.6497   -5.7713 C   0  0  0  0  0  0  0  0  0  0  0  0
   -2.0136    1.3619   -6.7648 C   0  0  0  0  0  0  0  0  0  0  0  0
   -2.6792    2.0554   -7.8498 C   0  0  0  0  0  0  0  0  0  0  0  0
   -1.6749    2.8840   -8.5177 C   0  0  0  0  0  0  0  0  0  0  0  0
   -0.4226    2.6405   -7.9266 C   0  0  0  0  0  0  0  0  0  0  0  0
   -0.5765    1.6599   -6.8404 C   0  0  0  0  0  0  0  0  0  0  0  0
   -1.7811    3.8045   -9.5449 C   0  0  0  0  0  0  0  0  0  0  0  0
   -0.6393    4.4763   -9.9824 C   0  0  0  0  0  0  0  0  0  0  0  0
    0.5934    4.2120   -9.3904 C   0  0  0  0  0  0  0  0  0  0  0  0
    0.7145    3.2940   -8.3589 C   0  0  0  0  0  0  0  0  0  0  0  0
    0.3139    1.2000   -6.1469 O   0  0  0  0  0  0  0  0  0  0  0  0
   -3.9957    1.9571   -8.2191 C   0  0  0  0  0  0  0  0  0  0  0  0
   -4.5692    2.6616   -9.2982 C   0  0  0  0  0  0  0  0  0  0  0  0
   -4.9634    1.1346   -7.6058 C   0  0  0  0  0  0  0  0  0  0  0  0
   -5.1007    3.2033  -10.1600 N   0  0  0  0  0  0  0  0  0  0  0  0
   -5.8102    0.4920   -7.1696 N   0  0  0  0  0  0  0  0  0  0  0  0
    0.4911   -1.2482    1.2050 C   0  0  0  0  0  0  0  0  0  0  0  0
    1.4989   -1.1424    0.2150 C   0  0  0  0  0  0  0  0  0  0  0  0
    2.8791   -1.1524    0.8531 C   0  0  0  0  0  0  0  0  0  0  0  0
   -0.8570   -1.3697    0.8733 C   0  0  0  0  0  0  0  0  0  0  0  0
   -1.1877   -1.2627   -0.4564 C   0  0  0  0  0  0  0  0  0  0  0  0
   -0.1897   -1.0223   -1.4328 C   0  0  0  0  0  0  0  0  0  0  0  0
    1.1669   -1.0207   -1.1134 C   0  0  0  0  0  0  0  0  0  0  0  0
   -2.5625   -1.3346   -1.1023 C   0  0  0  0  0  0  0  0  0  0  0  0
   -2.2410   -0.8579   -2.4955 C   0  0  0  0  0  0  0  0  0  0  0  0
   -0.8597   -0.7258   -2.6591 C   0  0  0  0  0  0  0  0  0  0  0  0
    3.4888   -2.5057    0.5124 C   0  0  0  0  0  0  0  0  0  0  0  0
    3.7960   -0.0152    0.4573 C   0  0  0  0  0  0  0  0  0  0  0  0
   -2.9685   -2.8013   -1.0563 C   0  0  0  0  0  0  0  0  0  0  0  0
   -3.6222   -0.4409   -0.4951 C   0  0  0  0  0  0  0  0  0  0  0  0
    5.1579   -0.1217    0.7157 C   0  0  0  0  0  0  0  0  0  0  0  0
    6.0168    0.9100    0.3921 C   0  0  0  0  0  0  0  0  0  0  0  0
    5.5402    2.0773   -0.1917 C   0  0  0  0  0  0  0  0  0  0  0  0
    4.1771    2.1871   -0.4276 C   0  0  0  0  0  0  0  0  0  0  0  0
    3.3114    1.1587   -0.1000 C   0  0  0  0  0  0  0  0  0  0  0  0
    3.3937   -3.5845    1.3795 C   0  0  0  0  0  0  0  0  0  0  0  0
    3.9230   -4.8135    1.0303 C   0  0  0  0  0  0  0  0  0  0  0  0
    4.5525   -4.9997   -0.1926 C   0  0  0  0  0  0  0  0  0  0  0  0
    4.6339   -3.9196   -1.0621 C   0  0  0  0  0  0  0  0  0  0  0  0
    4.1090   -2.6890   -0.7173 C   0  0  0  0  0  0  0  0  0  0  0  0
   -4.9619   -0.6917   -0.7684 C   0  0  0  0  0  0  0  0  0  0  0  0
   -5.9483    0.1268   -0.2546 C   0  0  0  0  0  0  0  0  0  0  0  0
   -5.6252    1.2192    0.5408 C   0  0  0  0  0  0  0  0  0  0  0  0
   -4.2850    1.4796    0.7900 C   0  0  0  0  0  0  0  0  0  0  0  0
   -3.2926    0.6644    0.2754 C   0  0  0  0  0  0  0  0  0  0  0  0
   -3.5306   -3.3218    0.1028 C   0  0  0  0  0  0  0  0  0  0  0  0
   -3.8666   -4.6597    0.1803 C   0  0  0  0  0  0  0  0  0  0  0  0
   -3.6490   -5.5140   -0.8932 C   0  0  0  0  0  0  0  0  0  0  0  0
   -3.0789   -4.9905   -2.0452 C   0  0  0  0  0  0  0  0  0  0  0  0
   -2.7387   -3.6526   -2.1274 C   0  0  0  0  0  0  0  0  0  0  0  0
    6.4864    3.1678   -0.6033 C   0  0  0  0  0  0  0  0  0  0  0  0
    7.0245    2.9000   -2.0106 C   0  0  0  0  0  0  0  0  0  0  0  0
    5.0848   -6.3483   -0.5830 C   0  0  0  0  0  0  0  0  0  0  0  0
    3.9863   -7.1859   -1.2410 C   0  0  0  0  0  0  0  0  0  0  0  0
   -3.9732   -6.9767   -0.7941 C   0  0  0  0  0  0  0  0  0  0  0  0
   -2.7565   -7.7605   -0.2974 C   0  0  0  0  0  0  0  0  0  0  0  0
   -6.6998    2.1240    1.0708 C   0  0  0  0  0  0  0  0  0  0  0  0
   -7.0368    3.2105    0.0477 C   0  0  0  0  0  0  0  0  0  0  0  0
   -2.9474   -0.4423   -3.6013 C   0  0  0  0  0  0  0  0  0  0  0  0
   -2.1138    0.0550   -4.6145 C   0  0  0  0  0  0  0  0  0  0  0  0
   -0.4160   -0.0679   -4.1728 S   0  0  0  0  0  0  0  0  0  0  0  0
    0.3078    3.0728   12.0262 C   0  0  0  0  0  0  0  0  0  0  0  0
   -0.7537    5.5003  -11.0667 C   0  0  0  0  0  0  0  0  0  0  0  0
    3.8224   -0.1753    5.9069 H   0  0  0  0  0  0  0  0  0  0  0  0
    2.4428    2.0924   10.7241 H   0  0  0  0  0  0  0  0  0  0  0  0
   -1.8102    2.3745   10.5106 H   0  0  0  0  0  0  0  0  0  0  0  0
   -1.8157    1.1599    8.3432 H   0  0  0  0  0  0  0  0  0  0  0  0
    4.2349   -0.6437    3.5992 H   0  0  0  0  0  0  0  0  0  0  0  0
   -3.7159    0.5789   -5.8285 H   0  0  0  0  0  0  0  0  0  0  0  0
   -2.7293    4.0204  -10.0103 H   0  0  0  0  0  0  0  0  0  0  0  0
    1.4688    4.7380   -9.7422 H   0  0  0  0  0  0  0  0  0  0  0  0
    1.6667    3.0897   -7.8939 H   0  0  0  0  0  0  0  0  0  0  0  0
   -1.6017   -1.4984    1.6432 H   0  0  0  0  0  0  0  0  0  0  0  0
    1.9111   -0.8858   -1.8827 H   0  0  0  0  0  0  0  0  0  0  0  0
    5.5468   -1.0248    1.1637 H   0  0  0  0  0  0  0  0  0  0  0  0
    7.0732    0.8084    0.5957 H   0  0  0  0  0  0  0  0  0  0  0  0
    3.7838    3.0902   -0.8724 H   0  0  0  0  0  0  0  0  0  0  0  0
    2.2532    1.2730   -0.2850 H   0  0  0  0  0  0  0  0  0  0  0  0
    2.9096   -3.4691    2.3379 H   0  0  0  0  0  0  0  0  0  0  0  0
    3.8474   -5.6398    1.7227 H   0  0  0  0  0  0  0  0  0  0  0  0
    5.1177   -4.0422   -2.0207 H   0  0  0  0  0  0  0  0  0  0  0  0
    4.1943   -1.8594   -1.4036 H   0  0  0  0  0  0  0  0  0  0  0  0
   -5.2320   -1.5414   -1.3789 H   0  0  0  0  0  0  0  0  0  0  0  0
   -6.9853   -0.0879   -0.4701 H   0  0  0  0  0  0  0  0  0  0  0  0
   -4.0110    2.3298    1.3983 H   0  0  0  0  0  0  0  0  0  0  0  0
   -2.2564    0.8906    0.4805 H   0  0  0  0  0  0  0  0  0  0  0  0
   -3.7194   -2.6728    0.9452 H   0  0  0  0  0  0  0  0  0  0  0  0
   -4.3078   -5.0458    1.0881 H   0  0  0  0  0  0  0  0  0  0  0  0
   -2.9001   -5.6366   -2.8929 H   0  0  0  0  0  0  0  0  0  0  0  0
   -2.2964   -3.2731   -3.0366 H   0  0  0  0  0  0  0  0  0  0  0  0
    5.9720    4.1307   -0.5913 H   0  0  0  0  0  0  0  0  0  0  0  0
    7.3222    3.2171    0.0976 H   0  0  0  0  0  0  0  0  0  0  0  0
    6.2063    2.8585   -2.7262 H   0  0  0  0  0  0  0  0  0  0  0  0
    7.5518    1.9491   -2.0390 H   0  0  0  0  0  0  0  0  0  0  0  0
    7.7112    3.6874   -2.3124 H   0  0  0  0  0  0  0  0  0  0  0  0
    5.9157   -6.2315   -1.2814 H   0  0  0  0  0  0  0  0  0  0  0  0
    5.4530   -6.8709    0.3022 H   0  0  0  0  0  0  0  0  0  0  0  0
    4.3700   -8.1638   -1.5221 H   0  0  0  0  0  0  0  0  0  0  0  0
    3.6146   -6.6878   -2.1337 H   0  0  0  0  0  0  0  0  0  0  0  0
    3.1531   -7.3230   -0.5552 H   0  0  0  0  0  0  0  0  0  0  0  0
   -4.2698   -7.3572   -1.7737 H   0  0  0  0  0  0  0  0  0  0  0  0
   -4.8048   -7.1267   -0.1029 H   0  0  0  0  0  0  0  0  0  0  0  0
   -2.4529   -7.4048    0.6847 H   0  0  0  0  0  0  0  0  0  0  0  0
   -1.9194   -7.6323   -0.9801 H   0  0  0  0  0  0  0  0  0  0  0  0
   -2.9892   -8.8205   -0.2272 H   0  0  0  0  0  0  0  0  0  0  0  0
   -6.3652    2.5932    1.9981 H   0  0  0  0  0  0  0  0  0  0  0  0
   -7.5988    1.5428    1.2864 H   0  0  0  0  0  0  0  0  0  0  0  0
   -7.3836    2.7618   -0.8805 H   0  0  0  0  0  0  0  0  0  0  0  0
   -7.8167    3.8649    0.4299 H   0  0  0  0  0  0  0  0  0  0  0  0
   -6.1558    3.8098   -0.1712 H   0  0  0  0  0  0  0  0  0  0  0  0
   -4.0190   -0.4469   -3.6938 H   0  0  0  0  0  0  0  0  0  0  0  0
   -0.6181    2.9128   12.5731 H   0  0  0  0  0  0  0  0  0  0  0  0
    1.1487    2.7873   12.6532 H   0  0  0  0  0  0  0  0  0  0  0  0
    0.3943    4.1394   11.8154 H   0  0  0  0  0  0  0  0  0  0  0  0
   -1.5634    5.2541  -11.7490 H   0  0  0  0  0  0  0  0  0  0  0  0
   -0.9706    6.4751  -10.6282 H   0  0  0  0  0  0  0  0  0  0  0  0
    0.1745    5.5829  -11.6266 H   0  0  0  0  0  0  0  0  0  0  0  0
  1  2  2  0  0  0  0
  2  3  1  0  0  0  0
  3  4  1  0  0  0  0
  4  5  2  0  0  0  0
  5  6  1  0  0  0  0
  6  2  1  0  0  0  0
  4  7  1  0  0  0  0
  7  8  2  0  0  0  0
  8  9  1  0  0  0  0
  9 10  2  0  0  0  0
 10  5  1  0  0  0  0
  6 11  2  0  0  0  0
  3 12  2  0  0  0  0
 12 13  1  0  0  0  0
 12 14  1  0  0  0  0
 13 15  3  0  0  0  0
 14 16  3  0  0  0  0
  1 17  1  0  0  0  0
 17 18  1  0  0  0  0
 18 19  1  0  0  0  0
 19 20  2  0  0  0  0
 20 21  1  0  0  0  0
 21 17  2  0  0  0  0
 22 23  2  0  0  0  0
 23 24  1  0  0  0  0
 24 25  1  0  0  0  0
 25 26  2  0  0  0  0
 26 27  1  0  0  0  0
 27 23  1  0  0  0  0
 25 28  1  0  0  0  0
 28 29  2  0  0  0  0
 29 30  1  0  0  0  0
 30 31  2  0  0  0  0
 31 26  1  0  0  0  0
 27 32  2  0  0  0  0
 24 33  2  0  0  0  0
 33 34  1  0  0  0  0
 33 35  1  0  0  0  0
 34 36  3  0  0  0  0
 35 37  3  0  0  0  0
 19 38  1  0  0  0  0
 38 39  2  0  0  0  0
 39 40  1  0  0  0  0
 40 20  1  0  0  0  0
 38 41  1  0  0  0  0
 41 42  2  0  0  0  0
 42 43  1  0  0  0  0
 43 44  2  0  0  0  0
 44 39  1  0  0  0  0
 42 45  1  0  0  0  0
 45 46  1  0  0  0  0
 46 47  2  0  0  0  0
 47 43  1  0  0  0  0
 40 48  1  0  0  0  0
 40 49  1  0  0  0  0
 45 50  1  0  0  0  0
 45 51  1  0  0  0  0
 49 52  2  0  0  0  0
 52 53  1  0  0  0  0
 53 54  2  0  0  0  0
 54 55  1  0  0  0  0
 55 56  2  0  0  0  0
 56 49  1  0  0  0  0
 48 57  2  0  0  0  0
 57 58  1  0  0  0  0
 58 59  2  0  0  0  0
 59 60  1  0  0  0  0
 60 61  2  0  0  0  0
 61 48  1  0  0  0  0
 51 62  2  0  0  0  0
 62 63  1  0  0  0  0
 63 64  2  0  0  0  0
 64 65  1  0  0  0  0
 65 66  2  0  0  0  0
 66 51  1  0  0  0  0
 50 67  2  0  0  0  0
 67 68  1  0  0  0  0
 68 69  2  0  0  0  0
 69 70  1  0  0  0  0
 70 71  2  0  0  0  0
 71 50  1  0  0  0  0
 54 72  1  0  0  0  0
 72 73  1  0  0  0  0
 59 74  1  0  0  0  0
 74 75  1  0  0  0  0
 69 76  1  0  0  0  0
 76 77  1  0  0  0  0
 64 78  1  0  0  0  0
 78 79  1  0  0  0  0
 46 80  1  0  0  0  0
 80 81  2  0  0  0  0
 81 82  1  0  0  0  0
 82 47  1  0  0  0  0
 81 22  1  0  0  0  0
  8 83  1  0  0  0  0
 29 84  1  0  0  0  0
  1 85  1  0  0  0  0
  7 86  1  0  0  0  0
  9 87  1  0  0  0  0
 10 88  1  0  0  0  0
 21 89  1  0  0  0  0
 22 90  1  0  0  0  0
 28 91  1  0  0  0  0
 30 92  1  0  0  0  0
 31 93  1  0  0  0  0
 41 94  1  0  0  0  0
 44 95  1  0  0  0  0
 52 96  1  0  0  0  0
 53 97  1  0  0  0  0
 55 98  1  0  0  0  0
 56 99  1  0  0  0  0
 57100  1  0  0  0  0
 58101  1  0  0  0  0
 60102  1  0  0  0  0
 61103  1  0  0  0  0
 62104  1  0  0  0  0
 63105  1  0  0  0  0
 65106  1  0  0  0  0
 66107  1  0  0  0  0
 67108  1  0  0  0  0
 68109  1  0  0  0  0
 70110  1  0  0  0  0
 71111  1  0  0  0  0
 72112  1  0  0  0  0
 72113  1  0  0  0  0
 73114  1  0  0  0  0
 73115  1  0  0  0  0
 73116  1  0  0  0  0
 74117  1  0  0  0  0
 74118  1  0  0  0  0
 75119  1  0  0  0  0
 75120  1  0  0  0  0
 75121  1  0  0  0  0
 76122  1  0  0  0  0
 76123  1  0  0  0  0
 77124  1  0  0  0  0
 77125  1  0  0  0  0
 77126  1  0  0  0  0
 78127  1  0  0  0  0
 78128  1  0  0  0  0
 79129  1  0  0  0  0
 79130  1  0  0  0  0
 79131  1  0  0  0  0
 80132  1  0  0  0  0
 83133  1  0  0  0  0
 83134  1  0  0  0  0
 83135  1  0  0  0  0
 84136  1  0  0  0  0
 84137  1  0  0  0  0
 84138  1  0  0  0  0
M  END
