IDT-EDOT.sdf
  xtb     12202114053D
 energy: -279.594374538697 gnorm: 0.000607079521 xtb: 6.4.1 (unknown)
158174  0     0  0            999 V2000
   -0.7459    0.5051   -0.9000 C   0  0  0  0  0  0  0  0  0  0  0  0
   -1.5833    0.0280    0.1367 C   0  0  0  0  0  0  0  0  0  0  0  0
   -1.0971   -0.7731    1.1670 C   0  0  0  0  0  0  0  0  0  0  0  0
    0.2437   -1.0767    1.1478 C   0  0  0  0  0  0  0  0  0  0  0  0
    1.0784   -0.6126    0.1032 C   0  0  0  0  0  0  0  0  0  0  0  0
    0.5890    0.1777   -0.9343 C   0  0  0  0  0  0  0  0  0  0  0  0
   -1.5325    1.3509   -1.8889 C   0  0  0  0  0  0  0  0  0  0  0  0
   -2.9101    1.3004   -1.2784 C   0  0  0  0  0  0  0  0  0  0  0  0
   -2.8916    0.5400   -0.1169 C   0  0  0  0  0  0  0  0  0  0  0  0
   -4.1546    1.8517   -1.5551 C   0  0  0  0  0  0  0  0  0  0  0  0
   -5.0981    1.4986   -0.6013 C   0  0  0  0  0  0  0  0  0  0  0  0
   -4.4226    0.4770    0.6531 S   0  0  0  0  0  0  0  0  0  0  0  0
    1.0320   -1.9109    2.1447 C   0  0  0  0  0  0  0  0  0  0  0  0
    2.4088   -1.8654    1.5316 C   0  0  0  0  0  0  0  0  0  0  0  0
    2.3933   -1.1001    0.3721 C   0  0  0  0  0  0  0  0  0  0  0  0
    3.6694   -2.3508    1.8509 C   0  0  0  0  0  0  0  0  0  0  0  0
    4.6244   -1.9595    0.9224 C   0  0  0  0  0  0  0  0  0  0  0  0
    3.9410   -0.9715   -0.3544 S   0  0  0  0  0  0  0  0  0  0  0  0
   -6.4600    1.8784   -0.5554 C   0  0  0  0  0  0  0  0  0  0  0  0
    6.0049   -2.2601    0.9214 C   0  0  0  0  0  0  0  0  0  0  0  0
    1.1187   -1.2923    3.5283 C   0  0  0  0  0  0  0  0  0  0  0  0
    0.4245   -3.3006    2.1878 C   0  0  0  0  0  0  0  0  0  0  0  0
   -1.4399    0.6883   -3.2511 C   0  0  0  0  0  0  0  0  0  0  0  0
   -1.1007    2.8049   -1.9414 C   0  0  0  0  0  0  0  0  0  0  0  0
   -0.3632    0.9658   -4.0845 C   0  0  0  0  0  0  0  0  0  0  0  0
   -0.2398    0.3319   -5.3058 C   0  0  0  0  0  0  0  0  0  0  0  0
   -1.1818   -0.5986   -5.7256 C   0  0  0  0  0  0  0  0  0  0  0  0
   -2.2523   -0.8762   -4.8867 C   0  0  0  0  0  0  0  0  0  0  0  0
   -2.3789   -0.2469   -3.6617 C   0  0  0  0  0  0  0  0  0  0  0  0
   -1.5771    3.6142   -2.9663 C   0  0  0  0  0  0  0  0  0  0  0  0
   -1.2394    4.9522   -3.0190 C   0  0  0  0  0  0  0  0  0  0  0  0
   -0.4257    5.5209   -2.0469 C   0  0  0  0  0  0  0  0  0  0  0  0
    0.0372    4.7110   -1.0196 C   0  0  0  0  0  0  0  0  0  0  0  0
   -0.2994    3.3703   -0.9608 C   0  0  0  0  0  0  0  0  0  0  0  0
    1.6112   -2.0556    4.5805 C   0  0  0  0  0  0  0  0  0  0  0  0
    1.7390   -1.5115    5.8433 C   0  0  0  0  0  0  0  0  0  0  0  0
    1.3879   -0.1897    6.0891 C   0  0  0  0  0  0  0  0  0  0  0  0
    0.9099    0.5717    5.0321 C   0  0  0  0  0  0  0  0  0  0  0  0
    0.7817    0.0321    3.7646 C   0  0  0  0  0  0  0  0  0  0  0  0
    0.8681   -4.3044    1.3387 C   0  0  0  0  0  0  0  0  0  0  0  0
    0.2744   -5.5531    1.3590 C   0  0  0  0  0  0  0  0  0  0  0  0
   -0.7821   -5.8285    2.2164 C   0  0  0  0  0  0  0  0  0  0  0  0
   -1.2291   -4.8171    3.0568 C   0  0  0  0  0  0  0  0  0  0  0  0
   -0.6380   -3.5683    3.0421 C   0  0  0  0  0  0  0  0  0  0  0  0
    1.4746    0.3839    7.4738 C   0  0  0  0  0  0  0  0  0  0  0  0
   -1.3928   -7.1990    2.2700 C   0  0  0  0  0  0  0  0  0  0  0  0
   -0.0172    6.9629   -2.1349 C   0  0  0  0  0  0  0  0  0  0  0  0
   -1.0704   -1.2491   -7.0742 C   0  0  0  0  0  0  0  0  0  0  0  0
    1.2690    7.1035   -2.9517 C   0  0  0  0  0  0  0  0  0  0  0  0
   -1.7724   -0.4002   -8.1363 C   0  0  0  0  0  0  0  0  0  0  0  0
    0.1675    0.1437    8.2323 C   0  0  0  0  0  0  0  0  0  0  0  0
   -0.6595   -8.0710    3.2914 C   0  0  0  0  0  0  0  0  0  0  0  0
    7.0711   -1.6394   -0.3028 S   0  0  0  0  0  0  0  0  0  0  0  0
    8.4568   -2.4242    0.4221 C   0  0  0  0  0  0  0  0  0  0  0  0
    8.0533   -3.1333    1.5696 C   0  0  0  0  0  0  0  0  0  0  0  0
    6.6898   -3.0524    1.8430 C   0  0  0  0  0  0  0  0  0  0  0  0
   -7.5071    1.3864    0.7368 S   0  0  0  0  0  0  0  0  0  0  0  0
   -8.8576    2.2978    0.0984 C   0  0  0  0  0  0  0  0  0  0  0  0
   -8.4931    2.8980   -1.1099 C   0  0  0  0  0  0  0  0  0  0  0  0
   -7.1559    2.6610   -1.4713 C   0  0  0  0  0  0  0  0  0  0  0  0
  -10.0792    2.2966    0.7845 C   0  0  0  0  0  0  0  0  0  0  0  0
  -11.0366    3.2827    0.7440 C   0  0  0  0  0  0  0  0  0  0  0  0
  -10.7783    4.6850    0.3699 C   0  0  0  0  0  0  0  0  0  0  0  0
  -12.0312    5.4118    0.6878 C   0  0  0  0  0  0  0  0  0  0  0  0
  -12.9693    4.5201    1.2330 C   0  0  0  0  0  0  0  0  0  0  0  0
  -12.3795    3.1815    1.2629 C   0  0  0  0  0  0  0  0  0  0  0  0
  -12.3042    6.7554    0.5301 C   0  0  0  0  0  0  0  0  0  0  0  0
  -13.5538    7.2091    0.9220 C   0  0  0  0  0  0  0  0  0  0  0  0
  -14.4908    6.3310    1.4647 C   0  0  0  0  0  0  0  0  0  0  0  0
  -14.2145    4.9815    1.6288 C   0  0  0  0  0  0  0  0  0  0  0  0
   -9.7392    5.1871   -0.0039 O   0  0  0  0  0  0  0  0  0  0  0  0
  -13.0284    2.0314    1.6346 C   0  0  0  0  0  0  0  0  0  0  0  0
  -14.3524    1.9919    2.1170 C   0  0  0  0  0  0  0  0  0  0  0  0
  -12.4757    0.7361    1.5555 C   0  0  0  0  0  0  0  0  0  0  0  0
  -12.1054   -0.3492    1.4941 N   0  0  0  0  0  0  0  0  0  0  0  0
  -15.4223    1.9002    2.5232 N   0  0  0  0  0  0  0  0  0  0  0  0
  -15.6875    6.7983    1.8416 F   0  0  0  0  0  0  0  0  0  0  0  0
  -13.8630    8.5051    0.7786 F   0  0  0  0  0  0  0  0  0  0  0  0
    9.7901   -2.3887    0.0236 C   0  0  0  0  0  0  0  0  0  0  0  0
   10.3681   -1.7532   -1.0537 C   0  0  0  0  0  0  0  0  0  0  0  0
    9.6380   -0.9906   -2.0624 C   0  0  0  0  0  0  0  0  0  0  0  0
   10.6511   -0.5326   -3.0378 C   0  0  0  0  0  0  0  0  0  0  0  0
   11.9183   -0.9870   -2.6356 C   0  0  0  0  0  0  0  0  0  0  0  0
   11.7728   -1.7463   -1.3902 C   0  0  0  0  0  0  0  0  0  0  0  0
   10.4665    0.2187   -4.1806 C   0  0  0  0  0  0  0  0  0  0  0  0
   11.5868    0.5196   -4.9390 C   0  0  0  0  0  0  0  0  0  0  0  0
   12.8486    0.0727   -4.5496 C   0  0  0  0  0  0  0  0  0  0  0  0
   13.0330   -0.6819   -3.3996 C   0  0  0  0  0  0  0  0  0  0  0  0
    8.4404   -0.7692   -2.1138 O   0  0  0  0  0  0  0  0  0  0  0  0
   12.8062   -2.3170   -0.6911 C   0  0  0  0  0  0  0  0  0  0  0  0
   14.1572   -2.2603   -1.0926 C   0  0  0  0  0  0  0  0  0  0  0  0
   12.6899   -3.0279    0.5217 C   0  0  0  0  0  0  0  0  0  0  0  0
   15.2723   -2.2573   -1.3657 N   0  0  0  0  0  0  0  0  0  0  0  0
   12.6970   -3.6114    1.5112 N   0  0  0  0  0  0  0  0  0  0  0  0
   11.4554    1.2464   -6.0568 F   0  0  0  0  0  0  0  0  0  0  0  0
   13.9137    0.3767   -5.3015 F   0  0  0  0  0  0  0  0  0  0  0  0
   -9.3550    3.5605   -1.9057 O   0  0  0  0  0  0  0  0  0  0  0  0
   -8.6925    4.3514   -2.8763 C   0  0  0  0  0  0  0  0  0  0  0  0
   -7.5911    3.5443   -3.5616 C   0  0  0  0  0  0  0  0  0  0  0  0
   -6.6075    3.1328   -2.6281 O   0  0  0  0  0  0  0  0  0  0  0  0
    8.9312   -3.8153    2.3409 O   0  0  0  0  0  0  0  0  0  0  0  0
    8.3788   -4.1866    3.5906 C   0  0  0  0  0  0  0  0  0  0  0  0
    6.9547   -4.7157    3.4140 C   0  0  0  0  0  0  0  0  0  0  0  0
    6.1062   -3.7106    2.8898 O   0  0  0  0  0  0  0  0  0  0  0  0
   -1.7529   -1.1259    1.9477 H   0  0  0  0  0  0  0  0  0  0  0  0
    1.2431    0.5209   -1.7205 H   0  0  0  0  0  0  0  0  0  0  0  0
   -4.3921    2.4792   -2.3925 H   0  0  0  0  0  0  0  0  0  0  0  0
    3.9131   -2.9561    2.7030 H   0  0  0  0  0  0  0  0  0  0  0  0
    0.3769    1.6919   -3.7808 H   0  0  0  0  0  0  0  0  0  0  0  0
    0.6034    0.5609   -5.9417 H   0  0  0  0  0  0  0  0  0  0  0  0
   -2.9957   -1.5988   -5.1922 H   0  0  0  0  0  0  0  0  0  0  0  0
   -3.2169   -0.4862   -3.0234 H   0  0  0  0  0  0  0  0  0  0  0  0
   -2.2080    3.1873   -3.7326 H   0  0  0  0  0  0  0  0  0  0  0  0
   -1.6150    5.5661   -3.8253 H   0  0  0  0  0  0  0  0  0  0  0  0
    0.6677    5.1340   -0.2504 H   0  0  0  0  0  0  0  0  0  0  0  0
    0.0688    2.7633   -0.1468 H   0  0  0  0  0  0  0  0  0  0  0  0
    1.8846   -3.0866    4.4082 H   0  0  0  0  0  0  0  0  0  0  0  0
    2.1188   -2.1208    6.6511 H   0  0  0  0  0  0  0  0  0  0  0  0
    0.6359    1.6036    5.1996 H   0  0  0  0  0  0  0  0  0  0  0  0
    0.4128    0.6488    2.9582 H   0  0  0  0  0  0  0  0  0  0  0  0
    1.6841   -4.1125    0.6573 H   0  0  0  0  0  0  0  0  0  0  0  0
    0.6360   -6.3244    0.6938 H   0  0  0  0  0  0  0  0  0  0  0  0
   -2.0529   -5.0084    3.7297 H   0  0  0  0  0  0  0  0  0  0  0  0
   -0.9973   -2.7982    3.7094 H   0  0  0  0  0  0  0  0  0  0  0  0
    1.6666    1.4573    7.4191 H   0  0  0  0  0  0  0  0  0  0  0  0
    2.2975   -0.0836    8.0183 H   0  0  0  0  0  0  0  0  0  0  0  0
   -1.3334   -7.6698    1.2867 H   0  0  0  0  0  0  0  0  0  0  0  0
   -2.4452   -7.1247    2.5508 H   0  0  0  0  0  0  0  0  0  0  0  0
   -0.8101    7.5444   -2.6096 H   0  0  0  0  0  0  0  0  0  0  0  0
    0.1476    7.3634   -1.1327 H   0  0  0  0  0  0  0  0  0  0  0  0
   -0.0187   -1.3642   -7.3436 H   0  0  0  0  0  0  0  0  0  0  0  0
   -1.5270   -2.2404   -7.0463 H   0  0  0  0  0  0  0  0  0  0  0  0
    1.5663    8.1474   -3.0172 H   0  0  0  0  0  0  0  0  0  0  0  0
    1.1213    6.7202   -3.9590 H   0  0  0  0  0  0  0  0  0  0  0  0
    2.0754    6.5407   -2.4869 H   0  0  0  0  0  0  0  0  0  0  0  0
   -1.3226    0.5888   -8.1878 H   0  0  0  0  0  0  0  0  0  0  0  0
   -1.6917   -0.8700   -9.1137 H   0  0  0  0  0  0  0  0  0  0  0  0
   -2.8261   -0.2845   -7.8920 H   0  0  0  0  0  0  0  0  0  0  0  0
   -0.6637    0.6128    7.7107 H   0  0  0  0  0  0  0  0  0  0  0  0
    0.2273    0.5592    9.2354 H   0  0  0  0  0  0  0  0  0  0  0  0
   -0.0350   -0.9222    8.3089 H   0  0  0  0  0  0  0  0  0  0  0  0
   -0.7180   -7.6240    4.2814 H   0  0  0  0  0  0  0  0  0  0  0  0
   -1.1014   -9.0637    3.3317 H   0  0  0  0  0  0  0  0  0  0  0  0
    0.3899   -8.1682    3.0215 H   0  0  0  0  0  0  0  0  0  0  0  0
  -10.2390    1.4511    1.4428 H   0  0  0  0  0  0  0  0  0  0  0  0
  -11.5761    7.4337    0.1149 H   0  0  0  0  0  0  0  0  0  0  0  0
  -14.9691    4.3441    2.0597 H   0  0  0  0  0  0  0  0  0  0  0  0
   10.4378   -2.9557    0.6817 H   0  0  0  0  0  0  0  0  0  0  0  0
    9.4882    0.5615   -4.4772 H   0  0  0  0  0  0  0  0  0  0  0  0
   14.0296   -1.0022   -3.1442 H   0  0  0  0  0  0  0  0  0  0  0  0
   -8.2622    5.2323   -2.3853 H   0  0  0  0  0  0  0  0  0  0  0  0
   -9.4561    4.6606   -3.5903 H   0  0  0  0  0  0  0  0  0  0  0  0
   -8.0321    2.6606   -4.0422 H   0  0  0  0  0  0  0  0  0  0  0  0
   -7.0694    4.1456   -4.3069 H   0  0  0  0  0  0  0  0  0  0  0  0
    9.0383   -4.9519    4.0002 H   0  0  0  0  0  0  0  0  0  0  0  0
    8.3630   -3.3147    4.2572 H   0  0  0  0  0  0  0  0  0  0  0  0
    6.5249   -5.0104    4.3716 H   0  0  0  0  0  0  0  0  0  0  0  0
    6.9708   -5.5775    2.7335 H   0  0  0  0  0  0  0  0  0  0  0  0
  1  2  1  0  0  0  0
  2  3  2  0  0  0  0
  3  4  1  0  0  0  0
  4  5  2  0  0  0  0
  5  6  1  0  0  0  0
  6  1  2  0  0  0  0
  1  7  1  0  0  0  0
  7  8  1  0  0  0  0
  8  9  2  0  0  0  0
  9  2  1  0  0  0  0
  8 10  1  0  0  0  0
 10 11  2  0  0  0  0
 11 12  1  0  0  0  0
 12  9  1  0  0  0  0
  4 13  1  0  0  0  0
 13 14  1  0  0  0  0
 14 15  2  0  0  0  0
 15  5  1  0  0  0  0
 14 16  1  0  0  0  0
 16 17  2  0  0  0  0
 17 18  1  0  0  0  0
 18 15  1  0  0  0  0
 11 19  1  0  0  0  0
 17 20  1  0  0  0  0
 13 21  1  0  0  0  0
 13 22  1  0  0  0  0
  7 23  1  0  0  0  0
  7 24  1  0  0  0  0
 23 25  2  0  0  0  0
 25 26  1  0  0  0  0
 26 27  2  0  0  0  0
 27 28  1  0  0  0  0
 28 29  2  0  0  0  0
 29 23  1  0  0  0  0
 24 30  2  0  0  0  0
 30 31  1  0  0  0  0
 31 32  2  0  0  0  0
 32 33  1  0  0  0  0
 33 34  2  0  0  0  0
 34 24  1  0  0  0  0
 21 35  2  0  0  0  0
 35 36  1  0  0  0  0
 36 37  2  0  0  0  0
 37 38  1  0  0  0  0
 38 39  2  0  0  0  0
 39 21  1  0  0  0  0
 22 40  2  0  0  0  0
 40 41  1  0  0  0  0
 41 42  2  0  0  0  0
 42 43  1  0  0  0  0
 43 44  2  0  0  0  0
 44 22  1  0  0  0  0
 37 45  1  0  0  0  0
 42 46  1  0  0  0  0
 32 47  1  0  0  0  0
 27 48  1  0  0  0  0
 47 49  1  0  0  0  0
 48 50  1  0  0  0  0
 45 51  1  0  0  0  0
 46 52  1  0  0  0  0
 20 53  1  0  0  0  0
 53 54  1  0  0  0  0
 54 55  2  0  0  0  0
 55 56  1  0  0  0  0
 56 20  2  0  0  0  0
 19 57  1  0  0  0  0
 57 58  1  0  0  0  0
 58 59  2  0  0  0  0
 59 60  1  0  0  0  0
 60 19  2  0  0  0  0
 58 61  1  0  0  0  0
 61 62  2  0  0  0  0
 62 63  1  0  0  0  0
 63 64  1  0  0  0  0
 64 65  2  0  0  0  0
 65 66  1  0  0  0  0
 66 62  1  0  0  0  0
 64 67  1  0  0  0  0
 67 68  2  0  0  0  0
 68 69  1  0  0  0  0
 69 70  2  0  0  0  0
 70 65  1  0  0  0  0
 63 71  2  0  0  0  0
 66 72  2  0  0  0  0
 72 73  1  0  0  0  0
 72 74  1  0  0  0  0
 74 75  3  0  0  0  0
 73 76  3  0  0  0  0
 69 77  1  0  0  0  0
 68 78  1  0  0  0  0
 54 79  1  0  0  0  0
 79 80  2  0  0  0  0
 80 81  1  0  0  0  0
 81 82  1  0  0  0  0
 82 83  2  0  0  0  0
 83 84  1  0  0  0  0
 84 80  1  0  0  0  0
 82 85  1  0  0  0  0
 85 86  2  0  0  0  0
 86 87  1  0  0  0  0
 87 88  2  0  0  0  0
 88 83  1  0  0  0  0
 81 89  2  0  0  0  0
 84 90  2  0  0  0  0
 90 91  1  0  0  0  0
 90 92  1  0  0  0  0
 91 93  3  0  0  0  0
 92 94  3  0  0  0  0
 86 95  1  0  0  0  0
 87 96  1  0  0  0  0
 59 97  1  0  0  0  0
 97 98  1  0  0  0  0
 98 99  1  0  0  0  0
 99100  1  0  0  0  0
100 60  1  0  0  0  0
 55101  1  0  0  0  0
101102  1  0  0  0  0
102103  1  0  0  0  0
103104  1  0  0  0  0
104 56  1  0  0  0  0
  3105  1  0  0  0  0
  6106  1  0  0  0  0
 10107  1  0  0  0  0
 16108  1  0  0  0  0
 25109  1  0  0  0  0
 26110  1  0  0  0  0
 28111  1  0  0  0  0
 29112  1  0  0  0  0
 30113  1  0  0  0  0
 31114  1  0  0  0  0
 33115  1  0  0  0  0
 34116  1  0  0  0  0
 35117  1  0  0  0  0
 36118  1  0  0  0  0
 38119  1  0  0  0  0
 39120  1  0  0  0  0
 40121  1  0  0  0  0
 41122  1  0  0  0  0
 43123  1  0  0  0  0
 44124  1  0  0  0  0
 45125  1  0  0  0  0
 45126  1  0  0  0  0
 46127  1  0  0  0  0
 46128  1  0  0  0  0
 47129  1  0  0  0  0
 47130  1  0  0  0  0
 48131  1  0  0  0  0
 48132  1  0  0  0  0
 49133  1  0  0  0  0
 49134  1  0  0  0  0
 49135  1  0  0  0  0
 50136  1  0  0  0  0
 50137  1  0  0  0  0
 50138  1  0  0  0  0
 51139  1  0  0  0  0
 51140  1  0  0  0  0
 51141  1  0  0  0  0
 52142  1  0  0  0  0
 52143  1  0  0  0  0
 52144  1  0  0  0  0
 61145  1  0  0  0  0
 67146  1  0  0  0  0
 70147  1  0  0  0  0
 79148  1  0  0  0  0
 85149  1  0  0  0  0
 88150  1  0  0  0  0
 98151  1  0  0  0  0
 98152  1  0  0  0  0
 99153  1  0  0  0  0
 99154  1  0  0  0  0
102155  1  0  0  0  0
102156  1  0  0  0  0
103157  1  0  0  0  0
103158  1  0  0  0  0
M  END
