IDT6CN-M.sdf
  xtb     12202114253D
 energy: -224.004533745776 gnorm: 0.000145655397 xtb: 6.4.1 (unknown)
141154  0     0  0            999 V2000
    1.5132   -2.7725   -0.8261 C   0  0  0  0  0  0  0  0  0  0  0  0
   -0.8277   -3.4108   -1.4759 C   0  0  0  0  0  0  0  0  0  0  0  0
    1.5378   -3.7268    0.1833 C   0  0  0  0  0  0  0  0  0  0  0  0
    2.7397   -4.1550    0.7129 C   0  0  0  0  0  0  0  0  0  0  0  0
    3.9458   -3.6429    0.2518 C   0  0  0  0  0  0  0  0  0  0  0  0
    3.9143   -2.6793   -0.7467 C   0  0  0  0  0  0  0  0  0  0  0  0
    2.7139   -2.2445   -1.2780 C   0  0  0  0  0  0  0  0  0  0  0  0
   -0.4418   -4.6051   -2.0734 C   0  0  0  0  0  0  0  0  0  0  0  0
   -1.3491   -5.6332   -2.2348 C   0  0  0  0  0  0  0  0  0  0  0  0
   -2.6639   -5.4973   -1.8057 C   0  0  0  0  0  0  0  0  0  0  0  0
   -3.0449   -4.2994   -1.2178 C   0  0  0  0  0  0  0  0  0  0  0  0
   -2.1412   -3.2638   -1.0568 C   0  0  0  0  0  0  0  0  0  0  0  0
    5.2465   -4.0844    0.8578 C   0  0  0  0  0  0  0  0  0  0  0  0
    5.5783   -3.2348    2.0863 C   0  0  0  0  0  0  0  0  0  0  0  0
   -3.6590   -6.6002   -2.0229 C   0  0  0  0  0  0  0  0  0  0  0  0
   -4.3180   -6.4604   -3.3968 C   0  0  0  0  0  0  0  0  0  0  0  0
   -0.8632    0.1983    1.3403 C   0  0  0  0  0  0  0  0  0  0  0  0
   -1.2037    1.2919    0.5081 C   0  0  0  0  0  0  0  0  0  0  0  0
   -1.0101    0.6417    2.6895 C   0  0  0  0  0  0  0  0  0  0  0  0
   -1.4176    1.9739    2.7299 C   0  0  0  0  0  0  0  0  0  0  0  0
   -1.6644    2.4818    1.3322 C   0  0  0  0  0  0  0  0  0  0  0  0
   -0.8504    3.7012    0.9492 C   0  0  0  0  0  0  0  0  0  0  0  0
   -3.1568    2.7515    1.2159 C   0  0  0  0  0  0  0  0  0  0  0  0
   -1.2634    4.5061   -0.1054 C   0  0  0  0  0  0  0  0  0  0  0  0
   -0.5074    5.5949   -0.4940 C   0  0  0  0  0  0  0  0  0  0  0  0
    0.6796    5.9079    0.1561 C   0  0  0  0  0  0  0  0  0  0  0  0
    1.0930    5.0938    1.2014 C   0  0  0  0  0  0  0  0  0  0  0  0
    0.3411    4.0011    1.5931 C   0  0  0  0  0  0  0  0  0  0  0  0
   -4.0220    1.8693    0.5866 C   0  0  0  0  0  0  0  0  0  0  0  0
   -5.3786    2.1372    0.5366 C   0  0  0  0  0  0  0  0  0  0  0  0
   -5.9036    3.2832    1.1168 C   0  0  0  0  0  0  0  0  0  0  0  0
   -5.0328    4.1562    1.7577 C   0  0  0  0  0  0  0  0  0  0  0  0
   -3.6778    3.8955    1.8093 C   0  0  0  0  0  0  0  0  0  0  0  0
    1.5167    7.0687   -0.2981 C   0  0  0  0  0  0  0  0  0  0  0  0
    2.4486    6.6429   -1.4344 C   0  0  0  0  0  0  0  0  0  0  0  0
   -7.3817    3.5459    1.0989 C   0  0  0  0  0  0  0  0  0  0  0  0
   -8.0525    2.9021    2.3141 C   0  0  0  0  0  0  0  0  0  0  0  0
   -0.7457   -0.0089    4.2445 S   0  0  0  0  0  0  0  0  0  0  0  0
   -1.1579    1.5472    4.9781 C   0  0  0  0  0  0  0  0  0  0  0  0
   -1.5121    2.4841    4.0127 C   0  0  0  0  0  0  0  0  0  0  0  0
   -1.0562    1.6111    6.3793 C   0  0  0  0  0  0  0  0  0  0  0  0
   -1.1313    2.6674    7.2481 C   0  0  0  0  0  0  0  0  0  0  0  0
   -1.2438    4.1146    6.9450 C   0  0  0  0  0  0  0  0  0  0  0  0
   -0.9696    4.8068    8.2164 C   0  0  0  0  0  0  0  0  0  0  0  0
   -0.7844    3.8674    9.2437 C   0  0  0  0  0  0  0  0  0  0  0  0
   -0.9559    2.5284    8.6849 C   0  0  0  0  0  0  0  0  0  0  0  0
   -1.4998    4.6565    5.8883 O   0  0  0  0  0  0  0  0  0  0  0  0
   -1.0059    1.3719    9.4186 C   0  0  0  0  0  0  0  0  0  0  0  0
   -0.8367    1.3175   10.8183 C   0  0  0  0  0  0  0  0  0  0  0  0
   -1.2728    0.0801    8.9166 C   0  0  0  0  0  0  0  0  0  0  0  0
   -0.7032    1.1978   11.9524 N   0  0  0  0  0  0  0  0  0  0  0  0
   -1.5023   -1.0013    8.6039 N   0  0  0  0  0  0  0  0  0  0  0  0
   -0.8784    6.1637    8.4598 C   0  0  0  0  0  0  0  0  0  0  0  0
   -0.5900    6.5828    9.7484 C   0  0  0  0  0  0  0  0  0  0  0  0
   -0.3927    5.6668   10.7799 C   0  0  0  0  0  0  0  0  0  0  0  0
   -0.4923    4.2995   10.5258 C   0  0  0  0  0  0  0  0  0  0  0  0
   -0.0489    6.1432   12.1554 C   0  0  0  0  0  0  0  0  0  0  0  0
    2.1186   -3.2646   -7.3495 C   0  0  0  0  0  0  0  0  0  0  0  0
    2.5063   -2.8853   -8.6058 C   0  0  0  0  0  0  0  0  0  0  0  0
    2.5170   -1.5276   -9.2038 C   0  0  0  0  0  0  0  0  0  0  0  0
    3.3136   -1.6460  -10.4371 C   0  0  0  0  0  0  0  0  0  0  0  0
    3.6962   -2.9825  -10.6349 C   0  0  0  0  0  0  0  0  0  0  0  0
    3.1418   -3.7900   -9.5512 C   0  0  0  0  0  0  0  0  0  0  0  0
    1.9998   -0.5092   -8.7913 O   0  0  0  0  0  0  0  0  0  0  0  0
    3.1661   -5.1589   -9.4980 C   0  0  0  0  0  0  0  0  0  0  0  0
    3.7910   -5.9749  -10.4648 C   0  0  0  0  0  0  0  0  0  0  0  0
    2.5444   -5.9619   -8.5177 C   0  0  0  0  0  0  0  0  0  0  0  0
    4.2820   -6.6978  -11.2095 N   0  0  0  0  0  0  0  0  0  0  0  0
    2.0536   -6.6934   -7.7803 N   0  0  0  0  0  0  0  0  0  0  0  0
    3.6872   -0.6535  -11.3233 C   0  0  0  0  0  0  0  0  0  0  0  0
    4.4603   -1.0062  -12.4167 C   0  0  0  0  0  0  0  0  0  0  0  0
    4.8595   -2.3257  -12.6260 C   0  0  0  0  0  0  0  0  0  0  0  0
    4.4736   -3.3206  -11.7298 C   0  0  0  0  0  0  0  0  0  0  0  0
    5.7188   -2.6682  -13.8014 C   0  0  0  0  0  0  0  0  0  0  0  0
   -1.0488    1.2140   -0.8562 C   0  0  0  0  0  0  0  0  0  0  0  0
   -0.5734    0.0123   -1.3741 C   0  0  0  0  0  0  0  0  0  0  0  0
   -0.2990   -1.1041   -0.5475 C   0  0  0  0  0  0  0  0  0  0  0  0
   -0.4279   -1.0180    0.8184 C   0  0  0  0  0  0  0  0  0  0  0  0
   -0.2205   -0.3592   -2.7083 C   0  0  0  0  0  0  0  0  0  0  0  0
    0.2717   -1.6541   -2.7372 C   0  0  0  0  0  0  0  0  0  0  0  0
    0.1878   -2.2829   -1.3721 C   0  0  0  0  0  0  0  0  0  0  0  0
   -0.1911    0.4480   -4.2381 S   0  0  0  0  0  0  0  0  0  0  0  0
    0.5197   -0.9733   -4.9504 C   0  0  0  0  0  0  0  0  0  0  0  0
    0.6876   -2.0168   -4.0152 C   0  0  0  0  0  0  0  0  0  0  0  0
    0.9808   -1.2674   -6.2251 C   0  0  0  0  0  0  0  0  0  0  0  0
    1.5198   -2.5419   -6.3000 C   0  0  0  0  0  0  0  0  0  0  0  0
    1.4131   -3.3892   -4.7478 S   0  0  0  0  0  0  0  0  0  0  0  0
    0.6111   -4.1472    0.5465 H   0  0  0  0  0  0  0  0  0  0  0  0
    2.7414   -4.9026    1.4931 H   0  0  0  0  0  0  0  0  0  0  0  0
    4.8408   -2.2639   -1.1169 H   0  0  0  0  0  0  0  0  0  0  0  0
    2.7156   -1.4896   -2.0511 H   0  0  0  0  0  0  0  0  0  0  0  0
    0.5784   -4.7307   -2.4067 H   0  0  0  0  0  0  0  0  0  0  0  0
   -1.0311   -6.5548   -2.7001 H   0  0  0  0  0  0  0  0  0  0  0  0
   -4.0632   -4.1714   -0.8789 H   0  0  0  0  0  0  0  0  0  0  0  0
   -2.4643   -2.3406   -0.5983 H   0  0  0  0  0  0  0  0  0  0  0  0
    6.0493   -3.9868    0.1245 H   0  0  0  0  0  0  0  0  0  0  0  0
    5.1793   -5.1331    1.1539 H   0  0  0  0  0  0  0  0  0  0  0  0
    6.5212   -3.5524    2.5252 H   0  0  0  0  0  0  0  0  0  0  0  0
    5.6589   -2.1857    1.8101 H   0  0  0  0  0  0  0  0  0  0  0  0
    4.7960   -3.3313    2.8358 H   0  0  0  0  0  0  0  0  0  0  0  0
   -4.4281   -6.5638   -1.2488 H   0  0  0  0  0  0  0  0  0  0  0  0
   -3.1574   -7.5679   -1.9624 H   0  0  0  0  0  0  0  0  0  0  0  0
   -5.0378   -7.2597   -3.5565 H   0  0  0  0  0  0  0  0  0  0  0  0
   -4.8351   -5.5063   -3.4732 H   0  0  0  0  0  0  0  0  0  0  0  0
   -3.5674   -6.5063   -4.1825 H   0  0  0  0  0  0  0  0  0  0  0  0
   -2.1904    4.2874   -0.6161 H   0  0  0  0  0  0  0  0  0  0  0  0
   -0.8467    6.2145   -1.3120 H   0  0  0  0  0  0  0  0  0  0  0  0
    2.0144    5.3180    1.7200 H   0  0  0  0  0  0  0  0  0  0  0  0
    0.6837    3.3829    2.4101 H   0  0  0  0  0  0  0  0  0  0  0  0
   -3.6404    0.9691    0.1273 H   0  0  0  0  0  0  0  0  0  0  0  0
   -6.0383    1.4429    0.0357 H   0  0  0  0  0  0  0  0  0  0  0  0
   -5.4207    5.0520    2.2209 H   0  0  0  0  0  0  0  0  0  0  0  0
   -3.0149    4.5884    2.3059 H   0  0  0  0  0  0  0  0  0  0  0  0
    0.8703    7.8763   -0.6476 H   0  0  0  0  0  0  0  0  0  0  0  0
    2.1130    7.4446    0.5356 H   0  0  0  0  0  0  0  0  0  0  0  0
    3.0557    7.4827   -1.7642 H   0  0  0  0  0  0  0  0  0  0  0  0
    1.8713    6.2776   -2.2807 H   0  0  0  0  0  0  0  0  0  0  0  0
    3.1093    5.8451   -1.1023 H   0  0  0  0  0  0  0  0  0  0  0  0
   -7.8202    3.1358    0.1868 H   0  0  0  0  0  0  0  0  0  0  0  0
   -7.5669    4.6217    1.1139 H   0  0  0  0  0  0  0  0  0  0  0  0
   -9.1232    3.0925    2.3036 H   0  0  0  0  0  0  0  0  0  0  0  0
   -7.6361    3.3063    3.2340 H   0  0  0  0  0  0  0  0  0  0  0  0
   -7.8905    1.8265    2.3101 H   0  0  0  0  0  0  0  0  0  0  0  0
   -1.7987    3.4872    4.2666 H   0  0  0  0  0  0  0  0  0  0  0  0
   -0.8332    0.6491    6.8272 H   0  0  0  0  0  0  0  0  0  0  0  0
   -1.0295    6.8686    7.6566 H   0  0  0  0  0  0  0  0  0  0  0  0
   -0.5133    7.6389    9.9624 H   0  0  0  0  0  0  0  0  0  0  0  0
   -0.3337    3.6011   11.3316 H   0  0  0  0  0  0  0  0  0  0  0  0
    1.0319    6.2586   12.2445 H   0  0  0  0  0  0  0  0  0  0  0  0
   -0.5067    7.1081   12.3598 H   0  0  0  0  0  0  0  0  0  0  0  0
   -0.3724    5.4271   12.9065 H   0  0  0  0  0  0  0  0  0  0  0  0
    2.3402   -4.2901   -7.0754 H   0  0  0  0  0  0  0  0  0  0  0  0
    3.3777    0.3666  -11.1547 H   0  0  0  0  0  0  0  0  0  0  0  0
    4.7650   -0.2483  -13.1237 H   0  0  0  0  0  0  0  0  0  0  0  0
    4.7917   -4.3365  -11.8995 H   0  0  0  0  0  0  0  0  0  0  0  0
    5.7015   -3.7366  -13.9992 H   0  0  0  0  0  0  0  0  0  0  0  0
    5.3875   -2.1354  -14.6902 H   0  0  0  0  0  0  0  0  0  0  0  0
    6.7500   -2.3746  -13.6028 H   0  0  0  0  0  0  0  0  0  0  0  0
   -1.2657    2.0493   -1.5038 H   0  0  0  0  0  0  0  0  0  0  0  0
   -0.1867   -1.8453    1.4677 H   0  0  0  0  0  0  0  0  0  0  0  0
    0.9481   -0.5966   -7.0633 H   0  0  0  0  0  0  0  0  0  0  0  0
  1  3  2  0  0  0  0
  3  4  1  0  0  0  0
  4  5  2  0  0  0  0
  5  6  1  0  0  0  0
  6  7  2  0  0  0  0
  7  1  1  0  0  0  0
  2  8  2  0  0  0  0
  8  9  1  0  0  0  0
  9 10  2  0  0  0  0
 10 11  1  0  0  0  0
 11 12  2  0  0  0  0
 12  2  1  0  0  0  0
  5 13  1  0  0  0  0
 13 14  1  0  0  0  0
 10 15  1  0  0  0  0
 15 16  1  0  0  0  0
 17 18  2  0  0  0  0
 17 19  1  0  0  0  0
 19 20  2  0  0  0  0
 20 21  1  0  0  0  0
 21 18  1  0  0  0  0
 21 22  1  0  0  0  0
 21 23  1  0  0  0  0
 22 24  2  0  0  0  0
 24 25  1  0  0  0  0
 25 26  2  0  0  0  0
 26 27  1  0  0  0  0
 27 28  2  0  0  0  0
 28 22  1  0  0  0  0
 23 29  2  0  0  0  0
 29 30  1  0  0  0  0
 30 31  2  0  0  0  0
 31 32  1  0  0  0  0
 32 33  2  0  0  0  0
 33 23  1  0  0  0  0
 26 34  1  0  0  0  0
 34 35  1  0  0  0  0
 31 36  1  0  0  0  0
 36 37  1  0  0  0  0
 19 38  1  0  0  0  0
 38 39  1  0  0  0  0
 39 40  2  0  0  0  0
 40 20  1  0  0  0  0
 39 41  1  0  0  0  0
 41 42  2  0  0  0  0
 42 43  1  0  0  0  0
 43 44  1  0  0  0  0
 44 45  2  0  0  0  0
 45 46  1  0  0  0  0
 46 42  1  0  0  0  0
 43 47  2  0  0  0  0
 46 48  2  0  0  0  0
 48 49  1  0  0  0  0
 48 50  1  0  0  0  0
 49 51  3  0  0  0  0
 50 52  3  0  0  0  0
 44 53  1  0  0  0  0
 53 54  2  0  0  0  0
 55 56  2  0  0  0  0
 56 45  1  0  0  0  0
 55 54  1  0  0  0  0
 55 57  1  0  0  0  0
 58 59  2  0  0  0  0
 59 60  1  0  0  0  0
 60 61  1  0  0  0  0
 61 62  2  0  0  0  0
 62 63  1  0  0  0  0
 63 59  1  0  0  0  0
 60 64  2  0  0  0  0
 63 65  2  0  0  0  0
 65 66  1  0  0  0  0
 65 67  1  0  0  0  0
 66 68  3  0  0  0  0
 67 69  3  0  0  0  0
 61 70  1  0  0  0  0
 70 71  2  0  0  0  0
 71 72  1  0  0  0  0
 72 73  2  0  0  0  0
 73 62  1  0  0  0  0
 72 74  1  0  0  0  0
 18 75  1  0  0  0  0
 75 76  2  0  0  0  0
 76 77  1  0  0  0  0
 77 78  2  0  0  0  0
 78 17  1  0  0  0  0
 76 79  1  0  0  0  0
 79 80  2  0  0  0  0
 80 81  1  0  0  0  0
 81 77  1  0  0  0  0
 79 82  1  0  0  0  0
 82 83  1  0  0  0  0
 83 84  2  0  0  0  0
 84 80  1  0  0  0  0
 83 85  1  0  0  0  0
 85 86  2  0  0  0  0
 86 87  1  0  0  0  0
 87 84  1  0  0  0  0
 81  1  1  0  0  0  0
 81  2  1  0  0  0  0
 86 58  1  0  0  0  0
  3 88  1  0  0  0  0
  4 89  1  0  0  0  0
  6 90  1  0  0  0  0
  7 91  1  0  0  0  0
  8 92  1  0  0  0  0
  9 93  1  0  0  0  0
 11 94  1  0  0  0  0
 12 95  1  0  0  0  0
 13 96  1  0  0  0  0
 13 97  1  0  0  0  0
 14 98  1  0  0  0  0
 14 99  1  0  0  0  0
 14100  1  0  0  0  0
 15101  1  0  0  0  0
 15102  1  0  0  0  0
 16103  1  0  0  0  0
 16104  1  0  0  0  0
 16105  1  0  0  0  0
 24106  1  0  0  0  0
 25107  1  0  0  0  0
 27108  1  0  0  0  0
 28109  1  0  0  0  0
 29110  1  0  0  0  0
 30111  1  0  0  0  0
 32112  1  0  0  0  0
 33113  1  0  0  0  0
 34114  1  0  0  0  0
 34115  1  0  0  0  0
 35116  1  0  0  0  0
 35117  1  0  0  0  0
 35118  1  0  0  0  0
 36119  1  0  0  0  0
 36120  1  0  0  0  0
 37121  1  0  0  0  0
 37122  1  0  0  0  0
 37123  1  0  0  0  0
 40124  1  0  0  0  0
 41125  1  0  0  0  0
 53126  1  0  0  0  0
 54127  1  0  0  0  0
 56128  1  0  0  0  0
 57129  1  0  0  0  0
 57130  1  0  0  0  0
 57131  1  0  0  0  0
 58132  1  0  0  0  0
 70133  1  0  0  0  0
 71134  1  0  0  0  0
 73135  1  0  0  0  0
 74136  1  0  0  0  0
 74137  1  0  0  0  0
 74138  1  0  0  0  0
 75139  1  0  0  0  0
 78140  1  0  0  0  0
 85141  1  0  0  0  0
M  END
