IDTA.sdf
  xtb     12202114253D
 energy: -154.532810759166 gnorm: 0.000185884234 xtb: 6.4.1 (unknown)
100106  0     0  0            999 V2000
    1.4869   -0.0027    0.0186 C   0  0  0  0  0  0  0  0  0  0  0  0
    1.5390   -0.3019    1.4026 C   0  0  0  0  0  0  0  0  0  0  0  0
    0.4146   -0.7529    2.0559 C   0  0  0  0  0  0  0  0  0  0  0  0
   -0.7580   -0.8707    1.3120 C   0  0  0  0  0  0  0  0  0  0  0  0
   -0.8088   -0.5640   -0.0693 C   0  0  0  0  0  0  0  0  0  0  0  0
    0.3163   -0.1271   -0.7266 C   0  0  0  0  0  0  0  0  0  0  0  0
   -2.0675   -1.2993    1.6898 C   0  0  0  0  0  0  0  0  0  0  0  0
   -2.9236   -1.2890    0.5893 C   0  0  0  0  0  0  0  0  0  0  0  0
   -2.1929   -0.8123   -0.6339 C   0  0  0  0  0  0  0  0  0  0  0  0
    2.8051    0.3609   -0.3938 C   0  0  0  0  0  0  0  0  0  0  0  0
    3.6825    0.2789    0.6899 C   0  0  0  0  0  0  0  0  0  0  0  0
    2.9402   -0.0933    1.9483 C   0  0  0  0  0  0  0  0  0  0  0  0
   -2.8481   -1.8104    3.1176 S   0  0  0  0  0  0  0  0  0  0  0  0
   -4.3604   -2.0484    2.2267 C   0  0  0  0  0  0  0  0  0  0  0  0
   -4.2052   -1.7151    0.8833 C   0  0  0  0  0  0  0  0  0  0  0  0
    3.5564    0.8351   -1.8514 S   0  0  0  0  0  0  0  0  0  0  0  0
    5.1026    0.9208   -1.0222 C   0  0  0  0  0  0  0  0  0  0  0  0
    4.9757    0.5913    0.3378 C   0  0  0  0  0  0  0  0  0  0  0  0
   -2.1686   -1.8942   -1.7305 C   0  0  0  0  0  0  0  0  0  0  0  0
   -2.8169    0.4788   -1.1959 C   0  0  0  0  0  0  0  0  0  0  0  0
   -2.8810    1.6045   -0.1707 C   0  0  0  0  0  0  0  0  0  0  0  0
   -1.5668   -3.2109   -1.2548 C   0  0  0  0  0  0  0  0  0  0  0  0
    3.0230    1.1210    2.9031 C   0  0  0  0  0  0  0  0  0  0  0  0
    3.5016   -1.3673    2.5975 C   0  0  0  0  0  0  0  0  0  0  0  0
    2.1879    1.0273    4.1730 C   0  0  0  0  0  0  0  0  0  0  0  0
    3.5475   -2.5439    1.6293 C   0  0  0  0  0  0  0  0  0  0  0  0
    6.3335    1.2582   -1.5896 C   0  0  0  0  0  0  0  0  0  0  0  0
   -5.4536   -2.4787    2.9928 C   0  0  0  0  0  0  0  0  0  0  0  0
   -6.7309   -2.8982    2.6966 C   0  0  0  0  0  0  0  0  0  0  0  0
    6.7115    1.6490   -2.8559 C   0  0  0  0  0  0  0  0  0  0  0  0
    5.7987    1.8143   -3.9608 C   0  0  0  0  0  0  0  0  0  0  0  0
    6.3451    2.2475   -5.1586 N   0  0  0  0  0  0  0  0  0  0  0  0
    7.6684    2.5408   -5.3391 C   0  0  0  0  0  0  0  0  0  0  0  0
    8.5241    2.3619   -4.2917 N   0  0  0  0  0  0  0  0  0  0  0  0
    8.1380    1.9119   -3.0352 C   0  0  0  0  0  0  0  0  0  0  0  0
    8.9619    1.7637   -2.1535 O   0  0  0  0  0  0  0  0  0  0  0  0
    9.9467    2.6232   -4.4810 C   0  0  0  0  0  0  0  0  0  0  0  0
   10.6545    1.4162   -5.0818 C   0  0  0  0  0  0  0  0  0  0  0  0
    8.2160    3.0983   -6.7944 S   0  0  0  0  0  0  0  0  0  0  0  0
    5.4142    2.4381   -6.2656 C   0  0  0  0  0  0  0  0  0  0  0  0
    4.8933    3.8685   -6.3074 C   0  0  0  0  0  0  0  0  0  0  0  0
    4.5962    1.5947   -3.8941 O   0  0  0  0  0  0  0  0  0  0  0  0
   -7.2818   -3.1203    1.3700 C   0  0  0  0  0  0  0  0  0  0  0  0
   -8.5634   -3.6634    1.3253 N   0  0  0  0  0  0  0  0  0  0  0  0
   -9.3600   -3.8751    2.4127 C   0  0  0  0  0  0  0  0  0  0  0  0
   -8.8410   -3.6382    3.6513 N   0  0  0  0  0  0  0  0  0  0  0  0
   -7.5528   -3.1768    3.8802 C   0  0  0  0  0  0  0  0  0  0  0  0
   -7.1580   -3.0082    5.0180 O   0  0  0  0  0  0  0  0  0  0  0  0
   -9.6786   -3.8449    4.8280 C   0  0  0  0  0  0  0  0  0  0  0  0
  -10.5267   -2.6148    5.1221 C   0  0  0  0  0  0  0  0  0  0  0  0
  -10.9134   -4.4101    2.2344 S   0  0  0  0  0  0  0  0  0  0  0  0
   -9.0900   -3.9533   -0.0045 C   0  0  0  0  0  0  0  0  0  0  0  0
   -9.8438   -2.7621   -0.5799 C   0  0  0  0  0  0  0  0  0  0  0  0
   -6.7028   -2.8963    0.3226 O   0  0  0  0  0  0  0  0  0  0  0  0
    0.4218   -1.0296    3.0985 H   0  0  0  0  0  0  0  0  0  0  0  0
    0.3161    0.1024   -1.7810 H   0  0  0  0  0  0  0  0  0  0  0  0
   -5.0133   -1.7947    0.1818 H   0  0  0  0  0  0  0  0  0  0  0  0
    5.8231    0.5908    1.0002 H   0  0  0  0  0  0  0  0  0  0  0  0
   -1.5931   -1.5171   -2.5779 H   0  0  0  0  0  0  0  0  0  0  0  0
   -3.1929   -2.0657   -2.0658 H   0  0  0  0  0  0  0  0  0  0  0  0
   -2.2265    0.8040   -2.0545 H   0  0  0  0  0  0  0  0  0  0  0  0
   -3.8248    0.2492   -1.5466 H   0  0  0  0  0  0  0  0  0  0  0  0
   -3.3175    2.4927   -0.6209 H   0  0  0  0  0  0  0  0  0  0  0  0
   -1.8857    1.8556    0.1898 H   0  0  0  0  0  0  0  0  0  0  0  0
   -3.4935    1.3176    0.6811 H   0  0  0  0  0  0  0  0  0  0  0  0
   -0.5430   -3.0685   -0.9152 H   0  0  0  0  0  0  0  0  0  0  0  0
   -2.1482   -3.6267   -0.4351 H   0  0  0  0  0  0  0  0  0  0  0  0
   -1.5616   -3.9317   -2.0686 H   0  0  0  0  0  0  0  0  0  0  0  0
    2.7131    2.0082    2.3448 H   0  0  0  0  0  0  0  0  0  0  0  0
    4.0731    1.2518    3.1738 H   0  0  0  0  0  0  0  0  0  0  0  0
    2.8805   -1.6356    3.4525 H   0  0  0  0  0  0  0  0  0  0  0  0
    4.5088   -1.1569    2.9628 H   0  0  0  0  0  0  0  0  0  0  0  0
    2.3774    1.9027    4.7902 H   0  0  0  0  0  0  0  0  0  0  0  0
    1.1270    1.0035    3.9407 H   0  0  0  0  0  0  0  0  0  0  0  0
    2.4444    0.1459    4.7541 H   0  0  0  0  0  0  0  0  0  0  0  0
    2.5515   -2.7733    1.2564 H   0  0  0  0  0  0  0  0  0  0  0  0
    4.1886   -2.3215    0.7794 H   0  0  0  0  0  0  0  0  0  0  0  0
    3.9379   -3.4256    2.1316 H   0  0  0  0  0  0  0  0  0  0  0  0
    7.1692    1.2098   -0.8953 H   0  0  0  0  0  0  0  0  0  0  0  0
   -5.2597   -2.4886    4.0637 H   0  0  0  0  0  0  0  0  0  0  0  0
   10.3559    2.8457   -3.4942 H   0  0  0  0  0  0  0  0  0  0  0  0
   10.0519    3.4926   -5.1321 H   0  0  0  0  0  0  0  0  0  0  0  0
   11.7133    1.6330   -5.1870 H   0  0  0  0  0  0  0  0  0  0  0  0
   10.2475    1.1856   -6.0635 H   0  0  0  0  0  0  0  0  0  0  0  0
   10.5363    0.5509   -4.4338 H   0  0  0  0  0  0  0  0  0  0  0  0
    5.9332    2.1926   -7.1932 H   0  0  0  0  0  0  0  0  0  0  0  0
    4.5890    1.7420   -6.1058 H   0  0  0  0  0  0  0  0  0  0  0  0
    5.7130    4.5665   -6.4600 H   0  0  0  0  0  0  0  0  0  0  0  0
    4.1896    3.9741   -7.1277 H   0  0  0  0  0  0  0  0  0  0  0  0
    4.3858    4.1108   -5.3765 H   0  0  0  0  0  0  0  0  0  0  0  0
   -9.0022   -4.0434    5.6609 H   0  0  0  0  0  0  0  0  0  0  0  0
  -10.3128   -4.7143    4.6488 H   0  0  0  0  0  0  0  0  0  0  0  0
  -11.1989   -2.4088    4.2925 H   0  0  0  0  0  0  0  0  0  0  0  0
  -11.1202   -2.7889    6.0147 H   0  0  0  0  0  0  0  0  0  0  0  0
   -9.8887   -1.7499    5.2883 H   0  0  0  0  0  0  0  0  0  0  0  0
   -8.2329   -4.1943   -0.6358 H   0  0  0  0  0  0  0  0  0  0  0  0
   -9.7472   -4.8204    0.0737 H   0  0  0  0  0  0  0  0  0  0  0  0
   -9.1860   -1.8988   -0.6468 H   0  0  0  0  0  0  0  0  0  0  0  0
  -10.2027   -3.0077   -1.5751 H   0  0  0  0  0  0  0  0  0  0  0  0
  -10.6971   -2.5145    0.0469 H   0  0  0  0  0  0  0  0  0  0  0  0
  1  2  1  0  0  0  0
  2  3  2  0  0  0  0
  3  4  1  0  0  0  0
  4  5  2  0  0  0  0
  5  6  1  0  0  0  0
  6  1  2  0  0  0  0
  4  7  1  0  0  0  0
  7  8  2  0  0  0  0
  8  9  1  0  0  0  0
  9  5  1  0  0  0  0
  1 10  1  0  0  0  0
 10 11  2  0  0  0  0
 11 12  1  0  0  0  0
 12  2  1  0  0  0  0
  7 13  1  0  0  0  0
 13 14  1  0  0  0  0
 14 15  2  0  0  0  0
 15  8  1  0  0  0  0
 10 16  1  0  0  0  0
 16 17  1  0  0  0  0
 17 18  2  0  0  0  0
 18 11  1  0  0  0  0
  9 19  1  0  0  0  0
  9 20  1  0  0  0  0
 20 21  1  0  0  0  0
 19 22  1  0  0  0  0
 12 23  1  0  0  0  0
 12 24  1  0  0  0  0
 23 25  1  0  0  0  0
 24 26  1  0  0  0  0
 17 27  1  0  0  0  0
 14 28  1  0  0  0  0
 28 29  2  0  0  0  0
 27 30  2  0  0  0  0
 30 31  1  0  0  0  0
 31 32  1  0  0  0  0
 32 33  1  0  0  0  0
 33 34  1  0  0  0  0
 34 35  1  0  0  0  0
 35 30  1  0  0  0  0
 35 36  2  0  0  0  0
 34 37  1  0  0  0  0
 37 38  1  0  0  0  0
 33 39  2  0  0  0  0
 32 40  1  0  0  0  0
 40 41  1  0  0  0  0
 31 42  2  0  0  0  0
 29 43  1  0  0  0  0
 43 44  1  0  0  0  0
 44 45  1  0  0  0  0
 45 46  1  0  0  0  0
 46 47  1  0  0  0  0
 47 29  1  0  0  0  0
 47 48  2  0  0  0  0
 46 49  1  0  0  0  0
 49 50  1  0  0  0  0
 45 51  2  0  0  0  0
 44 52  1  0  0  0  0
 52 53  1  0  0  0  0
 43 54  2  0  0  0  0
  3 55  1  0  0  0  0
  6 56  1  0  0  0  0
 15 57  1  0  0  0  0
 18 58  1  0  0  0  0
 19 59  1  0  0  0  0
 19 60  1  0  0  0  0
 20 61  1  0  0  0  0
 20 62  1  0  0  0  0
 21 63  1  0  0  0  0
 21 64  1  0  0  0  0
 21 65  1  0  0  0  0
 22 66  1  0  0  0  0
 22 67  1  0  0  0  0
 22 68  1  0  0  0  0
 23 69  1  0  0  0  0
 23 70  1  0  0  0  0
 24 71  1  0  0  0  0
 24 72  1  0  0  0  0
 25 73  1  0  0  0  0
 25 74  1  0  0  0  0
 25 75  1  0  0  0  0
 26 76  1  0  0  0  0
 26 77  1  0  0  0  0
 26 78  1  0  0  0  0
 27 79  1  0  0  0  0
 28 80  1  0  0  0  0
 37 81  1  0  0  0  0
 37 82  1  0  0  0  0
 38 83  1  0  0  0  0
 38 84  1  0  0  0  0
 38 85  1  0  0  0  0
 40 86  1  0  0  0  0
 40 87  1  0  0  0  0
 41 88  1  0  0  0  0
 41 89  1  0  0  0  0
 41 90  1  0  0  0  0
 49 91  1  0  0  0  0
 49 92  1  0  0  0  0
 50 93  1  0  0  0  0
 50 94  1  0  0  0  0
 50 95  1  0  0  0  0
 52 96  1  0  0  0  0
 52 97  1  0  0  0  0
 53 98  1  0  0  0  0
 53 99  1  0  0  0  0
 53100  1  0  0  0  0
M  END
