IDTIDSe-IC.sdf
  xtb     12202114423D
 energy: -334.448024403661 gnorm: 0.000139489833 xtb: 6.4.1 (unknown)
218239  0     0  0            999 V2000
   -0.3485    2.5071    5.8896 C   0  0  0  0  0  0  0  0  0  0  0  0
   -1.0993    3.4158    5.1101 C   0  0  0  0  0  0  0  0  0  0  0  0
   -0.6919    2.7107    7.2597 C   0  0  0  0  0  0  0  0  0  0  0  0
   -1.6232    3.7510    7.3607 C   0  0  0  0  0  0  0  0  0  0  0  0
   -1.9445    4.3124    5.9968 C   0  0  0  0  0  0  0  0  0  0  0  0
   -1.4631    5.7395    5.8020 C   0  0  0  0  0  0  0  0  0  0  0  0
   -3.4385    4.1834    5.7708 C   0  0  0  0  0  0  0  0  0  0  0  0
   -1.9747    6.5077    4.7634 C   0  0  0  0  0  0  0  0  0  0  0  0
   -1.5173    7.7939    4.5504 C   0  0  0  0  0  0  0  0  0  0  0  0
   -0.5371    8.3472    5.3641 C   0  0  0  0  0  0  0  0  0  0  0  0
   -0.0185    7.5702    6.3908 C   0  0  0  0  0  0  0  0  0  0  0  0
   -0.4708    6.2814    6.6065 C   0  0  0  0  0  0  0  0  0  0  0  0
   -4.2946    5.1381    6.3078 C   0  0  0  0  0  0  0  0  0  0  0  0
   -5.6623    5.0180    6.1595 C   0  0  0  0  0  0  0  0  0  0  0  0
   -6.2139    3.9398    5.4785 C   0  0  0  0  0  0  0  0  0  0  0  0
   -5.3557    2.9838    4.9540 C   0  0  0  0  0  0  0  0  0  0  0  0
   -3.9850    3.0973    5.1030 C   0  0  0  0  0  0  0  0  0  0  0  0
   -0.0148    9.7316    5.1087 C   0  0  0  0  0  0  0  0  0  0  0  0
    1.1804    9.6844    4.1546 C   0  0  0  0  0  0  0  0  0  0  0  0
   -7.6981    3.8399    5.2747 C   0  0  0  0  0  0  0  0  0  0  0  0
   -8.1134    4.5825    4.0029 C   0  0  0  0  0  0  0  0  0  0  0  0
   -0.2870    1.9411    8.8860 Se  0  0  0  0  0  2  0  0  0  0  0  0
   -1.5228    3.1832    9.6343 C   0  0  0  0  0  0  0  0  0  0  0  0
   -2.0713    4.0075    8.6355 C   0  0  0  0  0  0  0  0  0  0  0  0
   -1.9193    3.3248   10.9668 C   0  0  0  0  0  0  0  0  0  0  0  0
   -1.5561    2.6256   12.0970 C   0  0  0  0  0  0  0  0  0  0  0  0
   -0.6054    1.5229   12.1367 C   0  0  0  0  0  0  0  0  0  0  0  0
   -0.5560    1.0623   13.5347 C   0  0  0  0  0  0  0  0  0  0  0  0
   -1.4274    1.8506   14.3077 C   0  0  0  0  0  0  0  0  0  0  0  0
   -2.0623    2.8426   13.4358 C   0  0  0  0  0  0  0  0  0  0  0  0
    0.0342    1.0602   11.1997 O   0  0  0  0  0  0  0  0  0  0  0  0
   -2.9660    3.7887   13.8473 C   0  0  0  0  0  0  0  0  0  0  0  0
   -3.4113    3.9350   15.1777 C   0  0  0  0  0  0  0  0  0  0  0  0
   -3.5848    4.7535   13.0256 C   0  0  0  0  0  0  0  0  0  0  0  0
   -3.8188    4.1135   16.2363 N   0  0  0  0  0  0  0  0  0  0  0  0
   -4.1341    5.5718   12.4345 N   0  0  0  0  0  0  0  0  0  0  0  0
    0.1845    0.0376   14.0888 C   0  0  0  0  0  0  0  0  0  0  0  0
    0.0496   -0.2060   15.4491 C   0  0  0  0  0  0  0  0  0  0  0  0
   -0.8078    0.5651   16.2190 C   0  0  0  0  0  0  0  0  0  0  0  0
   -1.5538    1.5982   15.6635 C   0  0  0  0  0  0  0  0  0  0  0  0
    0.0863   -4.1095  -10.3886 C   0  0  0  0  0  0  0  0  0  0  0  0
   -0.8189   -3.8790  -11.4014 C   0  0  0  0  0  0  0  0  0  0  0  0
   -1.7632   -2.7713  -11.4515 C   0  0  0  0  0  0  0  0  0  0  0  0
   -2.5529   -2.9493  -12.6820 C   0  0  0  0  0  0  0  0  0  0  0  0
   -2.1037   -4.1018  -13.3516 C   0  0  0  0  0  0  0  0  0  0  0  0
   -1.0146   -4.7018  -12.5761 C   0  0  0  0  0  0  0  0  0  0  0  0
   -1.8870   -1.8642  -10.6371 O   0  0  0  0  0  0  0  0  0  0  0  0
   -0.3299   -5.8368  -12.9285 C   0  0  0  0  0  0  0  0  0  0  0  0
    0.7216   -6.4281  -12.1979 C   0  0  0  0  0  0  0  0  0  0  0  0
   -0.5853   -6.5879  -14.0948 C   0  0  0  0  0  0  0  0  0  0  0  0
    1.5828   -6.9764  -11.6703 N   0  0  0  0  0  0  0  0  0  0  0  0
   -0.7361   -7.2492  -15.0214 N   0  0  0  0  0  0  0  0  0  0  0  0
   -3.5810   -2.1732  -13.1779 C   0  0  0  0  0  0  0  0  0  0  0  0
   -4.1748   -2.5587  -14.3724 C   0  0  0  0  0  0  0  0  0  0  0  0
   -3.7386   -3.6931  -15.0396 C   0  0  0  0  0  0  0  0  0  0  0  0
   -2.7032   -4.4762  -14.5425 C   0  0  0  0  0  0  0  0  0  0  0  0
    0.5226    1.5846    5.3100 C   0  0  0  0  0  0  0  0  0  0  0  0
    0.6001    1.5659    3.9396 C   0  0  0  0  0  0  0  0  0  0  0  0
   -0.1664    2.4664    3.1587 C   0  0  0  0  0  0  0  0  0  0  0  0
   -1.0089    3.4113    3.7374 C   0  0  0  0  0  0  0  0  0  0  0  0
    1.4330    0.6540    3.0528 C   0  0  0  0  0  0  0  0  0  0  0  0
    1.0036    1.1198    1.6869 C   0  0  0  0  0  0  0  0  0  0  0  0
    0.0852    2.1486    1.7888 C   0  0  0  0  0  0  0  0  0  0  0  0
    1.0681   -0.8162    3.1460 C   0  0  0  0  0  0  0  0  0  0  0  0
    2.8981    0.8948    3.3584 C   0  0  0  0  0  0  0  0  0  0  0  0
    1.1838    0.7157    0.3648 C   0  0  0  0  0  0  0  0  0  0  0  0
    0.3858    1.4517   -0.5326 C   0  0  0  0  0  0  0  0  0  0  0  0
   -0.5652    2.6652    0.2670 S   0  0  0  0  0  0  0  0  0  0  0  0
    2.0980   -0.5306   -0.4253 S   0  0  0  0  0  0  0  0  0  0  0  0
    1.3668   -0.0855   -1.9325 C   0  0  0  0  0  0  0  0  0  0  0  0
    0.4849    0.9760   -1.8393 C   0  0  0  0  0  0  0  0  0  0  0  0
    1.3679   -0.6256   -3.2547 C   0  0  0  0  0  0  0  0  0  0  0  0
    0.4475    0.1381   -4.0141 C   0  0  0  0  0  0  0  0  0  0  0  0
   -0.1279    1.2730   -3.1823 C   0  0  0  0  0  0  0  0  0  0  0  0
    0.3638    2.6456   -3.6097 C   0  0  0  0  0  0  0  0  0  0  0  0
   -1.6407    1.1908   -3.1994 C   0  0  0  0  0  0  0  0  0  0  0  0
    2.0402   -1.7176   -3.7956 C   0  0  0  0  0  0  0  0  0  0  0  0
    1.7402   -2.0586   -5.0939 C   0  0  0  0  0  0  0  0  0  0  0  0
    0.7691   -1.3417   -5.8291 C   0  0  0  0  0  0  0  0  0  0  0  0
    0.1297   -0.2198   -5.3008 C   0  0  0  0  0  0  0  0  0  0  0  0
    2.2784   -3.2224   -5.9061 C   0  0  0  0  0  0  0  0  0  0  0  0
    1.4168   -3.1294   -7.1423 C   0  0  0  0  0  0  0  0  0  0  0  0
    0.5851   -2.0045   -7.0797 C   0  0  0  0  0  0  0  0  0  0  0  0
    2.0909   -4.4907   -5.0990 C   0  0  0  0  0  0  0  0  0  0  0  0
    3.7174   -3.0334   -6.3530 C   0  0  0  0  0  0  0  0  0  0  0  0
    1.2962   -3.8773   -8.2901 C   0  0  0  0  0  0  0  0  0  0  0  0
    0.3368   -3.4091   -9.2056 C   0  0  0  0  0  0  0  0  0  0  0  0
   -0.4931   -1.8186   -8.5644 Se  0  0  0  0  0  2  0  0  0  0  0  0
    1.9377   -1.7642    2.6197 C   0  0  0  0  0  0  0  0  0  0  0  0
    1.5942   -3.1016    2.6098 C   0  0  0  0  0  0  0  0  0  0  0  0
    0.3753   -3.5287    3.1214 C   0  0  0  0  0  0  0  0  0  0  0  0
   -0.4908   -2.5773    3.6421 C   0  0  0  0  0  0  0  0  0  0  0  0
   -0.1537   -1.2354    3.6514 C   0  0  0  0  0  0  0  0  0  0  0  0
    3.6492    1.8010    2.6245 C   0  0  0  0  0  0  0  0  0  0  0  0
    4.9753    2.0318    2.9425 C   0  0  0  0  0  0  0  0  0  0  0  0
    5.5795    1.3750    4.0053 C   0  0  0  0  0  0  0  0  0  0  0  0
    4.8200    0.4753    4.7426 C   0  0  0  0  0  0  0  0  0  0  0  0
    3.4966    0.2379    4.4266 C   0  0  0  0  0  0  0  0  0  0  0  0
    1.4051    2.8097   -4.5108 C   0  0  0  0  0  0  0  0  0  0  0  0
    1.8507    4.0775   -4.8403 C   0  0  0  0  0  0  0  0  0  0  0  0
    1.2796    5.2072   -4.2717 C   0  0  0  0  0  0  0  0  0  0  0  0
    0.2442    5.0357   -3.3611 C   0  0  0  0  0  0  0  0  0  0  0  0
   -0.2076    3.7732   -3.0316 C   0  0  0  0  0  0  0  0  0  0  0  0
   -2.3588    1.8231   -4.2068 C   0  0  0  0  0  0  0  0  0  0  0  0
   -3.7357    1.7222   -4.2555 C   0  0  0  0  0  0  0  0  0  0  0  0
   -4.4318    0.9901   -3.3024 C   0  0  0  0  0  0  0  0  0  0  0  0
   -3.7086    0.3500   -2.3056 C   0  0  0  0  0  0  0  0  0  0  0  0
   -2.3300    0.4431   -2.2555 C   0  0  0  0  0  0  0  0  0  0  0  0
    0.9110   -5.2173   -5.1688 C   0  0  0  0  0  0  0  0  0  0  0  0
    0.7251   -6.3316   -4.3708 C   0  0  0  0  0  0  0  0  0  0  0  0
    1.7065   -6.7440   -3.4803 C   0  0  0  0  0  0  0  0  0  0  0  0
    2.8830   -6.0089   -3.4088 C   0  0  0  0  0  0  0  0  0  0  0  0
    3.0741   -4.8958   -4.2042 C   0  0  0  0  0  0  0  0  0  0  0  0
    4.3456   -1.7983   -6.2922 C   0  0  0  0  0  0  0  0  0  0  0  0
    5.6378   -1.6463   -6.7623 C   0  0  0  0  0  0  0  0  0  0  0  0
    6.3288   -2.7159   -7.3137 C   0  0  0  0  0  0  0  0  0  0  0  0
    5.6921   -3.9492   -7.3789 C   0  0  0  0  0  0  0  0  0  0  0  0
    4.4030   -4.1069   -6.9095 C   0  0  0  0  0  0  0  0  0  0  0  0
   -0.0149   -4.9771    3.0537 C   0  0  0  0  0  0  0  0  0  0  0  0
   -0.6666   -5.2882    1.7047 C   0  0  0  0  0  0  0  0  0  0  0  0
    7.0321    1.5893    4.3190 C   0  0  0  0  0  0  0  0  0  0  0  0
    7.8951    0.5722    3.5694 C   0  0  0  0  0  0  0  0  0  0  0  0
    1.7335    6.5822   -4.6689 C   0  0  0  0  0  0  0  0  0  0  0  0
    0.9181    7.0886   -5.8604 C   0  0  0  0  0  0  0  0  0  0  0  0
   -5.9246    0.8498   -3.3824 C   0  0  0  0  0  0  0  0  0  0  0  0
   -6.3009   -0.3499   -4.2543 C   0  0  0  0  0  0  0  0  0  0  0  0
    1.4846   -7.9199   -2.5731 C   0  0  0  0  0  0  0  0  0  0  0  0
    0.9379   -7.4535   -1.2222 C   0  0  0  0  0  0  0  0  0  0  0  0
    7.7462   -2.5579   -7.7831 C   0  0  0  0  0  0  0  0  0  0  0  0
    8.7225   -2.8559   -6.6433 C   0  0  0  0  0  0  0  0  0  0  0  0
   -2.7476    6.1021    4.1266 H   0  0  0  0  0  0  0  0  0  0  0  0
   -1.9319    8.3794    3.7419 H   0  0  0  0  0  0  0  0  0  0  0  0
    0.7477    7.9788    7.0342 H   0  0  0  0  0  0  0  0  0  0  0  0
   -0.0488    5.6981    7.4121 H   0  0  0  0  0  0  0  0  0  0  0  0
   -3.8846    5.9865    6.8365 H   0  0  0  0  0  0  0  0  0  0  0  0
   -6.3123    5.7706    6.5824 H   0  0  0  0  0  0  0  0  0  0  0  0
   -5.7634    2.1340    4.4247 H   0  0  0  0  0  0  0  0  0  0  0  0
   -3.3392    2.3344    4.6930 H   0  0  0  0  0  0  0  0  0  0  0  0
    0.2947   10.1898    6.0501 H   0  0  0  0  0  0  0  0  0  0  0  0
   -0.8012   10.3493    4.6702 H   0  0  0  0  0  0  0  0  0  0  0  0
    1.5595   10.6868    3.9691 H   0  0  0  0  0  0  0  0  0  0  0  0
    1.9805    9.0830    4.5805 H   0  0  0  0  0  0  0  0  0  0  0  0
    0.8891    9.2409    3.2051 H   0  0  0  0  0  0  0  0  0  0  0  0
   -8.2188    4.2738    6.1305 H   0  0  0  0  0  0  0  0  0  0  0  0
   -7.9914    2.7914    5.1914 H   0  0  0  0  0  0  0  0  0  0  0  0
   -9.1888    4.5143    3.8559 H   0  0  0  0  0  0  0  0  0  0  0  0
   -7.8380    5.6326    4.0715 H   0  0  0  0  0  0  0  0  0  0  0  0
   -7.6158    4.1546    3.1354 H   0  0  0  0  0  0  0  0  0  0  0  0
   -2.7933    4.7694    8.8786 H   0  0  0  0  0  0  0  0  0  0  0  0
   -2.6466    4.1168   11.1087 H   0  0  0  0  0  0  0  0  0  0  0  0
    0.8448   -0.5499   13.4696 H   0  0  0  0  0  0  0  0  0  0  0  0
    0.6149   -1.0011   15.9116 H   0  0  0  0  0  0  0  0  0  0  0  0
   -0.9019    0.3620   17.2753 H   0  0  0  0  0  0  0  0  0  0  0  0
   -2.2118    2.1789   16.2887 H   0  0  0  0  0  0  0  0  0  0  0  0
    0.7119   -4.9885  -10.4990 H   0  0  0  0  0  0  0  0  0  0  0  0
   -3.9040   -1.2946  -12.6410 H   0  0  0  0  0  0  0  0  0  0  0  0
   -4.9819   -1.9724  -14.7853 H   0  0  0  0  0  0  0  0  0  0  0  0
   -4.2113   -3.9793  -15.9672 H   0  0  0  0  0  0  0  0  0  0  0  0
   -2.3876   -5.3524  -15.0845 H   0  0  0  0  0  0  0  0  0  0  0  0
    1.0875    0.9050    5.9310 H   0  0  0  0  0  0  0  0  0  0  0  0
   -1.5788    4.0914    3.1232 H   0  0  0  0  0  0  0  0  0  0  0  0
    2.7484   -2.2792   -3.2059 H   0  0  0  0  0  0  0  0  0  0  0  0
   -0.5998    0.3210   -5.8861 H   0  0  0  0  0  0  0  0  0  0  0  0
    1.8657   -4.7695   -8.4915 H   0  0  0  0  0  0  0  0  0  0  0  0
    2.8907   -1.4511    2.2184 H   0  0  0  0  0  0  0  0  0  0  0  0
    2.2826   -3.8246    2.1963 H   0  0  0  0  0  0  0  0  0  0  0  0
   -1.4449   -2.8875    4.0442 H   0  0  0  0  0  0  0  0  0  0  0  0
   -0.8479   -0.5125    4.0550 H   0  0  0  0  0  0  0  0  0  0  0  0
    3.1997    2.3302    1.7965 H   0  0  0  0  0  0  0  0  0  0  0  0
    5.5472    2.7368    2.3560 H   0  0  0  0  0  0  0  0  0  0  0  0
    5.2702   -0.0451    5.5760 H   0  0  0  0  0  0  0  0  0  0  0  0
    2.9266   -0.4745    5.0053 H   0  0  0  0  0  0  0  0  0  0  0  0
    1.8710    1.9465   -4.9629 H   0  0  0  0  0  0  0  0  0  0  0  0
    2.6590    4.1879   -5.5493 H   0  0  0  0  0  0  0  0  0  0  0  0
   -0.2120    5.9011   -2.9018 H   0  0  0  0  0  0  0  0  0  0  0  0
   -1.0162    3.6584   -2.3240 H   0  0  0  0  0  0  0  0  0  0  0  0
   -1.8372    2.4077   -4.9510 H   0  0  0  0  0  0  0  0  0  0  0  0
   -4.2787    2.2234   -5.0441 H   0  0  0  0  0  0  0  0  0  0  0  0
   -4.2295   -0.2292   -1.5563 H   0  0  0  0  0  0  0  0  0  0  0  0
   -1.7902   -0.0713   -1.4734 H   0  0  0  0  0  0  0  0  0  0  0  0
    0.1297   -4.9123   -5.8503 H   0  0  0  0  0  0  0  0  0  0  0  0
   -0.1987   -6.8881   -4.4421 H   0  0  0  0  0  0  0  0  0  0  0  0
    3.6603   -6.3124   -2.7217 H   0  0  0  0  0  0  0  0  0  0  0  0
    3.9994   -4.3415   -4.1373 H   0  0  0  0  0  0  0  0  0  0  0  0
    3.8265   -0.9479   -5.8743 H   0  0  0  0  0  0  0  0  0  0  0  0
    6.1134   -0.6773   -6.7038 H   0  0  0  0  0  0  0  0  0  0  0  0
    6.2103   -4.7949   -7.8079 H   0  0  0  0  0  0  0  0  0  0  0  0
    3.9255   -5.0744   -6.9657 H   0  0  0  0  0  0  0  0  0  0  0  0
    0.8700   -5.6047    3.1776 H   0  0  0  0  0  0  0  0  0  0  0  0
   -0.7162   -5.2121    3.8567 H   0  0  0  0  0  0  0  0  0  0  0  0
    0.0174   -5.0558    0.8916 H   0  0  0  0  0  0  0  0  0  0  0  0
   -0.9338   -6.3405    1.6434 H   0  0  0  0  0  0  0  0  0  0  0  0
   -1.5669   -4.6919    1.5736 H   0  0  0  0  0  0  0  0  0  0  0  0
    7.1989    1.4806    5.3926 H   0  0  0  0  0  0  0  0  0  0  0  0
    7.3296    2.5985    4.0271 H   0  0  0  0  0  0  0  0  0  0  0  0
    7.6229   -0.4405    3.8586 H   0  0  0  0  0  0  0  0  0  0  0  0
    7.7498    0.6715    2.4960 H   0  0  0  0  0  0  0  0  0  0  0  0
    8.9480    0.7267    3.7937 H   0  0  0  0  0  0  0  0  0  0  0  0
    2.7909    6.5599   -4.9402 H   0  0  0  0  0  0  0  0  0  0  0  0
    1.6098    7.2698   -3.8298 H   0  0  0  0  0  0  0  0  0  0  0  0
   -0.1384    7.1306   -5.6047 H   0  0  0  0  0  0  0  0  0  0  0  0
    1.2454    8.0842   -6.1509 H   0  0  0  0  0  0  0  0  0  0  0  0
    1.0374    6.4213   -6.7110 H   0  0  0  0  0  0  0  0  0  0  0  0
   -6.3593    1.7555   -3.8102 H   0  0  0  0  0  0  0  0  0  0  0  0
   -6.3384    0.7117   -2.3814 H   0  0  0  0  0  0  0  0  0  0  0  0
   -5.9049   -0.2258   -5.2597 H   0  0  0  0  0  0  0  0  0  0  0  0
   -5.8879   -1.2652   -3.8361 H   0  0  0  0  0  0  0  0  0  0  0  0
   -7.3819   -0.4521   -4.3161 H   0  0  0  0  0  0  0  0  0  0  0  0
    2.4268   -8.4492   -2.4159 H   0  0  0  0  0  0  0  0  0  0  0  0
    0.7754   -8.6129   -3.0296 H   0  0  0  0  0  0  0  0  0  0  0  0
    1.6384   -6.7705   -0.7467 H   0  0  0  0  0  0  0  0  0  0  0  0
    0.7779   -8.3025   -0.5616 H   0  0  0  0  0  0  0  0  0  0  0  0
   -0.0083   -6.9336   -1.3564 H   0  0  0  0  0  0  0  0  0  0  0  0
    7.9402   -3.2427   -8.6110 H   0  0  0  0  0  0  0  0  0  0  0  0
    7.9077   -1.5379   -8.1379 H   0  0  0  0  0  0  0  0  0  0  0  0
    8.5849   -3.8735   -6.2843 H   0  0  0  0  0  0  0  0  0  0  0  0
    8.5530   -2.1745   -5.8124 H   0  0  0  0  0  0  0  0  0  0  0  0
    9.7497   -2.7427   -6.9819 H   0  0  0  0  0  0  0  0  0  0  0  0
  1  2  2  0  0  0  0
  1  3  1  0  0  0  0
  3  4  2  0  0  0  0
  4  5  1  0  0  0  0
  5  2  1  0  0  0  0
  5  6  1  0  0  0  0
  5  7  1  0  0  0  0
  6  8  2  0  0  0  0
  8  9  1  0  0  0  0
  9 10  2  0  0  0  0
 10 11  1  0  0  0  0
 11 12  2  0  0  0  0
 12  6  1  0  0  0  0
  7 13  2  0  0  0  0
 13 14  1  0  0  0  0
 14 15  2  0  0  0  0
 15 16  1  0  0  0  0
 16 17  2  0  0  0  0
 17  7  1  0  0  0  0
 10 18  1  0  0  0  0
 18 19  1  0  0  0  0
 15 20  1  0  0  0  0
 20 21  1  0  0  0  0
  3 22  1  0  0  0  0
 22 23  1  0  0  0  0
 23 24  2  0  0  0  0
 24  4  1  0  0  0  0
 23 25  1  0  0  0  0
 25 26  2  0  0  0  0
 26 27  1  0  0  0  0
 27 28  1  0  0  0  0
 28 29  2  0  0  0  0
 29 30  1  0  0  0  0
 30 26  1  0  0  0  0
 27 31  2  0  0  0  0
 30 32  2  0  0  0  0
 32 33  1  0  0  0  0
 32 34  1  0  0  0  0
 33 35  3  0  0  0  0
 34 36  3  0  0  0  0
 28 37  1  0  0  0  0
 37 38  2  0  0  0  0
 39 40  2  0  0  0  0
 40 29  1  0  0  0  0
 39 38  1  0  0  0  0
 41 42  2  0  0  0  0
 42 43  1  0  0  0  0
 43 44  1  0  0  0  0
 44 45  2  0  0  0  0
 45 46  1  0  0  0  0
 46 42  1  0  0  0  0
 43 47  2  0  0  0  0
 46 48  2  0  0  0  0
 48 49  1  0  0  0  0
 48 50  1  0  0  0  0
 49 51  3  0  0  0  0
 50 52  3  0  0  0  0
 44 53  1  0  0  0  0
 53 54  2  0  0  0  0
 54 55  1  0  0  0  0
 55 56  2  0  0  0  0
 56 45  1  0  0  0  0
  1 57  1  0  0  0  0
 57 58  2  0  0  0  0
 58 59  1  0  0  0  0
 59 60  2  0  0  0  0
 60  2  1  0  0  0  0
 58 61  1  0  0  0  0
 61 62  1  0  0  0  0
 62 63  2  0  0  0  0
 63 59  1  0  0  0  0
 61 64  1  0  0  0  0
 61 65  1  0  0  0  0
 62 66  1  0  0  0  0
 66 67  2  0  0  0  0
 67 68  1  0  0  0  0
 68 63  1  0  0  0  0
 66 69  1  0  0  0  0
 69 70  1  0  0  0  0
 70 71  2  0  0  0  0
 71 67  1  0  0  0  0
 70 72  1  0  0  0  0
 72 73  2  0  0  0  0
 73 74  1  0  0  0  0
 74 71  1  0  0  0  0
 74 75  1  0  0  0  0
 74 76  1  0  0  0  0
 72 77  1  0  0  0  0
 77 78  2  0  0  0  0
 78 79  1  0  0  0  0
 79 80  2  0  0  0  0
 80 73  1  0  0  0  0
 78 81  1  0  0  0  0
 81 82  1  0  0  0  0
 82 83  2  0  0  0  0
 83 79  1  0  0  0  0
 81 84  1  0  0  0  0
 81 85  1  0  0  0  0
 82 86  1  0  0  0  0
 86 87  2  0  0  0  0
 87 88  1  0  0  0  0
 88 83  1  0  0  0  0
 87 41  1  0  0  0  0
 64 89  2  0  0  0  0
 89 90  1  0  0  0  0
 90 91  2  0  0  0  0
 91 92  1  0  0  0  0
 92 93  2  0  0  0  0
 93 64  1  0  0  0  0
 65 94  2  0  0  0  0
 94 95  1  0  0  0  0
 95 96  2  0  0  0  0
 96 97  1  0  0  0  0
 97 98  2  0  0  0  0
 98 65  1  0  0  0  0
 75 99  2  0  0  0  0
 99100  1  0  0  0  0
100101  2  0  0  0  0
101102  1  0  0  0  0
102103  2  0  0  0  0
103 75  1  0  0  0  0
 76104  2  0  0  0  0
104105  1  0  0  0  0
105106  2  0  0  0  0
106107  1  0  0  0  0
107108  2  0  0  0  0
108 76  1  0  0  0  0
 84109  2  0  0  0  0
109110  1  0  0  0  0
110111  2  0  0  0  0
111112  1  0  0  0  0
112113  2  0  0  0  0
113 84  1  0  0  0  0
 85114  2  0  0  0  0
114115  1  0  0  0  0
115116  2  0  0  0  0
116117  1  0  0  0  0
117118  2  0  0  0  0
118 85  1  0  0  0  0
 91119  1  0  0  0  0
119120  1  0  0  0  0
 96121  1  0  0  0  0
121122  1  0  0  0  0
101123  1  0  0  0  0
123124  1  0  0  0  0
106125  1  0  0  0  0
125126  1  0  0  0  0
111127  1  0  0  0  0
127128  1  0  0  0  0
116129  1  0  0  0  0
129130  1  0  0  0  0
  8131  1  0  0  0  0
  9132  1  0  0  0  0
 11133  1  0  0  0  0
 12134  1  0  0  0  0
 13135  1  0  0  0  0
 14136  1  0  0  0  0
 16137  1  0  0  0  0
 17138  1  0  0  0  0
 18139  1  0  0  0  0
 18140  1  0  0  0  0
 19141  1  0  0  0  0
 19142  1  0  0  0  0
 19143  1  0  0  0  0
 20144  1  0  0  0  0
 20145  1  0  0  0  0
 21146  1  0  0  0  0
 21147  1  0  0  0  0
 21148  1  0  0  0  0
 24149  1  0  0  0  0
 25150  1  0  0  0  0
 37151  1  0  0  0  0
 38152  1  0  0  0  0
 39153  1  0  0  0  0
 40154  1  0  0  0  0
 41155  1  0  0  0  0
 53156  1  0  0  0  0
 54157  1  0  0  0  0
 55158  1  0  0  0  0
 56159  1  0  0  0  0
 57160  1  0  0  0  0
 60161  1  0  0  0  0
 77162  1  0  0  0  0
 80163  1  0  0  0  0
 86164  1  0  0  0  0
 89165  1  0  0  0  0
 90166  1  0  0  0  0
 92167  1  0  0  0  0
 93168  1  0  0  0  0
 94169  1  0  0  0  0
 95170  1  0  0  0  0
 97171  1  0  0  0  0
 98172  1  0  0  0  0
 99173  1  0  0  0  0
100174  1  0  0  0  0
102175  1  0  0  0  0
103176  1  0  0  0  0
104177  1  0  0  0  0
105178  1  0  0  0  0
107179  1  0  0  0  0
108180  1  0  0  0  0
109181  1  0  0  0  0
110182  1  0  0  0  0
112183  1  0  0  0  0
113184  1  0  0  0  0
114185  1  0  0  0  0
115186  1  0  0  0  0
117187  1  0  0  0  0
118188  1  0  0  0  0
119189  1  0  0  0  0
119190  1  0  0  0  0
120191  1  0  0  0  0
120192  1  0  0  0  0
120193  1  0  0  0  0
121194  1  0  0  0  0
121195  1  0  0  0  0
122196  1  0  0  0  0
122197  1  0  0  0  0
122198  1  0  0  0  0
123199  1  0  0  0  0
123200  1  0  0  0  0
124201  1  0  0  0  0
124202  1  0  0  0  0
124203  1  0  0  0  0
125204  1  0  0  0  0
125205  1  0  0  0  0
126206  1  0  0  0  0
126207  1  0  0  0  0
126208  1  0  0  0  0
127209  1  0  0  0  0
127210  1  0  0  0  0
128211  1  0  0  0  0
128212  1  0  0  0  0
128213  1  0  0  0  0
129214  1  0  0  0  0
129215  1  0  0  0  0
130216  1  0  0  0  0
130217  1  0  0  0  0
130218  1  0  0  0  0
M  END
