IDTIDT-IC.sdf
  xtb     12222117113D
 energy: -334.584444177140 gnorm: 0.000427566290 xtb: 6.4.1 (unknown)
218239  0     0  0            999 V2000
   -0.9437   -3.5148    5.3194 C   0  0  0  0  0  0  0  0  0  0  0  0
   -0.2879   -4.3855    4.4171 C   0  0  0  0  0  0  0  0  0  0  0  0
   -1.2581   -4.2681    6.4904 C   0  0  0  0  0  0  0  0  0  0  0  0
   -0.7942   -5.5796    6.3582 C   0  0  0  0  0  0  0  0  0  0  0  0
   -0.1370   -5.7752    5.0148 C   0  0  0  0  0  0  0  0  0  0  0  0
    1.3441   -6.0949    5.1012 C   0  0  0  0  0  0  0  0  0  0  0  0
   -0.9035   -6.8567    4.2767 C   0  0  0  0  0  0  0  0  0  0  0  0
    2.0846   -5.7710    6.2292 C   0  0  0  0  0  0  0  0  0  0  0  0
    3.4403   -6.0394    6.2797 C   0  0  0  0  0  0  0  0  0  0  0  0
    4.0923   -6.6291    5.2056 C   0  0  0  0  0  0  0  0  0  0  0  0
    3.3505   -6.9341    4.0716 C   0  0  0  0  0  0  0  0  0  0  0  0
    1.9953   -6.6706    4.0172 C   0  0  0  0  0  0  0  0  0  0  0  0
   -1.8873   -6.5568    3.3465 C   0  0  0  0  0  0  0  0  0  0  0  0
   -2.6006   -7.5709    2.7319 C   0  0  0  0  0  0  0  0  0  0  0  0
   -2.3611   -8.9026    3.0393 C   0  0  0  0  0  0  0  0  0  0  0  0
   -1.3818   -9.1966    3.9802 C   0  0  0  0  0  0  0  0  0  0  0  0
   -0.6645   -8.1890    4.5940 C   0  0  0  0  0  0  0  0  0  0  0  0
    5.5714   -6.8843    5.2479 C   0  0  0  0  0  0  0  0  0  0  0  0
    6.3381   -5.6734    4.7120 C   0  0  0  0  0  0  0  0  0  0  0  0
   -3.1066  -10.0029    2.3405 C   0  0  0  0  0  0  0  0  0  0  0  0
   -2.3424  -10.4602    1.0963 C   0  0  0  0  0  0  0  0  0  0  0  0
   -2.0482   -3.9722    7.9755 S   0  0  0  0  0  0  0  0  0  0  0  0
   -1.7683   -5.6426    8.4545 C   0  0  0  0  0  0  0  0  0  0  0  0
   -1.0828   -6.3549    7.4575 C   0  0  0  0  0  0  0  0  0  0  0  0
   -2.1533   -6.2458    9.6566 C   0  0  0  0  0  0  0  0  0  0  0  0
   -2.8266   -5.7380   10.7414 C   0  0  0  0  0  0  0  0  0  0  0  0
   -3.3227   -4.3647   10.8796 C   0  0  0  0  0  0  0  0  0  0  0  0
   -3.9839   -4.3001   12.1967 C   0  0  0  0  0  0  0  0  0  0  0  0
   -3.8957   -5.5550   12.8234 C   0  0  0  0  0  0  0  0  0  0  0  0
   -3.1749   -6.4733   11.9396 C   0  0  0  0  0  0  0  0  0  0  0  0
   -3.2192   -3.4503   10.0806 O   0  0  0  0  0  0  0  0  0  0  0  0
   -2.8946   -7.7848   12.2285 C   0  0  0  0  0  0  0  0  0  0  0  0
   -3.2758   -8.4330   13.4219 C   0  0  0  0  0  0  0  0  0  0  0  0
   -2.1910   -8.6845   11.4016 C   0  0  0  0  0  0  0  0  0  0  0  0
   -3.5543   -9.0266   14.3647 N   0  0  0  0  0  0  0  0  0  0  0  0
   -1.6275   -9.4845   10.7988 N   0  0  0  0  0  0  0  0  0  0  0  0
   -4.6112   -3.2276   12.7983 C   0  0  0  0  0  0  0  0  0  0  0  0
   -5.1639   -3.4144   14.0578 C   0  0  0  0  0  0  0  0  0  0  0  0
   -5.0821   -4.6491   14.6841 C   0  0  0  0  0  0  0  0  0  0  0  0
   -4.4515   -5.7301   14.0806 C   0  0  0  0  0  0  0  0  0  0  0  0
    2.3821    5.6312   -9.5046 C   0  0  0  0  0  0  0  0  0  0  0  0
    2.2748    6.8012  -10.2149 C   0  0  0  0  0  0  0  0  0  0  0  0
    1.7026    8.0965   -9.7883 C   0  0  0  0  0  0  0  0  0  0  0  0
    1.7164    8.9554  -10.9892 C   0  0  0  0  0  0  0  0  0  0  0  0
    2.2845    8.2581  -12.0668 C   0  0  0  0  0  0  0  0  0  0  0  0
    2.6813    6.9284  -11.6045 C   0  0  0  0  0  0  0  0  0  0  0  0
    1.2950    8.4337   -8.6940 O   0  0  0  0  0  0  0  0  0  0  0  0
    3.3535    6.0093  -12.3693 C   0  0  0  0  0  0  0  0  0  0  0  0
    3.7130    6.2139  -13.7184 C   0  0  0  0  0  0  0  0  0  0  0  0
    3.8185    4.7431  -11.9550 C   0  0  0  0  0  0  0  0  0  0  0  0
    4.0357    6.3040  -14.8168 N   0  0  0  0  0  0  0  0  0  0  0  0
    4.2507    3.7046  -11.7188 N   0  0  0  0  0  0  0  0  0  0  0  0
    1.2581   10.2515  -11.1190 C   0  0  0  0  0  0  0  0  0  0  0  0
    1.3653   10.8631  -12.3597 C   0  0  0  0  0  0  0  0  0  0  0  0
    1.9175   10.1791  -13.4329 C   0  0  0  0  0  0  0  0  0  0  0  0
    2.3826    8.8768  -13.3036 C   0  0  0  0  0  0  0  0  0  0  0  0
   -1.1776   -2.1759    5.0097 C   0  0  0  0  0  0  0  0  0  0  0  0
   -0.7408   -1.7273    3.7870 C   0  0  0  0  0  0  0  0  0  0  0  0
   -0.0983   -2.6023    2.8779 C   0  0  0  0  0  0  0  0  0  0  0  0
    0.1421   -3.9378    3.1893 C   0  0  0  0  0  0  0  0  0  0  0  0
   -0.8649   -0.3307    3.2001 C   0  0  0  0  0  0  0  0  0  0  0  0
   -0.2415   -0.5372    1.8458 C   0  0  0  0  0  0  0  0  0  0  0  0
    0.1945   -1.8418    1.7035 C   0  0  0  0  0  0  0  0  0  0  0  0
   -2.3333    0.0443    3.1396 C   0  0  0  0  0  0  0  0  0  0  0  0
   -0.0436    0.7163    3.9307 C   0  0  0  0  0  0  0  0  0  0  0  0
    0.0292    0.2262    0.7110 C   0  0  0  0  0  0  0  0  0  0  0  0
    0.6528   -0.5263   -0.3029 C   0  0  0  0  0  0  0  0  0  0  0  0
    0.9293   -2.1745    0.1689 S   0  0  0  0  0  0  0  0  0  0  0  0
   -0.2362    1.8776    0.2464 S   0  0  0  0  0  0  0  0  0  0  0  0
    0.4839    1.5416   -1.2941 C   0  0  0  0  0  0  0  0  0  0  0  0
    0.9058    0.2332   -1.4449 C   0  0  0  0  0  0  0  0  0  0  0  0
    0.7455    2.2963   -2.4788 C   0  0  0  0  0  0  0  0  0  0  0  0
    1.3191    1.4051   -3.4180 C   0  0  0  0  0  0  0  0  0  0  0  0
    1.4542    0.0103   -2.8292 C   0  0  0  0  0  0  0  0  0  0  0  0
    2.9147   -0.3943   -2.8587 C   0  0  0  0  0  0  0  0  0  0  0  0
    0.5709   -1.0284   -3.4984 C   0  0  0  0  0  0  0  0  0  0  0  0
    0.5291    3.6391   -2.7753 C   0  0  0  0  0  0  0  0  0  0  0  0
    0.8805    4.0714   -4.0332 C   0  0  0  0  0  0  0  0  0  0  0  0
    1.4552    3.1805   -4.9707 C   0  0  0  0  0  0  0  0  0  0  0  0
    1.6869    1.8395   -4.6681 C   0  0  0  0  0  0  0  0  0  0  0  0
    0.7611    5.4713   -4.6126 C   0  0  0  0  0  0  0  0  0  0  0  0
    1.3178    5.2586   -5.9973 C   0  0  0  0  0  0  0  0  0  0  0  0
    1.6961    3.9261   -6.1627 C   0  0  0  0  0  0  0  0  0  0  0  0
   -0.6643    5.9737   -4.7515 C   0  0  0  0  0  0  0  0  0  0  0  0
    1.5996    6.4054   -3.7577 C   0  0  0  0  0  0  0  0  0  0  0  0
    1.5039    6.0308   -7.1281 C   0  0  0  0  0  0  0  0  0  0  0  0
    2.0356    5.2975   -8.1865 C   0  0  0  0  0  0  0  0  0  0  0  0
    2.3021    3.6080   -7.7248 S   0  0  0  0  0  0  0  0  0  0  0  0
   -2.9489    0.6183    4.2448 C   0  0  0  0  0  0  0  0  0  0  0  0
   -4.2954    0.9263    4.2165 C   0  0  0  0  0  0  0  0  0  0  0  0
   -5.0639    0.6662    3.0892 C   0  0  0  0  0  0  0  0  0  0  0  0
   -4.4456    0.0856    1.9905 C   0  0  0  0  0  0  0  0  0  0  0  0
   -3.0993   -0.2284    2.0152 C   0  0  0  0  0  0  0  0  0  0  0  0
   -0.2500    2.0599    3.6414 C   0  0  0  0  0  0  0  0  0  0  0  0
    0.5183    3.0341    4.2482 C   0  0  0  0  0  0  0  0  0  0  0  0
    1.5142    2.6942    5.1552 C   0  0  0  0  0  0  0  0  0  0  0  0
    1.7210    1.3504    5.4338 C   0  0  0  0  0  0  0  0  0  0  0  0
    0.9585    0.3697    4.8251 C   0  0  0  0  0  0  0  0  0  0  0  0
    3.7530   -0.1430   -1.7824 C   0  0  0  0  0  0  0  0  0  0  0  0
    5.0901   -0.4919   -1.8394 C   0  0  0  0  0  0  0  0  0  0  0  0
    5.6241   -1.0917   -2.9712 C   0  0  0  0  0  0  0  0  0  0  0  0
    4.7837   -1.3266   -4.0521 C   0  0  0  0  0  0  0  0  0  0  0  0
    3.4468   -0.9832   -3.9992 C   0  0  0  0  0  0  0  0  0  0  0  0
   -0.4832   -0.6734   -4.3269 C   0  0  0  0  0  0  0  0  0  0  0  0
   -1.2969   -1.6468   -4.8788 C   0  0  0  0  0  0  0  0  0  0  0  0
   -1.0893   -2.9918   -4.6067 C   0  0  0  0  0  0  0  0  0  0  0  0
   -0.0411   -3.3400   -3.7639 C   0  0  0  0  0  0  0  0  0  0  0  0
    0.7775   -2.3733   -3.2143 C   0  0  0  0  0  0  0  0  0  0  0  0
   -0.8752    7.3045   -5.0947 C   0  0  0  0  0  0  0  0  0  0  0  0
   -2.1562    7.7882   -5.2712 C   0  0  0  0  0  0  0  0  0  0  0  0
   -3.2598    6.9581   -5.1163 C   0  0  0  0  0  0  0  0  0  0  0  0
   -3.0427    5.6289   -4.7833 C   0  0  0  0  0  0  0  0  0  0  0  0
   -1.7608    5.1372   -4.6091 C   0  0  0  0  0  0  0  0  0  0  0  0
    2.9404    6.6265   -4.0382 C   0  0  0  0  0  0  0  0  0  0  0  0
    3.7017    7.4448   -3.2242 C   0  0  0  0  0  0  0  0  0  0  0  0
    3.1496    8.0524   -2.1049 C   0  0  0  0  0  0  0  0  0  0  0  0
    1.8095    7.8204   -1.8233 C   0  0  0  0  0  0  0  0  0  0  0  0
    1.0436    7.0057   -2.6350 C   0  0  0  0  0  0  0  0  0  0  0  0
   -6.5148    1.0496    3.0407 C   0  0  0  0  0  0  0  0  0  0  0  0
   -6.6741    2.4659    2.4841 C   0  0  0  0  0  0  0  0  0  0  0  0
    2.3130    3.7570    5.8530 C   0  0  0  0  0  0  0  0  0  0  0  0
    1.6203    4.1793    7.1502 C   0  0  0  0  0  0  0  0  0  0  0  0
    7.0844   -1.4323   -3.0480 C   0  0  0  0  0  0  0  0  0  0  0  0
    7.8733   -0.2679   -3.6502 C   0  0  0  0  0  0  0  0  0  0  0  0
   -1.9423   -4.0492   -5.2460 C   0  0  0  0  0  0  0  0  0  0  0  0
   -1.3204   -4.5083   -6.5664 C   0  0  0  0  0  0  0  0  0  0  0  0
   -4.6529    7.5005   -5.2574 C   0  0  0  0  0  0  0  0  0  0  0  0
   -5.1509    8.0479   -3.9181 C   0  0  0  0  0  0  0  0  0  0  0  0
    3.9672    8.9755   -1.2480 C   0  0  0  0  0  0  0  0  0  0  0  0
    3.8645   10.4134   -1.7608 C   0  0  0  0  0  0  0  0  0  0  0  0
    1.6008   -5.3113    7.0787 H   0  0  0  0  0  0  0  0  0  0  0  0
    3.9986   -5.7900    7.1709 H   0  0  0  0  0  0  0  0  0  0  0  0
    3.8391   -7.3894    3.2218 H   0  0  0  0  0  0  0  0  0  0  0  0
    1.4345   -6.9290    3.1306 H   0  0  0  0  0  0  0  0  0  0  0  0
   -2.1008   -5.5275    3.0973 H   0  0  0  0  0  0  0  0  0  0  0  0
   -3.3606   -7.3193    2.0056 H   0  0  0  0  0  0  0  0  0  0  0  0
   -1.1826  -10.2267    4.2387 H   0  0  0  0  0  0  0  0  0  0  0  0
    0.0956   -8.4363    5.3209 H   0  0  0  0  0  0  0  0  0  0  0  0
    5.8133   -7.7599    4.6421 H   0  0  0  0  0  0  0  0  0  0  0  0
    5.8840   -7.0824    6.2750 H   0  0  0  0  0  0  0  0  0  0  0  0
    7.4092   -5.8598    4.7359 H   0  0  0  0  0  0  0  0  0  0  0  0
    6.0440   -5.4634    3.6860 H   0  0  0  0  0  0  0  0  0  0  0  0
    6.1244   -4.7936    5.3150 H   0  0  0  0  0  0  0  0  0  0  0  0
   -4.0970   -9.6505    2.0457 H   0  0  0  0  0  0  0  0  0  0  0  0
   -3.2324  -10.8509    3.0166 H   0  0  0  0  0  0  0  0  0  0  0  0
   -1.3548  -10.8236    1.3716 H   0  0  0  0  0  0  0  0  0  0  0  0
   -2.8792  -11.2606    0.5924 H   0  0  0  0  0  0  0  0  0  0  0  0
   -2.2206   -9.6318    0.4018 H   0  0  0  0  0  0  0  0  0  0  0  0
   -0.8259   -7.3924    7.5760 H   0  0  0  0  0  0  0  0  0  0  0  0
   -1.8619   -7.2878    9.7137 H   0  0  0  0  0  0  0  0  0  0  0  0
   -4.6624   -2.2765   12.2908 H   0  0  0  0  0  0  0  0  0  0  0  0
   -5.6607   -2.5945   14.5544 H   0  0  0  0  0  0  0  0  0  0  0  0
   -5.5171   -4.7781   15.6639 H   0  0  0  0  0  0  0  0  0  0  0  0
   -4.4048   -6.6765   14.5935 H   0  0  0  0  0  0  0  0  0  0  0  0
    2.7909    4.7900  -10.0522 H   0  0  0  0  0  0  0  0  0  0  0  0
    0.8299   10.7603  -10.2689 H   0  0  0  0  0  0  0  0  0  0  0  0
    1.0163   11.8761  -12.4932 H   0  0  0  0  0  0  0  0  0  0  0  0
    1.9900   10.6670  -14.3934 H   0  0  0  0  0  0  0  0  0  0  0  0
    2.8042    8.3733  -14.1576 H   0  0  0  0  0  0  0  0  0  0  0  0
   -1.6775   -1.5284    5.7130 H   0  0  0  0  0  0  0  0  0  0  0  0
    0.6424   -4.5868    2.4871 H   0  0  0  0  0  0  0  0  0  0  0  0
    0.0969    4.3036   -2.0431 H   0  0  0  0  0  0  0  0  0  0  0  0
    2.1317    1.1792   -5.3963 H   0  0  0  0  0  0  0  0  0  0  0  0
    1.2752    7.0761   -7.2166 H   0  0  0  0  0  0  0  0  0  0  0  0
   -2.3676    0.8369    5.1289 H   0  0  0  0  0  0  0  0  0  0  0  0
   -4.7574    1.3738    5.0850 H   0  0  0  0  0  0  0  0  0  0  0  0
   -5.0249   -0.1287    1.1035 H   0  0  0  0  0  0  0  0  0  0  0  0
   -2.6454   -0.6883    1.1492 H   0  0  0  0  0  0  0  0  0  0  0  0
   -1.0219    2.3432    2.9404 H   0  0  0  0  0  0  0  0  0  0  0  0
    0.3441    4.0738    4.0107 H   0  0  0  0  0  0  0  0  0  0  0  0
    2.4933    1.0633    6.1333 H   0  0  0  0  0  0  0  0  0  0  0  0
    1.1463   -0.6696    5.0516 H   0  0  0  0  0  0  0  0  0  0  0  0
    3.3623    0.3253   -0.8905 H   0  0  0  0  0  0  0  0  0  0  0  0
    5.7264   -0.2967   -0.9878 H   0  0  0  0  0  0  0  0  0  0  0  0
    5.1799   -1.7889   -4.9449 H   0  0  0  0  0  0  0  0  0  0  0  0
    2.8068   -1.1887   -4.8451 H   0  0  0  0  0  0  0  0  0  0  0  0
   -0.6711    0.3673   -4.5479 H   0  0  0  0  0  0  0  0  0  0  0  0
   -2.1094   -1.3532   -5.5285 H   0  0  0  0  0  0  0  0  0  0  0  0
    0.1350   -4.3807   -3.5323 H   0  0  0  0  0  0  0  0  0  0  0  0
    1.5898   -2.6630   -2.5634 H   0  0  0  0  0  0  0  0  0  0  0  0
   -0.0298    7.9650   -5.2177 H   0  0  0  0  0  0  0  0  0  0  0  0
   -2.3017    8.8252   -5.5377 H   0  0  0  0  0  0  0  0  0  0  0  0
   -3.8866    4.9643   -4.6626 H   0  0  0  0  0  0  0  0  0  0  0  0
   -1.6194    4.0958   -4.3590 H   0  0  0  0  0  0  0  0  0  0  0  0
    3.3964    6.1612   -4.8999 H   0  0  0  0  0  0  0  0  0  0  0  0
    4.7429    7.6102   -3.4619 H   0  0  0  0  0  0  0  0  0  0  0  0
    1.3596    8.2818   -0.9555 H   0  0  0  0  0  0  0  0  0  0  0  0
    0.0010    6.8446   -2.4014 H   0  0  0  0  0  0  0  0  0  0  0  0
   -7.0618    0.3499    2.4053 H   0  0  0  0  0  0  0  0  0  0  0  0
   -6.9430    1.0067    4.0440 H   0  0  0  0  0  0  0  0  0  0  0  0
   -6.2647    2.5250    1.4781 H   0  0  0  0  0  0  0  0  0  0  0  0
   -6.1441    3.1799    3.1107 H   0  0  0  0  0  0  0  0  0  0  0  0
   -7.7244    2.7460    2.4494 H   0  0  0  0  0  0  0  0  0  0  0  0
    3.3108    3.3790    6.0847 H   0  0  0  0  0  0  0  0  0  0  0  0
    2.4193    4.6271    5.2020 H   0  0  0  0  0  0  0  0  0  0  0  0
    0.6240    4.5615    6.9393 H   0  0  0  0  0  0  0  0  0  0  0  0
    1.5249    3.3291    7.8219 H   0  0  0  0  0  0  0  0  0  0  0  0
    2.1919    4.9565    7.6521 H   0  0  0  0  0  0  0  0  0  0  0  0
    7.2251   -2.3201   -3.6680 H   0  0  0  0  0  0  0  0  0  0  0  0
    7.4675   -1.6486   -2.0487 H   0  0  0  0  0  0  0  0  0  0  0  0
    7.5153   -0.0468   -4.6531 H   0  0  0  0  0  0  0  0  0  0  0  0
    7.7535    0.6251   -3.0406 H   0  0  0  0  0  0  0  0  0  0  0  0
    8.9315   -0.5127   -3.7048 H   0  0  0  0  0  0  0  0  0  0  0  0
   -2.9424   -3.6549   -5.4370 H   0  0  0  0  0  0  0  0  0  0  0  0
   -2.0342   -4.9057   -4.5750 H   0  0  0  0  0  0  0  0  0  0  0  0
   -1.2378   -3.6716   -7.2566 H   0  0  0  0  0  0  0  0  0  0  0  0
   -0.3240   -4.9097   -6.3955 H   0  0  0  0  0  0  0  0  0  0  0  0
   -1.9318   -5.2803   -7.0278 H   0  0  0  0  0  0  0  0  0  0  0  0
   -4.6644    8.3011   -5.9995 H   0  0  0  0  0  0  0  0  0  0  0  0
   -5.3263    6.7105   -5.5959 H   0  0  0  0  0  0  0  0  0  0  0  0
   -5.1576    7.2609   -3.1671 H   0  0  0  0  0  0  0  0  0  0  0  0
   -4.4990    8.8463   -3.5706 H   0  0  0  0  0  0  0  0  0  0  0  0
   -6.1597    8.4415   -4.0182 H   0  0  0  0  0  0  0  0  0  0  0  0
    3.6113    8.9351   -0.2164 H   0  0  0  0  0  0  0  0  0  0  0  0
    5.0134    8.6631   -1.2613 H   0  0  0  0  0  0  0  0  0  0  0  0
    4.2292   10.4770   -2.7835 H   0  0  0  0  0  0  0  0  0  0  0  0
    4.4546   11.0826   -1.1388 H   0  0  0  0  0  0  0  0  0  0  0  0
    2.8293   10.7471   -1.7461 H   0  0  0  0  0  0  0  0  0  0  0  0
  1  2  2  0  0  0  0
  1  3  1  0  0  0  0
  3  4  2  0  0  0  0
  4  5  1  0  0  0  0
  5  2  1  0  0  0  0
  5  6  1  0  0  0  0
  5  7  1  0  0  0  0
  6  8  2  0  0  0  0
  8  9  1  0  0  0  0
  9 10  2  0  0  0  0
 10 11  1  0  0  0  0
 11 12  2  0  0  0  0
 12  6  1  0  0  0  0
  7 13  2  0  0  0  0
 13 14  1  0  0  0  0
 14 15  2  0  0  0  0
 15 16  1  0  0  0  0
 16 17  2  0  0  0  0
 17  7  1  0  0  0  0
 10 18  1  0  0  0  0
 18 19  1  0  0  0  0
 15 20  1  0  0  0  0
 20 21  1  0  0  0  0
  3 22  1  0  0  0  0
 22 23  1  0  0  0  0
 23 24  2  0  0  0  0
 24  4  1  0  0  0  0
 23 25  1  0  0  0  0
 25 26  2  0  0  0  0
 26 27  1  0  0  0  0
 27 28  1  0  0  0  0
 28 29  2  0  0  0  0
 29 30  1  0  0  0  0
 30 26  1  0  0  0  0
 27 31  2  0  0  0  0
 30 32  2  0  0  0  0
 32 33  1  0  0  0  0
 32 34  1  0  0  0  0
 33 35  3  0  0  0  0
 34 36  3  0  0  0  0
 28 37  1  0  0  0  0
 37 38  2  0  0  0  0
 39 40  2  0  0  0  0
 40 29  1  0  0  0  0
 39 38  1  0  0  0  0
 41 42  2  0  0  0  0
 42 43  1  0  0  0  0
 43 44  1  0  0  0  0
 44 45  2  0  0  0  0
 45 46  1  0  0  0  0
 46 42  1  0  0  0  0
 43 47  2  0  0  0  0
 46 48  2  0  0  0  0
 48 49  1  0  0  0  0
 48 50  1  0  0  0  0
 49 51  3  0  0  0  0
 50 52  3  0  0  0  0
 44 53  1  0  0  0  0
 53 54  2  0  0  0  0
 54 55  1  0  0  0  0
 55 56  2  0  0  0  0
 56 45  1  0  0  0  0
  1 57  1  0  0  0  0
 57 58  2  0  0  0  0
 58 59  1  0  0  0  0
 59 60  2  0  0  0  0
 60  2  1  0  0  0  0
 58 61  1  0  0  0  0
 61 62  1  0  0  0  0
 62 63  2  0  0  0  0
 63 59  1  0  0  0  0
 61 64  1  0  0  0  0
 61 65  1  0  0  0  0
 62 66  1  0  0  0  0
 66 67  2  0  0  0  0
 67 68  1  0  0  0  0
 68 63  1  0  0  0  0
 66 69  1  0  0  0  0
 69 70  1  0  0  0  0
 70 71  2  0  0  0  0
 71 67  1  0  0  0  0
 70 72  1  0  0  0  0
 72 73  2  0  0  0  0
 73 74  1  0  0  0  0
 74 71  1  0  0  0  0
 74 75  1  0  0  0  0
 74 76  1  0  0  0  0
 72 77  1  0  0  0  0
 77 78  2  0  0  0  0
 78 79  1  0  0  0  0
 79 80  2  0  0  0  0
 80 73  1  0  0  0  0
 78 81  1  0  0  0  0
 81 82  1  0  0  0  0
 82 83  2  0  0  0  0
 83 79  1  0  0  0  0
 81 84  1  0  0  0  0
 81 85  1  0  0  0  0
 82 86  1  0  0  0  0
 86 87  2  0  0  0  0
 87 88  1  0  0  0  0
 88 83  1  0  0  0  0
 87 41  1  0  0  0  0
 64 89  2  0  0  0  0
 89 90  1  0  0  0  0
 90 91  2  0  0  0  0
 91 92  1  0  0  0  0
 92 93  2  0  0  0  0
 93 64  1  0  0  0  0
 65 94  2  0  0  0  0
 94 95  1  0  0  0  0
 95 96  2  0  0  0  0
 96 97  1  0  0  0  0
 97 98  2  0  0  0  0
 98 65  1  0  0  0  0
 75 99  2  0  0  0  0
 99100  1  0  0  0  0
100101  2  0  0  0  0
101102  1  0  0  0  0
102103  2  0  0  0  0
103 75  1  0  0  0  0
 76104  2  0  0  0  0
104105  1  0  0  0  0
105106  2  0  0  0  0
106107  1  0  0  0  0
107108  2  0  0  0  0
108 76  1  0  0  0  0
 84109  2  0  0  0  0
109110  1  0  0  0  0
110111  2  0  0  0  0
111112  1  0  0  0  0
112113  2  0  0  0  0
113 84  1  0  0  0  0
 85114  2  0  0  0  0
114115  1  0  0  0  0
115116  2  0  0  0  0
116117  1  0  0  0  0
117118  2  0  0  0  0
118 85  1  0  0  0  0
 91119  1  0  0  0  0
119120  1  0  0  0  0
 96121  1  0  0  0  0
121122  1  0  0  0  0
101123  1  0  0  0  0
123124  1  0  0  0  0
106125  1  0  0  0  0
125126  1  0  0  0  0
111127  1  0  0  0  0
127128  1  0  0  0  0
116129  1  0  0  0  0
129130  1  0  0  0  0
  8131  1  0  0  0  0
  9132  1  0  0  0  0
 11133  1  0  0  0  0
 12134  1  0  0  0  0
 13135  1  0  0  0  0
 14136  1  0  0  0  0
 16137  1  0  0  0  0
 17138  1  0  0  0  0
 18139  1  0  0  0  0
 18140  1  0  0  0  0
 19141  1  0  0  0  0
 19142  1  0  0  0  0
 19143  1  0  0  0  0
 20144  1  0  0  0  0
 20145  1  0  0  0  0
 21146  1  0  0  0  0
 21147  1  0  0  0  0
 21148  1  0  0  0  0
 24149  1  0  0  0  0
 25150  1  0  0  0  0
 37151  1  0  0  0  0
 38152  1  0  0  0  0
 39153  1  0  0  0  0
 40154  1  0  0  0  0
 41155  1  0  0  0  0
 53156  1  0  0  0  0
 54157  1  0  0  0  0
 55158  1  0  0  0  0
 56159  1  0  0  0  0
 57160  1  0  0  0  0
 60161  1  0  0  0  0
 77162  1  0  0  0  0
 80163  1  0  0  0  0
 86164  1  0  0  0  0
 89165  1  0  0  0  0
 90166  1  0  0  0  0
 92167  1  0  0  0  0
 93168  1  0  0  0  0
 94169  1  0  0  0  0
 95170  1  0  0  0  0
 97171  1  0  0  0  0
 98172  1  0  0  0  0
 99173  1  0  0  0  0
100174  1  0  0  0  0
102175  1  0  0  0  0
103176  1  0  0  0  0
104177  1  0  0  0  0
105178  1  0  0  0  0
107179  1  0  0  0  0
108180  1  0  0  0  0
109181  1  0  0  0  0
110182  1  0  0  0  0
112183  1  0  0  0  0
113184  1  0  0  0  0
114185  1  0  0  0  0
115186  1  0  0  0  0
117187  1  0  0  0  0
118188  1  0  0  0  0
119189  1  0  0  0  0
119190  1  0  0  0  0
120191  1  0  0  0  0
120192  1  0  0  0  0
120193  1  0  0  0  0
121194  1  0  0  0  0
121195  1  0  0  0  0
122196  1  0  0  0  0
122197  1  0  0  0  0
122198  1  0  0  0  0
123199  1  0  0  0  0
123200  1  0  0  0  0
124201  1  0  0  0  0
124202  1  0  0  0  0
124203  1  0  0  0  0
125204  1  0  0  0  0
125205  1  0  0  0  0
126206  1  0  0  0  0
126207  1  0  0  0  0
126208  1  0  0  0  0
127209  1  0  0  0  0
127210  1  0  0  0  0
128211  1  0  0  0  0
128212  1  0  0  0  0
128213  1  0  0  0  0
129214  1  0  0  0  0
129215  1  0  0  0  0
130216  1  0  0  0  0
130217  1  0  0  0  0
130218  1  0  0  0  0
M  END
