IDTOT2F.sdf
  xtb     12202114513D
 energy: -273.481320000734 gnorm: 0.000698698934 xtb: 6.4.1 (unknown)
160174  0     0  0            999 V2000
   -1.9852   -0.5338    1.1920 C   0  0  0  0  0  0  0  0  0  0  0  0
   -0.8315   -1.0911    0.5955 C   0  0  0  0  0  0  0  0  0  0  0  0
    0.1919   -0.2954    0.0872 C   0  0  0  0  0  0  0  0  0  0  0  0
    0.0305    1.0668    0.1819 C   0  0  0  0  0  0  0  0  0  0  0  0
   -1.1373    1.6238    0.7491 C   0  0  0  0  0  0  0  0  0  0  0  0
   -2.1595    0.8291    1.2606 C   0  0  0  0  0  0  0  0  0  0  0  0
   -2.9401   -1.6189    1.6588 C   0  0  0  0  0  0  0  0  0  0  0  0
   -2.1931   -2.8613    1.2260 C   0  0  0  0  0  0  0  0  0  0  0  0
   -0.9855   -2.5118    0.6464 C   0  0  0  0  0  0  0  0  0  0  0  0
   -2.3935   -4.2487    1.2886 C   0  0  0  0  0  0  0  0  0  0  0  0
   -1.2975   -4.9478    0.7676 C   0  0  0  0  0  0  0  0  0  0  0  0
   -0.0705   -3.8684    0.1384 S   0  0  0  0  0  0  0  0  0  0  0  0
    0.9889    2.1593   -0.2758 C   0  0  0  0  0  0  0  0  0  0  0  0
    0.2024    3.4064    0.0814 C   0  0  0  0  0  0  0  0  0  0  0  0
   -0.9912    3.0431    0.6867 C   0  0  0  0  0  0  0  0  0  0  0  0
    0.3903    4.7993    0.0767 C   0  0  0  0  0  0  0  0  0  0  0  0
   -0.6902    5.4687    0.6688 C   0  0  0  0  0  0  0  0  0  0  0  0
   -1.9153    4.3708    1.2547 S   0  0  0  0  0  0  0  0  0  0  0  0
   -1.0489   -6.3451    0.7667 C   0  0  0  0  0  0  0  0  0  0  0  0
   -0.8224    6.8683    0.7713 C   0  0  0  0  0  0  0  0  0  0  0  0
    2.2557    2.1744    0.5683 C   0  0  0  0  0  0  0  0  0  0  0  0
    1.2067    1.9453   -1.7592 C   0  0  0  0  0  0  0  0  0  0  0  0
   -4.2374   -1.4252    0.8929 C   0  0  0  0  0  0  0  0  0  0  0  0
   -3.1140   -1.6666    3.1660 C   0  0  0  0  0  0  0  0  0  0  0  0
   -4.2529   -1.6797   -0.4738 C   0  0  0  0  0  0  0  0  0  0  0  0
   -5.4040   -1.4920   -1.2132 C   0  0  0  0  0  0  0  0  0  0  0  0
   -6.5692   -1.0337   -0.6114 C   0  0  0  0  0  0  0  0  0  0  0  0
   -6.5376   -0.7422    0.7449 C   0  0  0  0  0  0  0  0  0  0  0  0
   -5.3849   -0.9236    1.4888 C   0  0  0  0  0  0  0  0  0  0  0  0
   -2.3085   -0.9240    4.0174 C   0  0  0  0  0  0  0  0  0  0  0  0
   -2.4635   -1.0160    5.3893 C   0  0  0  0  0  0  0  0  0  0  0  0
   -3.4153   -1.8571    5.9475 C   0  0  0  0  0  0  0  0  0  0  0  0
   -4.2092   -2.6097    5.0912 C   0  0  0  0  0  0  0  0  0  0  0  0
   -4.0598   -2.5212    3.7212 C   0  0  0  0  0  0  0  0  0  0  0  0
    3.4776    2.6033    0.0688 C   0  0  0  0  0  0  0  0  0  0  0  0
    4.5903    2.6641    0.8881 C   0  0  0  0  0  0  0  0  0  0  0  0
    4.5171    2.3045    2.2262 C   0  0  0  0  0  0  0  0  0  0  0  0
    3.2905    1.8871    2.7259 C   0  0  0  0  0  0  0  0  0  0  0  0
    2.1761    1.8265    1.9123 C   0  0  0  0  0  0  0  0  0  0  0  0
    2.1810    1.0651   -2.2149 C   0  0  0  0  0  0  0  0  0  0  0  0
    2.3404    0.8345   -3.5684 C   0  0  0  0  0  0  0  0  0  0  0  0
    1.5285    1.4642   -4.5028 C   0  0  0  0  0  0  0  0  0  0  0  0
    0.5341    2.3166   -4.0421 C   0  0  0  0  0  0  0  0  0  0  0  0
    0.3689    2.5490   -2.6896 C   0  0  0  0  0  0  0  0  0  0  0  0
    5.7157    2.4174    3.1224 C   0  0  0  0  0  0  0  0  0  0  0  0
    1.6846    1.1838   -5.9691 C   0  0  0  0  0  0  0  0  0  0  0  0
   -3.6135   -1.9201    7.4344 C   0  0  0  0  0  0  0  0  0  0  0  0
   -7.8396   -0.9076   -1.4007 C   0  0  0  0  0  0  0  0  0  0  0  0
   -4.6626   -0.8982    7.8778 C   0  0  0  0  0  0  0  0  0  0  0  0
   -8.5876   -2.2426   -1.4119 C   0  0  0  0  0  0  0  0  0  0  0  0
    5.7696    3.8048    3.7657 C   0  0  0  0  0  0  0  0  0  0  0  0
    0.8314   -0.0191   -6.3769 C   0  0  0  0  0  0  0  0  0  0  0  0
    0.3680    7.9243    0.1010 S   0  0  0  0  0  0  0  0  0  0  0  0
   -0.5718    9.3259    0.5675 C   0  0  0  0  0  0  0  0  0  0  0  0
   -1.7447    8.9305    1.2283 C   0  0  0  0  0  0  0  0  0  0  0  0
   -1.8909    7.5684    1.3352 C   0  0  0  0  0  0  0  0  0  0  0  0
    0.0752   -7.0555   -0.3429 S   0  0  0  0  0  0  0  0  0  0  0  0
   -0.1847   -8.6384    0.3535 C   0  0  0  0  0  0  0  0  0  0  0  0
   -1.1061   -8.5587    1.4053 C   0  0  0  0  0  0  0  0  0  0  0  0
   -1.5908   -7.2910    1.6367 C   0  0  0  0  0  0  0  0  0  0  0  0
    0.4037   -9.8467   -0.0300 C   0  0  0  0  0  0  0  0  0  0  0  0
    1.3008  -10.1223   -1.0363 C   0  0  0  0  0  0  0  0  0  0  0  0
    1.8467   -9.1452   -1.9794 C   0  0  0  0  0  0  0  0  0  0  0  0
    2.7175   -9.9095   -2.8981 C   0  0  0  0  0  0  0  0  0  0  0  0
    2.7111  -11.2636   -2.5249 C   0  0  0  0  0  0  0  0  0  0  0  0
    1.8427  -11.4261   -1.3563 C   0  0  0  0  0  0  0  0  0  0  0  0
    3.4484   -9.4442   -3.9725 C   0  0  0  0  0  0  0  0  0  0  0  0
    4.1912  -10.3671   -4.6912 C   0  0  0  0  0  0  0  0  0  0  0  0
    4.1905  -11.7143   -4.3306 C   0  0  0  0  0  0  0  0  0  0  0  0
    3.4563  -12.1803   -3.2495 C   0  0  0  0  0  0  0  0  0  0  0  0
    1.6380   -7.9465   -2.0230 O   0  0  0  0  0  0  0  0  0  0  0  0
    1.6165  -12.6120   -0.7060 C   0  0  0  0  0  0  0  0  0  0  0  0
    2.1926  -13.8436   -1.0837 C   0  0  0  0  0  0  0  0  0  0  0  0
    0.7935  -12.7903    0.4257 C   0  0  0  0  0  0  0  0  0  0  0  0
    0.1444  -13.0277    1.3434 N   0  0  0  0  0  0  0  0  0  0  0  0
    2.6242  -14.8767   -1.3365 N   0  0  0  0  0  0  0  0  0  0  0  0
    4.9145  -12.5845   -5.0440 F   0  0  0  0  0  0  0  0  0  0  0  0
    4.9150   -9.9619   -5.7424 F   0  0  0  0  0  0  0  0  0  0  0  0
   -0.2507   10.6676    0.3601 C   0  0  0  0  0  0  0  0  0  0  0  0
    0.8072   11.2409   -0.3135 C   0  0  0  0  0  0  0  0  0  0  0  0
    1.8307   10.5227   -1.0719 C   0  0  0  0  0  0  0  0  0  0  0  0
    2.7011   11.5617   -1.6654 C   0  0  0  0  0  0  0  0  0  0  0  0
    2.2385   12.8306   -1.2810 C   0  0  0  0  0  0  0  0  0  0  0  0
    1.0529   12.6610   -0.4367 C   0  0  0  0  0  0  0  0  0  0  0  0
    3.8098   11.3943   -2.4700 C   0  0  0  0  0  0  0  0  0  0  0  0
    4.4720   12.5345   -2.8962 C   0  0  0  0  0  0  0  0  0  0  0  0
    4.0228   13.7988   -2.5185 C   0  0  0  0  0  0  0  0  0  0  0  0
    2.9065   13.9658   -1.7112 C   0  0  0  0  0  0  0  0  0  0  0  0
    1.9576    9.3203   -1.2237 O   0  0  0  0  0  0  0  0  0  0  0  0
    0.3398   13.6905    0.1239 C   0  0  0  0  0  0  0  0  0  0  0  0
    0.6501   15.0553   -0.0523 C   0  0  0  0  0  0  0  0  0  0  0  0
   -0.7952   13.5596    0.9509 C   0  0  0  0  0  0  0  0  0  0  0  0
    0.8407   16.1827   -0.1569 N   0  0  0  0  0  0  0  0  0  0  0  0
   -1.7206   13.5525    1.6319 N   0  0  0  0  0  0  0  0  0  0  0  0
    5.5543   12.4193   -3.6780 F   0  0  0  0  0  0  0  0  0  0  0  0
    4.6818   14.8838   -2.9437 F   0  0  0  0  0  0  0  0  0  0  0  0
   -3.5078   -4.8203    1.8196 O   0  0  0  0  0  0  0  0  0  0  0  0
   -4.2824   -5.6774    0.9876 C   0  0  0  0  0  0  0  0  0  0  0  0
   -5.0897   -4.9039   -0.0471 C   0  0  0  0  0  0  0  0  0  0  0  0
    1.4445    5.5463   -0.3079 O   0  0  0  0  0  0  0  0  0  0  0  0
    2.0710    5.3030   -1.5609 C   0  0  0  0  0  0  0  0  0  0  0  0
    1.4093    6.1107   -2.6704 C   0  0  0  0  0  0  0  0  0  0  0  0
    1.0688   -0.7408   -0.3555 H   0  0  0  0  0  0  0  0  0  0  0  0
   -3.0426    1.2698    1.6972 H   0  0  0  0  0  0  0  0  0  0  0  0
   -3.3531   -2.0263   -0.9630 H   0  0  0  0  0  0  0  0  0  0  0  0
   -5.3986   -1.7035   -2.2731 H   0  0  0  0  0  0  0  0  0  0  0  0
   -7.4265   -0.3636    1.2294 H   0  0  0  0  0  0  0  0  0  0  0  0
   -5.3857   -0.6765    2.5398 H   0  0  0  0  0  0  0  0  0  0  0  0
   -1.5513   -0.2678    3.6144 H   0  0  0  0  0  0  0  0  0  0  0  0
   -1.8281   -0.4265    6.0351 H   0  0  0  0  0  0  0  0  0  0  0  0
   -4.9513   -3.2788    5.5032 H   0  0  0  0  0  0  0  0  0  0  0  0
   -4.6763   -3.1262    3.0757 H   0  0  0  0  0  0  0  0  0  0  0  0
    3.5782    2.8853   -0.9681 H   0  0  0  0  0  0  0  0  0  0  0  0
    5.5320    2.9973    0.4760 H   0  0  0  0  0  0  0  0  0  0  0  0
    3.2053    1.6055    3.7658 H   0  0  0  0  0  0  0  0  0  0  0  0
    1.2327    1.5032    2.3280 H   0  0  0  0  0  0  0  0  0  0  0  0
    2.8267    0.5638   -1.5089 H   0  0  0  0  0  0  0  0  0  0  0  0
    3.1101    0.1543   -3.9037 H   0  0  0  0  0  0  0  0  0  0  0  0
   -0.1199    2.8061   -4.7494 H   0  0  0  0  0  0  0  0  0  0  0  0
   -0.4183    3.2094   -2.3540 H   0  0  0  0  0  0  0  0  0  0  0  0
    5.6648    1.6589    3.9062 H   0  0  0  0  0  0  0  0  0  0  0  0
    6.6275    2.2527    2.5451 H   0  0  0  0  0  0  0  0  0  0  0  0
    1.3763    2.0566   -6.5481 H   0  0  0  0  0  0  0  0  0  0  0  0
    2.7318    0.9748   -6.1964 H   0  0  0  0  0  0  0  0  0  0  0  0
   -3.9428   -2.9207    7.7215 H   0  0  0  0  0  0  0  0  0  0  0  0
   -2.6705   -1.7111    7.9433 H   0  0  0  0  0  0  0  0  0  0  0  0
   -8.4781   -0.1401   -0.9596 H   0  0  0  0  0  0  0  0  0  0  0  0
   -7.6112   -0.6151   -2.4275 H   0  0  0  0  0  0  0  0  0  0  0  0
   -4.8086   -0.9452    8.9544 H   0  0  0  0  0  0  0  0  0  0  0  0
   -5.6141   -1.0964    7.3893 H   0  0  0  0  0  0  0  0  0  0  0  0
   -4.3456    0.1082    7.6136 H   0  0  0  0  0  0  0  0  0  0  0  0
   -9.5061   -2.1603   -1.9878 H   0  0  0  0  0  0  0  0  0  0  0  0
   -8.8398   -2.5428   -0.3972 H   0  0  0  0  0  0  0  0  0  0  0  0
   -7.9676   -3.0196   -1.8541 H   0  0  0  0  0  0  0  0  0  0  0  0
    5.8312    4.5747    3.0000 H   0  0  0  0  0  0  0  0  0  0  0  0
    6.6375    3.8895    4.4152 H   0  0  0  0  0  0  0  0  0  0  0  0
    4.8739    3.9828    4.3567 H   0  0  0  0  0  0  0  0  0  0  0  0
    0.9467   -0.2238   -7.4386 H   0  0  0  0  0  0  0  0  0  0  0  0
    1.1308   -0.9027   -5.8178 H   0  0  0  0  0  0  0  0  0  0  0  0
   -0.2191    0.1752   -6.1721 H   0  0  0  0  0  0  0  0  0  0  0  0
   -2.4560    9.6466    1.6016 H   0  0  0  0  0  0  0  0  0  0  0  0
   -2.7279    7.0738    1.7963 H   0  0  0  0  0  0  0  0  0  0  0  0
   -1.3902   -9.4258    1.9757 H   0  0  0  0  0  0  0  0  0  0  0  0
   -2.2765   -7.0358    2.4246 H   0  0  0  0  0  0  0  0  0  0  0  0
    0.0768  -10.6858    0.5723 H   0  0  0  0  0  0  0  0  0  0  0  0
    3.4447   -8.4013   -4.2466 H   0  0  0  0  0  0  0  0  0  0  0  0
    3.4904  -13.2313   -3.0147 H   0  0  0  0  0  0  0  0  0  0  0  0
   -0.9656   11.3511    0.8024 H   0  0  0  0  0  0  0  0  0  0  0  0
    4.1544   10.4140   -2.7580 H   0  0  0  0  0  0  0  0  0  0  0  0
    2.6016   14.9655   -1.4499 H   0  0  0  0  0  0  0  0  0  0  0  0
   -4.9497   -6.1934    1.6825 H   0  0  0  0  0  0  0  0  0  0  0  0
   -3.6483   -6.4176    0.4878 H   0  0  0  0  0  0  0  0  0  0  0  0
   -4.4278   -4.4131   -0.7566 H   0  0  0  0  0  0  0  0  0  0  0  0
   -5.7366   -5.5901   -0.5867 H   0  0  0  0  0  0  0  0  0  0  0  0
   -5.7008   -4.1442    0.4342 H   0  0  0  0  0  0  0  0  0  0  0  0
    3.1058    5.6255   -1.4249 H   0  0  0  0  0  0  0  0  0  0  0  0
    2.0458    4.2383   -1.8035 H   0  0  0  0  0  0  0  0  0  0  0  0
    1.4824    7.1714   -2.4468 H   0  0  0  0  0  0  0  0  0  0  0  0
    1.9067    5.9047   -3.6141 H   0  0  0  0  0  0  0  0  0  0  0  0
    0.3595    5.8392   -2.7615 H   0  0  0  0  0  0  0  0  0  0  0  0
  1  2  1  0  0  0  0
  2  3  2  0  0  0  0
  3  4  1  0  0  0  0
  4  5  2  0  0  0  0
  5  6  1  0  0  0  0
  6  1  2  0  0  0  0
  1  7  1  0  0  0  0
  7  8  1  0  0  0  0
  8  9  2  0  0  0  0
  9  2  1  0  0  0  0
  8 10  1  0  0  0  0
 10 11  2  0  0  0  0
 11 12  1  0  0  0  0
 12  9  1  0  0  0  0
  4 13  1  0  0  0  0
 13 14  1  0  0  0  0
 14 15  2  0  0  0  0
 15  5  1  0  0  0  0
 14 16  1  0  0  0  0
 16 17  2  0  0  0  0
 17 18  1  0  0  0  0
 18 15  1  0  0  0  0
 11 19  1  0  0  0  0
 17 20  1  0  0  0  0
 13 21  1  0  0  0  0
 13 22  1  0  0  0  0
  7 23  1  0  0  0  0
  7 24  1  0  0  0  0
 23 25  2  0  0  0  0
 25 26  1  0  0  0  0
 26 27  2  0  0  0  0
 27 28  1  0  0  0  0
 28 29  2  0  0  0  0
 29 23  1  0  0  0  0
 24 30  2  0  0  0  0
 30 31  1  0  0  0  0
 31 32  2  0  0  0  0
 32 33  1  0  0  0  0
 33 34  2  0  0  0  0
 34 24  1  0  0  0  0
 21 35  2  0  0  0  0
 35 36  1  0  0  0  0
 36 37  2  0  0  0  0
 37 38  1  0  0  0  0
 38 39  2  0  0  0  0
 39 21  1  0  0  0  0
 22 40  2  0  0  0  0
 40 41  1  0  0  0  0
 41 42  2  0  0  0  0
 42 43  1  0  0  0  0
 43 44  2  0  0  0  0
 44 22  1  0  0  0  0
 37 45  1  0  0  0  0
 42 46  1  0  0  0  0
 32 47  1  0  0  0  0
 27 48  1  0  0  0  0
 47 49  1  0  0  0  0
 48 50  1  0  0  0  0
 45 51  1  0  0  0  0
 46 52  1  0  0  0  0
 20 53  1  0  0  0  0
 53 54  1  0  0  0  0
 54 55  2  0  0  0  0
 55 56  1  0  0  0  0
 56 20  2  0  0  0  0
 19 57  1  0  0  0  0
 57 58  1  0  0  0  0
 58 59  2  0  0  0  0
 59 60  1  0  0  0  0
 60 19  2  0  0  0  0
 58 61  1  0  0  0  0
 61 62  2  0  0  0  0
 62 63  1  0  0  0  0
 63 64  1  0  0  0  0
 64 65  2  0  0  0  0
 65 66  1  0  0  0  0
 66 62  1  0  0  0  0
 64 67  1  0  0  0  0
 67 68  2  0  0  0  0
 68 69  1  0  0  0  0
 69 70  2  0  0  0  0
 70 65  1  0  0  0  0
 63 71  2  0  0  0  0
 66 72  2  0  0  0  0
 72 73  1  0  0  0  0
 72 74  1  0  0  0  0
 74 75  3  0  0  0  0
 73 76  3  0  0  0  0
 69 77  1  0  0  0  0
 68 78  1  0  0  0  0
 54 79  1  0  0  0  0
 79 80  2  0  0  0  0
 80 81  1  0  0  0  0
 81 82  1  0  0  0  0
 82 83  2  0  0  0  0
 83 84  1  0  0  0  0
 84 80  1  0  0  0  0
 82 85  1  0  0  0  0
 85 86  2  0  0  0  0
 86 87  1  0  0  0  0
 87 88  2  0  0  0  0
 88 83  1  0  0  0  0
 81 89  2  0  0  0  0
 84 90  2  0  0  0  0
 90 91  1  0  0  0  0
 90 92  1  0  0  0  0
 91 93  3  0  0  0  0
 92 94  3  0  0  0  0
 86 95  1  0  0  0  0
 87 96  1  0  0  0  0
 10 97  1  0  0  0  0
 97 98  1  0  0  0  0
 98 99  1  0  0  0  0
 16100  1  0  0  0  0
100101  1  0  0  0  0
101102  1  0  0  0  0
  3103  1  0  0  0  0
  6104  1  0  0  0  0
 25105  1  0  0  0  0
 26106  1  0  0  0  0
 28107  1  0  0  0  0
 29108  1  0  0  0  0
 30109  1  0  0  0  0
 31110  1  0  0  0  0
 33111  1  0  0  0  0
 34112  1  0  0  0  0
 35113  1  0  0  0  0
 36114  1  0  0  0  0
 38115  1  0  0  0  0
 39116  1  0  0  0  0
 40117  1  0  0  0  0
 41118  1  0  0  0  0
 43119  1  0  0  0  0
 44120  1  0  0  0  0
 45121  1  0  0  0  0
 45122  1  0  0  0  0
 46123  1  0  0  0  0
 46124  1  0  0  0  0
 47125  1  0  0  0  0
 47126  1  0  0  0  0
 48127  1  0  0  0  0
 48128  1  0  0  0  0
 49129  1  0  0  0  0
 49130  1  0  0  0  0
 49131  1  0  0  0  0
 50132  1  0  0  0  0
 50133  1  0  0  0  0
 50134  1  0  0  0  0
 51135  1  0  0  0  0
 51136  1  0  0  0  0
 51137  1  0  0  0  0
 52138  1  0  0  0  0
 52139  1  0  0  0  0
 52140  1  0  0  0  0
 55141  1  0  0  0  0
 56142  1  0  0  0  0
 59143  1  0  0  0  0
 60144  1  0  0  0  0
 61145  1  0  0  0  0
 67146  1  0  0  0  0
 70147  1  0  0  0  0
 79148  1  0  0  0  0
 85149  1  0  0  0  0
 88150  1  0  0  0  0
 98151  1  0  0  0  0
 98152  1  0  0  0  0
 99153  1  0  0  0  0
 99154  1  0  0  0  0
 99155  1  0  0  0  0
101156  1  0  0  0  0
101157  1  0  0  0  0
102158  1  0  0  0  0
102159  1  0  0  0  0
102160  1  0  0  0  0
M  END
