IDTP-4F.sdf
  xtb     12202114553D
 energy: -240.192689714428 gnorm: 0.000932482737 xtb: 6.4.1 (unknown)
145159  0     0  0            999 V2000
    1.9746    0.8560   -0.2416 C   0  0  0  0  0  0  0  0  0  0  0  0
    2.0882   -0.1709   -1.1690 C   0  0  0  0  0  0  0  0  0  0  0  0
    0.6904    0.8486    0.3803 C   0  0  0  0  0  0  0  0  0  0  0  0
   -0.0384   -0.2238   -0.1838 C   0  0  0  0  0  0  0  0  0  0  0  0
    0.8278   -1.0096   -1.1647 C   0  0  0  0  0  0  0  0  0  0  0  0
    0.2078   -1.0331   -2.5498 C   0  0  0  0  0  0  0  0  0  0  0  0
    1.0454   -2.3829   -0.5525 C   0  0  0  0  0  0  0  0  0  0  0  0
    0.1328    1.7081    1.3228 C   0  0  0  0  0  0  0  0  0  0  0  0
   -1.1820    1.4961    1.6647 C   0  0  0  0  0  0  0  0  0  0  0  0
   -1.9198    0.4366    1.0852 C   0  0  0  0  0  0  0  0  0  0  0  0
   -1.3504   -0.4390    0.1612 C   0  0  0  0  0  0  0  0  0  0  0  0
   -2.0350    2.2833    2.6449 C   0  0  0  0  0  0  0  0  0  0  0  0
   -3.3513    1.5594    2.5196 C   0  0  0  0  0  0  0  0  0  0  0  0
   -3.2459    0.5038    1.6085 C   0  0  0  0  0  0  0  0  0  0  0  0
   -2.2514    3.7335    2.2549 C   0  0  0  0  0  0  0  0  0  0  0  0
   -1.3993    2.1570    4.0183 C   0  0  0  0  0  0  0  0  0  0  0  0
   -4.6220    1.6919    3.0288 C   0  0  0  0  0  0  0  0  0  0  0  0
   -5.5096    0.7290    2.5208 C   0  0  0  0  0  0  0  0  0  0  0  0
   -4.7079   -0.3503    1.3850 S   0  0  0  0  0  0  0  0  0  0  0  0
    8.5660    0.6180   -4.0977 C   0  0  0  0  0  0  0  0  0  0  0  0
    9.6436    1.4668   -4.0051 C   0  0  0  0  0  0  0  0  0  0  0  0
   10.8529    1.3817   -4.7944 C   0  0  0  0  0  0  0  0  0  0  0  0
   11.7175    2.4938   -4.3909 C   0  0  0  0  0  0  0  0  0  0  0  0
   11.0689    3.2290   -3.3834 C   0  0  0  0  0  0  0  0  0  0  0  0
    9.7559    2.6163   -3.1019 C   0  0  0  0  0  0  0  0  0  0  0  0
   12.9717    2.8844   -4.8285 C   0  0  0  0  0  0  0  0  0  0  0  0
   13.5306    4.0071   -4.2319 C   0  0  0  0  0  0  0  0  0  0  0  0
   12.9004    4.7387   -3.2370 C   0  0  0  0  0  0  0  0  0  0  0  0
   11.6447    4.3427   -2.8033 C   0  0  0  0  0  0  0  0  0  0  0  0
    8.9436    3.0024   -2.2810 O   0  0  0  0  0  0  0  0  0  0  0  0
   11.1688    0.4480   -5.7487 C   0  0  0  0  0  0  0  0  0  0  0  0
   10.3572   -0.6334   -6.1490 C   0  0  0  0  0  0  0  0  0  0  0  0
   12.3776    0.4353   -6.4762 C   0  0  0  0  0  0  0  0  0  0  0  0
   13.3338    0.3639   -7.1078 N   0  0  0  0  0  0  0  0  0  0  0  0
    9.7647   -1.5399   -6.5340 N   0  0  0  0  0  0  0  0  0  0  0  0
   14.7464    4.4044   -4.6425 F   0  0  0  0  0  0  0  0  0  0  0  0
   -6.8564    0.7009    2.8950 C   0  0  0  0  0  0  0  0  0  0  0  0
   -7.8762   -0.1422    2.5219 C   0  0  0  0  0  0  0  0  0  0  0  0
   -9.2504   -0.0512    2.9682 C   0  0  0  0  0  0  0  0  0  0  0  0
   -9.9804   -1.1701    2.3668 C   0  0  0  0  0  0  0  0  0  0  0  0
   -9.0936   -1.9108    1.5661 C   0  0  0  0  0  0  0  0  0  0  0  0
   -7.7536   -1.2952    1.6246 C   0  0  0  0  0  0  0  0  0  0  0  0
   -6.7577   -1.6856    1.0413 O   0  0  0  0  0  0  0  0  0  0  0  0
   -9.8063    0.9002    3.7842 C   0  0  0  0  0  0  0  0  0  0  0  0
   -9.1297    1.9959    4.3600 C   0  0  0  0  0  0  0  0  0  0  0  0
   -8.6623    2.9159    4.8650 N   0  0  0  0  0  0  0  0  0  0  0  0
  -11.1658    0.9239    4.1614 C   0  0  0  0  0  0  0  0  0  0  0  0
  -12.2561    1.0030    4.5119 N   0  0  0  0  0  0  0  0  0  0  0  0
  -11.3041   -1.5625    2.4716 C   0  0  0  0  0  0  0  0  0  0  0  0
  -11.6890   -2.6929    1.7625 C   0  0  0  0  0  0  0  0  0  0  0  0
  -10.8232   -3.4300    0.9689 C   0  0  0  0  0  0  0  0  0  0  0  0
   -9.4993   -3.0319    0.8680 C   0  0  0  0  0  0  0  0  0  0  0  0
  -12.9683   -3.0924    1.8512 F   0  0  0  0  0  0  0  0  0  0  0  0
   -1.7494    1.1274    4.8802 C   0  0  0  0  0  0  0  0  0  0  0  0
   -1.1329    1.0035    6.1117 C   0  0  0  0  0  0  0  0  0  0  0  0
   -0.1481    1.8966    6.5109 C   0  0  0  0  0  0  0  0  0  0  0  0
    0.2107    2.9152    5.6374 C   0  0  0  0  0  0  0  0  0  0  0  0
   -0.4037    3.0448    4.4067 C   0  0  0  0  0  0  0  0  0  0  0  0
   -1.9875    4.1958    0.9742 C   0  0  0  0  0  0  0  0  0  0  0  0
   -2.2324    5.5165    0.6428 C   0  0  0  0  0  0  0  0  0  0  0  0
   -2.7580    6.4021    1.5730 C   0  0  0  0  0  0  0  0  0  0  0  0
   -3.0370    5.9291    2.8493 C   0  0  0  0  0  0  0  0  0  0  0  0
   -2.7920    4.6125    3.1862 C   0  0  0  0  0  0  0  0  0  0  0  0
    0.2156   -2.1605   -3.3611 C   0  0  0  0  0  0  0  0  0  0  0  0
   -0.3347   -2.1165   -4.6303 C   0  0  0  0  0  0  0  0  0  0  0  0
   -0.8985   -0.9500   -5.1275 C   0  0  0  0  0  0  0  0  0  0  0  0
   -0.8945    0.1786   -4.3172 C   0  0  0  0  0  0  0  0  0  0  0  0
   -0.3462    0.1401   -3.0501 C   0  0  0  0  0  0  0  0  0  0  0  0
    0.0307   -3.3334   -0.5872 C   0  0  0  0  0  0  0  0  0  0  0  0
    0.2047   -4.5741   -0.0050 C   0  0  0  0  0  0  0  0  0  0  0  0
    1.3891   -4.9011    0.6425 C   0  0  0  0  0  0  0  0  0  0  0  0
    2.3903   -3.9422    0.6991 C   0  0  0  0  0  0  0  0  0  0  0  0
    2.2212   -2.6990    0.1155 C   0  0  0  0  0  0  0  0  0  0  0  0
    3.3291   -0.1276   -1.8135 C   0  0  0  0  0  0  0  0  0  0  0  0
    4.1319    0.9435   -1.3303 C   0  0  0  0  0  0  0  0  0  0  0  0
    3.3541    1.8908   -0.1062 S   0  0  0  0  0  0  0  0  0  0  0  0
    4.0166   -0.8006   -2.7887 N   0  0  0  0  0  0  0  0  0  0  0  0
    5.2393   -0.1921   -2.9181 C   0  0  0  0  0  0  0  0  0  0  0  0
    5.3380    0.9071   -2.0213 C   0  0  0  0  0  0  0  0  0  0  0  0
    3.5917   -1.9448   -3.5544 C   0  0  0  0  0  0  0  0  0  0  0  0
    4.0142   -3.2599   -2.9037 C   0  0  0  0  0  0  0  0  0  0  0  0
    6.3695   -0.3582   -3.6919 C   0  0  0  0  0  0  0  0  0  0  0  0
    7.3481    0.6048   -3.4109 C   0  0  0  0  0  0  0  0  0  0  0  0
    6.8413    1.7328   -2.1497 S   0  0  0  0  0  0  0  0  0  0  0  0
    1.6004   -6.2691    1.2222 C   0  0  0  0  0  0  0  0  0  0  0  0
    2.2421   -7.1925    0.1841 C   0  0  0  0  0  0  0  0  0  0  0  0
   -1.5418   -0.9248   -6.4831 C   0  0  0  0  0  0  0  0  0  0  0  0
   -3.0123   -1.3356   -6.3810 C   0  0  0  0  0  0  0  0  0  0  0  0
    0.5489    1.7342    7.8307 C   0  0  0  0  0  0  0  0  0  0  0  0
    1.7807    0.8397    7.6766 C   0  0  0  0  0  0  0  0  0  0  0  0
   -2.9731    7.8467    1.2255 C   0  0  0  0  0  0  0  0  0  0  0  0
   -1.7221    8.6653    1.5516 C   0  0  0  0  0  0  0  0  0  0  0  0
    0.7124    2.5150    1.7435 H   0  0  0  0  0  0  0  0  0  0  0  0
   -1.9406   -1.2333   -0.2669 H   0  0  0  0  0  0  0  0  0  0  0  0
   -4.9373    2.4387    3.7355 H   0  0  0  0  0  0  0  0  0  0  0  0
    8.6455   -0.1803   -4.8257 H   0  0  0  0  0  0  0  0  0  0  0  0
   13.5194    2.3647   -5.5968 H   0  0  0  0  0  0  0  0  0  0  0  0
   13.3963    5.6006   -2.8195 H   0  0  0  0  0  0  0  0  0  0  0  0
   11.1197    4.8841   -2.0320 H   0  0  0  0  0  0  0  0  0  0  0  0
   -7.1126    1.4868    3.5953 H   0  0  0  0  0  0  0  0  0  0  0  0
  -12.0316   -1.0391    3.0692 H   0  0  0  0  0  0  0  0  0  0  0  0
  -11.1937   -4.2976    0.4464 H   0  0  0  0  0  0  0  0  0  0  0  0
   -8.7930   -3.5774    0.2619 H   0  0  0  0  0  0  0  0  0  0  0  0
   -2.5118    0.4179    4.5930 H   0  0  0  0  0  0  0  0  0  0  0  0
   -1.4251    0.2008    6.7737 H   0  0  0  0  0  0  0  0  0  0  0  0
    0.9781    3.6192    5.9261 H   0  0  0  0  0  0  0  0  0  0  0  0
   -0.1180    3.8522    3.7482 H   0  0  0  0  0  0  0  0  0  0  0  0
   -1.5860    3.5247    0.2290 H   0  0  0  0  0  0  0  0  0  0  0  0
   -2.0138    5.8618   -0.3578 H   0  0  0  0  0  0  0  0  0  0  0  0
   -3.4541    6.5994    3.5870 H   0  0  0  0  0  0  0  0  0  0  0  0
   -3.0110    4.2635    4.1849 H   0  0  0  0  0  0  0  0  0  0  0  0
    0.6414   -3.0870   -3.0033 H   0  0  0  0  0  0  0  0  0  0  0  0
   -0.3213   -3.0062   -5.2438 H   0  0  0  0  0  0  0  0  0  0  0  0
   -1.3245    1.0996   -4.6837 H   0  0  0  0  0  0  0  0  0  0  0  0
   -0.3495    1.0304   -2.4376 H   0  0  0  0  0  0  0  0  0  0  0  0
   -0.9018   -3.1084   -1.0821 H   0  0  0  0  0  0  0  0  0  0  0  0
   -0.5955   -5.2988   -0.0508 H   0  0  0  0  0  0  0  0  0  0  0  0
    3.3168   -4.1667    1.2082 H   0  0  0  0  0  0  0  0  0  0  0  0
    3.0158   -1.9712    0.1906 H   0  0  0  0  0  0  0  0  0  0  0  0
    4.0391   -1.8616   -4.5490 H   0  0  0  0  0  0  0  0  0  0  0  0
    2.5059   -1.9036   -3.6590 H   0  0  0  0  0  0  0  0  0  0  0  0
    3.7184   -4.0932   -3.5349 H   0  0  0  0  0  0  0  0  0  0  0  0
    5.0935   -3.2880   -2.7726 H   0  0  0  0  0  0  0  0  0  0  0  0
    3.5400   -3.3735   -1.9316 H   0  0  0  0  0  0  0  0  0  0  0  0
    6.5198   -1.1224   -4.4333 H   0  0  0  0  0  0  0  0  0  0  0  0
    2.2507   -6.2046    2.0968 H   0  0  0  0  0  0  0  0  0  0  0  0
    0.6438   -6.6904    1.5368 H   0  0  0  0  0  0  0  0  0  0  0  0
    1.6016   -7.2814   -0.6906 H   0  0  0  0  0  0  0  0  0  0  0  0
    3.2031   -6.7945   -0.1344 H   0  0  0  0  0  0  0  0  0  0  0  0
    2.3983   -8.1840    0.6020 H   0  0  0  0  0  0  0  0  0  0  0  0
   -1.0220   -1.6127   -7.1532 H   0  0  0  0  0  0  0  0  0  0  0  0
   -1.4769    0.0796   -6.9058 H   0  0  0  0  0  0  0  0  0  0  0  0
   -3.0972   -2.3409   -5.9743 H   0  0  0  0  0  0  0  0  0  0  0  0
   -3.4812   -1.3169   -7.3618 H   0  0  0  0  0  0  0  0  0  0  0  0
   -3.5505   -0.6552   -5.7249 H   0  0  0  0  0  0  0  0  0  0  0  0
   -0.1324    1.2865    8.5569 H   0  0  0  0  0  0  0  0  0  0  0  0
    0.8585    2.7105    8.2088 H   0  0  0  0  0  0  0  0  0  0  0  0
    2.2856    0.7193    8.6321 H   0  0  0  0  0  0  0  0  0  0  0  0
    1.4911   -0.1425    7.3096 H   0  0  0  0  0  0  0  0  0  0  0  0
    2.4791    1.2768    6.9665 H   0  0  0  0  0  0  0  0  0  0  0  0
   -3.8189    8.2416    1.7917 H   0  0  0  0  0  0  0  0  0  0  0  0
   -3.1987    7.9426    0.1616 H   0  0  0  0  0  0  0  0  0  0  0  0
   -1.8759    9.7121    1.3005 H   0  0  0  0  0  0  0  0  0  0  0  0
   -1.4884    8.5929    2.6115 H   0  0  0  0  0  0  0  0  0  0  0  0
   -0.8693    8.2940    0.9874 H   0  0  0  0  0  0  0  0  0  0  0  0
  1  3  1  0  0  0  0
  3  4  1  0  0  0  0
  4  5  1  0  0  0  0
  5  2  1  0  0  0  0
  5  6  1  0  0  0  0
  5  7  1  0  0  0  0
  3  8  2  0  0  0  0
  8  9  1  0  0  0  0
  9 10  2  0  0  0  0
 10 11  1  0  0  0  0
 11  4  2  0  0  0  0
  9 12  1  0  0  0  0
 12 13  1  0  0  0  0
 13 14  2  0  0  0  0
 14 10  1  0  0  0  0
 12 15  1  0  0  0  0
 12 16  1  0  0  0  0
 13 17  1  0  0  0  0
 17 18  2  0  0  0  0
 18 19  1  0  0  0  0
 19 14  1  0  0  0  0
 20 21  2  0  0  0  0
 21 22  1  0  0  0  0
 22 23  1  0  0  0  0
 23 24  2  0  0  0  0
 24 25  1  0  0  0  0
 25 21  1  0  0  0  0
 23 26  1  0  0  0  0
 26 27  2  0  0  0  0
 27 28  1  0  0  0  0
 28 29  2  0  0  0  0
 29 24  1  0  0  0  0
 25 30  2  0  0  0  0
 22 31  2  0  0  0  0
 31 32  1  0  0  0  0
 31 33  1  0  0  0  0
 33 34  3  0  0  0  0
 32 35  3  0  0  0  0
 27 36  1  0  0  0  0
 37 38  2  0  0  0  0
 38 39  1  0  0  0  0
 39 40  1  0  0  0  0
 40 41  2  0  0  0  0
 41 42  1  0  0  0  0
 42 38  1  0  0  0  0
 42 43  2  0  0  0  0
 39 44  2  0  0  0  0
 44 45  1  0  0  0  0
 45 46  3  0  0  0  0
 44 47  1  0  0  0  0
 47 48  3  0  0  0  0
 40 49  1  0  0  0  0
 49 50  2  0  0  0  0
 50 51  1  0  0  0  0
 51 52  2  0  0  0  0
 52 41  1  0  0  0  0
 50 53  1  0  0  0  0
 16 54  2  0  0  0  0
 54 55  1  0  0  0  0
 55 56  2  0  0  0  0
 56 57  1  0  0  0  0
 57 58  2  0  0  0  0
 58 16  1  0  0  0  0
 15 59  2  0  0  0  0
 59 60  1  0  0  0  0
 60 61  2  0  0  0  0
 61 62  1  0  0  0  0
 62 63  2  0  0  0  0
 63 15  1  0  0  0  0
  6 64  2  0  0  0  0
 64 65  1  0  0  0  0
 65 66  2  0  0  0  0
 66 67  1  0  0  0  0
 67 68  2  0  0  0  0
 68  6  1  0  0  0  0
  7 69  2  0  0  0  0
 69 70  1  0  0  0  0
 70 71  2  0  0  0  0
 71 72  1  0  0  0  0
 72 73  2  0  0  0  0
 73  7  1  0  0  0  0
  1  2  2  0  0  0  0
  2 74  1  0  0  0  0
 74 75  2  0  0  0  0
 75 76  1  0  0  0  0
 76  1  1  0  0  0  0
 74 77  1  0  0  0  0
 77 78  1  0  0  0  0
 78 79  2  0  0  0  0
 79 75  1  0  0  0  0
 77 80  1  0  0  0  0
 80 81  1  0  0  0  0
 78 82  1  0  0  0  0
 82 83  2  0  0  0  0
 83 84  1  0  0  0  0
 84 79  1  0  0  0  0
 37 18  1  0  0  0  0
 83 20  1  0  0  0  0
 71 85  1  0  0  0  0
 85 86  1  0  0  0  0
 66 87  1  0  0  0  0
 87 88  1  0  0  0  0
 56 89  1  0  0  0  0
 89 90  1  0  0  0  0
 61 91  1  0  0  0  0
 91 92  1  0  0  0  0
  8 93  1  0  0  0  0
 11 94  1  0  0  0  0
 17 95  1  0  0  0  0
 20 96  1  0  0  0  0
 26 97  1  0  0  0  0
 28 98  1  0  0  0  0
 29 99  1  0  0  0  0
 37100  1  0  0  0  0
 49101  1  0  0  0  0
 51102  1  0  0  0  0
 52103  1  0  0  0  0
 54104  1  0  0  0  0
 55105  1  0  0  0  0
 57106  1  0  0  0  0
 58107  1  0  0  0  0
 59108  1  0  0  0  0
 60109  1  0  0  0  0
 62110  1  0  0  0  0
 63111  1  0  0  0  0
 64112  1  0  0  0  0
 65113  1  0  0  0  0
 67114  1  0  0  0  0
 68115  1  0  0  0  0
 69116  1  0  0  0  0
 70117  1  0  0  0  0
 72118  1  0  0  0  0
 73119  1  0  0  0  0
 80120  1  0  0  0  0
 80121  1  0  0  0  0
 81122  1  0  0  0  0
 81123  1  0  0  0  0
 81124  1  0  0  0  0
 82125  1  0  0  0  0
 85126  1  0  0  0  0
 85127  1  0  0  0  0
 86128  1  0  0  0  0
 86129  1  0  0  0  0
 86130  1  0  0  0  0
 87131  1  0  0  0  0
 87132  1  0  0  0  0
 88133  1  0  0  0  0
 88134  1  0  0  0  0
 88135  1  0  0  0  0
 89136  1  0  0  0  0
 89137  1  0  0  0  0
 90138  1  0  0  0  0
 90139  1  0  0  0  0
 90140  1  0  0  0  0
 91141  1  0  0  0  0
 91142  1  0  0  0  0
 92143  1  0  0  0  0
 92144  1  0  0  0  0
 92145  1  0  0  0  0
M  END
