IDTT-T.sdf
  xtb     12202113373D
 energy: -229.155069678790 gnorm: 0.000188126524 xtb: 6.4.1 (unknown)
146158  0     0  0            999 V2000
    0.6014    6.2249   -2.1821 C   0  0  0  0  0  0  0  0  0  0  0  0
   -0.6803    5.6946   -2.3648 C   0  0  0  0  0  0  0  0  0  0  0  0
   -0.8764    4.5344   -1.6448 C   0  0  0  0  0  0  0  0  0  0  0  0
    0.2433    4.1651   -0.8669 C   0  0  0  0  0  0  0  0  0  0  0  0
    1.5501    5.2691   -1.0488 S   0  0  0  0  0  0  0  0  0  0  0  0
    0.0456    2.9459   -0.2227 C   0  0  0  0  0  0  0  0  0  0  0  0
    0.8118    2.0508    0.7135 C   0  0  0  0  0  0  0  0  0  0  0  0
    2.2045    1.6833    0.2509 C   0  0  0  0  0  0  0  0  0  0  0  0
    2.5506    1.7236   -1.0916 C   0  0  0  0  0  0  0  0  0  0  0  0
    3.8245    1.3699   -1.4967 C   0  0  0  0  0  0  0  0  0  0  0  0
    4.7766    0.9532   -0.5767 C   0  0  0  0  0  0  0  0  0  0  0  0
    6.1765    0.6257   -1.0090 C   0  0  0  0  0  0  0  0  0  0  0  0
    7.0613    1.8714   -0.9264 C   0  0  0  0  0  0  0  0  0  0  0  0
    4.4181    0.8950    0.7640 C   0  0  0  0  0  0  0  0  0  0  0  0
    3.1491    1.2539    1.1749 C   0  0  0  0  0  0  0  0  0  0  0  0
    0.8501    2.7833    2.0487 C   0  0  0  0  0  0  0  0  0  0  0  0
    0.0160    2.4469    3.1039 C   0  0  0  0  0  0  0  0  0  0  0  0
    0.0528    3.1733    4.2812 C   0  0  0  0  0  0  0  0  0  0  0  0
    0.9135    4.2516    4.4303 C   0  0  0  0  0  0  0  0  0  0  0  0
    0.9130    5.0670    5.6912 C   0  0  0  0  0  0  0  0  0  0  0  0
   -0.1094    6.2011    5.5927 C   0  0  0  0  0  0  0  0  0  0  0  0
    1.7398    4.5884    3.3649 C   0  0  0  0  0  0  0  0  0  0  0  0
    1.7104    3.8662    2.1884 C   0  0  0  0  0  0  0  0  0  0  0  0
   -0.0882    0.8291    0.7329 C   0  0  0  0  0  0  0  0  0  0  0  0
   -1.3038    1.0884    0.0535 C   0  0  0  0  0  0  0  0  0  0  0  0
   -1.1946    2.3990   -0.5069 C   0  0  0  0  0  0  0  0  0  0  0  0
   -2.1784    3.3756   -1.5455 S   0  0  0  0  0  0  0  0  0  0  0  0
   -2.3027    0.1246   -0.0600 C   0  0  0  0  0  0  0  0  0  0  0  0
   -2.0355   -1.1194    0.4617 C   0  0  0  0  0  0  0  0  0  0  0  0
   -2.9031   -2.3649    0.4069 C   0  0  0  0  0  0  0  0  0  0  0  0
   -4.0560   -2.3407    1.3992 C   0  0  0  0  0  0  0  0  0  0  0  0
   -4.9927   -3.3670    1.3601 C   0  0  0  0  0  0  0  0  0  0  0  0
   -6.0217   -3.4117    2.2797 C   0  0  0  0  0  0  0  0  0  0  0  0
   -6.1403   -2.4386    3.2648 C   0  0  0  0  0  0  0  0  0  0  0  0
   -7.2845   -2.4656    4.2364 C   0  0  0  0  0  0  0  0  0  0  0  0
   -8.4854   -1.7060    3.6689 C   0  0  0  0  0  0  0  0  0  0  0  0
   -5.2006   -1.4181    3.2995 C   0  0  0  0  0  0  0  0  0  0  0  0
   -4.1652   -1.3695    2.3828 C   0  0  0  0  0  0  0  0  0  0  0  0
   -3.3900   -2.5911   -1.0090 C   0  0  0  0  0  0  0  0  0  0  0  0
   -4.5755   -2.0073   -1.4374 C   0  0  0  0  0  0  0  0  0  0  0  0
   -5.0099   -2.1768   -2.7379 C   0  0  0  0  0  0  0  0  0  0  0  0
   -4.2728   -2.9278   -3.6444 C   0  0  0  0  0  0  0  0  0  0  0  0
   -4.7773   -3.1568   -5.0395 C   0  0  0  0  0  0  0  0  0  0  0  0
   -5.6759   -4.3945   -5.0834 C   0  0  0  0  0  0  0  0  0  0  0  0
   -3.0834   -3.4996   -3.2138 C   0  0  0  0  0  0  0  0  0  0  0  0
   -2.6414   -3.3287   -1.9149 C   0  0  0  0  0  0  0  0  0  0  0  0
   -1.9329   -3.4027    0.9058 C   0  0  0  0  0  0  0  0  0  0  0  0
   -0.7604   -2.8034    1.3379 C   0  0  0  0  0  0  0  0  0  0  0  0
   -0.7887   -1.3996    1.0706 C   0  0  0  0  0  0  0  0  0  0  0  0
    0.1847   -0.4186    1.2411 C   0  0  0  0  0  0  0  0  0  0  0  0
    0.4249   -3.9093    1.9400 S   0  0  0  0  0  0  0  0  0  0  0  0
   -0.6528   -5.2290    1.5764 C   0  0  0  0  0  0  0  0  0  0  0  0
   -1.8842   -4.7865    1.0452 C   0  0  0  0  0  0  0  0  0  0  0  0
   -2.8962   -6.1158    0.6547 S   0  0  0  0  0  0  0  0  0  0  0  0
   -1.6423   -7.2652    1.1627 C   0  0  0  0  0  0  0  0  0  0  0  0
   -0.5206   -6.6066    1.6456 C   0  0  0  0  0  0  0  0  0  0  0  0
    1.0410    7.3449   -2.8943 C   0  0  0  0  0  0  0  0  0  0  0  0
    2.2648    7.9686   -2.9939 C   0  0  0  0  0  0  0  0  0  0  0  0
    3.4394    7.5744   -2.2534 C   0  0  0  0  0  0  0  0  0  0  0  0
    4.6207    8.2245   -2.5723 N   0  0  0  0  0  0  0  0  0  0  0  0
    4.7144    9.2540   -3.4678 C   0  0  0  0  0  0  0  0  0  0  0  0
    3.5818    9.6664   -4.1066 N   0  0  0  0  0  0  0  0  0  0  0  0
    2.3332    9.0790   -3.9423 C   0  0  0  0  0  0  0  0  0  0  0  0
    1.3739    9.4859   -4.5679 O   0  0  0  0  0  0  0  0  0  0  0  0
    3.4453    6.7105   -1.3863 O   0  0  0  0  0  0  0  0  0  0  0  0
    5.8145    7.7922   -1.8536 C   0  0  0  0  0  0  0  0  0  0  0  0
    6.0378    8.6248   -0.5985 C   0  0  0  0  0  0  0  0  0  0  0  0
    6.1663    9.9848   -3.7610 S   0  0  0  0  0  0  0  0  0  0  0  0
    3.6637   10.7558   -5.0733 C   0  0  0  0  0  0  0  0  0  0  0  0
    4.0597   10.2427   -6.4515 C   0  0  0  0  0  0  0  0  0  0  0  0
   -1.9545   -8.6175    0.9549 C   0  0  0  0  0  0  0  0  0  0  0  0
   -1.2533   -9.7966    1.0553 C   0  0  0  0  0  0  0  0  0  0  0  0
    0.1168   -9.9569    1.5151 C   0  0  0  0  0  0  0  0  0  0  0  0
    0.6639  -11.2294    1.3706 N   0  0  0  0  0  0  0  0  0  0  0  0
    0.0078  -12.3060    0.8490 C   0  0  0  0  0  0  0  0  0  0  0  0
   -1.3153  -12.1720    0.5456 N   0  0  0  0  0  0  0  0  0  0  0  0
   -2.0119  -10.9750    0.6165 C   0  0  0  0  0  0  0  0  0  0  0  0
   -3.1871  -10.9339    0.3075 O   0  0  0  0  0  0  0  0  0  0  0  0
    0.7973   -9.0755    2.0072 O   0  0  0  0  0  0  0  0  0  0  0  0
    2.0595  -11.3779    1.7710 C   0  0  0  0  0  0  0  0  0  0  0  0
    3.0013  -11.1149    0.6034 C   0  0  0  0  0  0  0  0  0  0  0  0
    0.7887  -13.7421    0.6087 S   0  0  0  0  0  0  0  0  0  0  0  0
   -2.0560  -13.3244    0.0435 C   0  0  0  0  0  0  0  0  0  0  0  0
   -1.9284  -13.4480   -1.4690 C   0  0  0  0  0  0  0  0  0  0  0  0
   -1.4045    6.1424   -3.0210 H   0  0  0  0  0  0  0  0  0  0  0  0
    1.8237    2.0354   -1.8274 H   0  0  0  0  0  0  0  0  0  0  0  0
    4.0812    1.4173   -2.5454 H   0  0  0  0  0  0  0  0  0  0  0  0
    6.1714    0.2544   -2.0356 H   0  0  0  0  0  0  0  0  0  0  0  0
    6.5907   -0.1531   -0.3654 H   0  0  0  0  0  0  0  0  0  0  0  0
    6.6678    2.6569   -1.5676 H   0  0  0  0  0  0  0  0  0  0  0  0
    8.0760    1.6398   -1.2414 H   0  0  0  0  0  0  0  0  0  0  0  0
    7.0906    2.2471    0.0939 H   0  0  0  0  0  0  0  0  0  0  0  0
    5.1422    0.5664    1.4959 H   0  0  0  0  0  0  0  0  0  0  0  0
    2.8929    1.2137    2.2240 H   0  0  0  0  0  0  0  0  0  0  0  0
   -0.6647    1.6130    3.0138 H   0  0  0  0  0  0  0  0  0  0  0  0
   -0.5994    2.8946    5.0968 H   0  0  0  0  0  0  0  0  0  0  0  0
    0.6644    4.4318    6.5438 H   0  0  0  0  0  0  0  0  0  0  0  0
    1.9051    5.4911    5.8580 H   0  0  0  0  0  0  0  0  0  0  0  0
    0.1282    6.8524    4.7545 H   0  0  0  0  0  0  0  0  0  0  0  0
   -0.1098    6.7938    6.5045 H   0  0  0  0  0  0  0  0  0  0  0  0
   -1.1081    5.7981    5.4395 H   0  0  0  0  0  0  0  0  0  0  0  0
    2.4152    5.4265    3.4568 H   0  0  0  0  0  0  0  0  0  0  0  0
    2.3616    4.1406    1.3714 H   0  0  0  0  0  0  0  0  0  0  0  0
   -3.2289    0.3422   -0.5693 H   0  0  0  0  0  0  0  0  0  0  0  0
   -4.9147   -4.1318    0.6008 H   0  0  0  0  0  0  0  0  0  0  0  0
   -6.7402   -4.2174    2.2356 H   0  0  0  0  0  0  0  0  0  0  0  0
   -6.9811   -2.0062    5.1792 H   0  0  0  0  0  0  0  0  0  0  0  0
   -7.5748   -3.4987    4.4369 H   0  0  0  0  0  0  0  0  0  0  0  0
   -8.2198   -0.6693    3.4742 H   0  0  0  0  0  0  0  0  0  0  0  0
   -9.3150   -1.7262    4.3717 H   0  0  0  0  0  0  0  0  0  0  0  0
   -8.8107   -2.1571    2.7341 H   0  0  0  0  0  0  0  0  0  0  0  0
   -5.2735   -0.6516    4.0580 H   0  0  0  0  0  0  0  0  0  0  0  0
   -3.4422   -0.5687    2.4365 H   0  0  0  0  0  0  0  0  0  0  0  0
   -5.1673   -1.4258   -0.7450 H   0  0  0  0  0  0  0  0  0  0  0  0
   -5.9357   -1.7178   -3.0542 H   0  0  0  0  0  0  0  0  0  0  0  0
   -5.3461   -2.2873   -5.3751 H   0  0  0  0  0  0  0  0  0  0  0  0
   -3.9355   -3.2985   -5.7201 H   0  0  0  0  0  0  0  0  0  0  0  0
   -6.0430   -4.5629   -6.0931 H   0  0  0  0  0  0  0  0  0  0  0  0
   -5.1231   -5.2747   -4.7629 H   0  0  0  0  0  0  0  0  0  0  0  0
   -6.5284   -4.2667   -4.4201 H   0  0  0  0  0  0  0  0  0  0  0  0
   -2.4918   -4.0839   -3.9040 H   0  0  0  0  0  0  0  0  0  0  0  0
   -1.7062   -3.7738   -1.6072 H   0  0  0  0  0  0  0  0  0  0  0  0
    1.1246   -0.6462    1.7199 H   0  0  0  0  0  0  0  0  0  0  0  0
    0.3422   -7.1284    2.0139 H   0  0  0  0  0  0  0  0  0  0  0  0
    0.2825    7.7909   -3.5332 H   0  0  0  0  0  0  0  0  0  0  0  0
    6.6673    7.8807   -2.5284 H   0  0  0  0  0  0  0  0  0  0  0  0
    5.6586    6.7455   -1.5863 H   0  0  0  0  0  0  0  0  0  0  0  0
    6.9220    8.2669   -0.0795 H   0  0  0  0  0  0  0  0  0  0  0  0
    6.1857    9.6704   -0.8581 H   0  0  0  0  0  0  0  0  0  0  0  0
    5.1814    8.5382    0.0659 H   0  0  0  0  0  0  0  0  0  0  0  0
    4.3930   11.4816   -4.7103 H   0  0  0  0  0  0  0  0  0  0  0  0
    2.6729   11.2113   -5.1133 H   0  0  0  0  0  0  0  0  0  0  0  0
    4.0884   11.0720   -7.1520 H   0  0  0  0  0  0  0  0  0  0  0  0
    5.0438    9.7813   -6.4178 H   0  0  0  0  0  0  0  0  0  0  0  0
    3.3342    9.5125   -6.8022 H   0  0  0  0  0  0  0  0  0  0  0  0
   -2.9653   -8.7747    0.5829 H   0  0  0  0  0  0  0  0  0  0  0  0
    2.1982  -12.3896    2.1540 H   0  0  0  0  0  0  0  0  0  0  0  0
    2.2370  -10.6528    2.5671 H   0  0  0  0  0  0  0  0  0  0  0  0
    2.8260  -11.8325   -0.1945 H   0  0  0  0  0  0  0  0  0  0  0  0
    2.8510  -10.1088    0.2189 H   0  0  0  0  0  0  0  0  0  0  0  0
    4.0297  -11.2118    0.9386 H   0  0  0  0  0  0  0  0  0  0  0  0
   -1.6700  -14.2183    0.5355 H   0  0  0  0  0  0  0  0  0  0  0  0
   -3.1001  -13.1684    0.3201 H   0  0  0  0  0  0  0  0  0  0  0  0
   -2.5047  -14.3019   -1.8125 H   0  0  0  0  0  0  0  0  0  0  0  0
   -2.3091  -12.5508   -1.9512 H   0  0  0  0  0  0  0  0  0  0  0  0
   -0.8886  -13.5931   -1.7522 H   0  0  0  0  0  0  0  0  0  0  0  0
  1  2  2  0  0  0  0
  2  3  1  0  0  0  0
  3  4  2  0  0  0  0
  4  5  1  0  0  0  0
  1  5  1  0  0  0  0
  4  6  1  0  0  0  0
  6  7  1  0  0  0  0
  7  8  1  0  0  0  0
  8  9  2  0  0  0  0
  9 10  1  0  0  0  0
 10 11  2  0  0  0  0
 11 12  1  0  0  0  0
 12 13  1  0  0  0  0
 11 14  1  0  0  0  0
 14 15  2  0  0  0  0
  8 15  1  0  0  0  0
  7 16  1  0  0  0  0
 16 17  2  0  0  0  0
 17 18  1  0  0  0  0
 18 19  2  0  0  0  0
 19 20  1  0  0  0  0
 20 21  1  0  0  0  0
 19 22  1  0  0  0  0
 22 23  2  0  0  0  0
 16 23  1  0  0  0  0
  7 24  1  0  0  0  0
 24 25  2  0  0  0  0
 25 26  1  0  0  0  0
  6 26  2  0  0  0  0
 26 27  1  0  0  0  0
  3 27  1  0  0  0  0
 25 28  1  0  0  0  0
 28 29  2  0  0  0  0
 29 30  1  0  0  0  0
 30 31  1  0  0  0  0
 31 32  2  0  0  0  0
 32 33  1  0  0  0  0
 33 34  2  0  0  0  0
 34 35  1  0  0  0  0
 35 36  1  0  0  0  0
 34 37  1  0  0  0  0
 37 38  2  0  0  0  0
 31 38  1  0  0  0  0
 30 39  1  0  0  0  0
 39 40  2  0  0  0  0
 40 41  1  0  0  0  0
 41 42  2  0  0  0  0
 42 43  1  0  0  0  0
 43 44  1  0  0  0  0
 42 45  1  0  0  0  0
 45 46  2  0  0  0  0
 39 46  1  0  0  0  0
 30 47  1  0  0  0  0
 47 48  2  0  0  0  0
 48 49  1  0  0  0  0
 29 49  1  0  0  0  0
 49 50  2  0  0  0  0
 24 50  1  0  0  0  0
 48 51  1  0  0  0  0
 51 52  1  0  0  0  0
 52 53  2  0  0  0  0
 47 53  1  0  0  0  0
 53 54  1  0  0  0  0
 54 55  1  0  0  0  0
 55 56  2  0  0  0  0
 52 56  1  0  0  0  0
  1 57  1  0  0  0  0
 57 58  2  0  0  0  0
 58 59  1  0  0  0  0
 59 60  1  0  0  0  0
 60 61  1  0  0  0  0
 61 62  1  0  0  0  0
 62 63  1  0  0  0  0
 63 58  1  0  0  0  0
 63 64  2  0  0  0  0
 59 65  2  0  0  0  0
 60 66  1  0  0  0  0
 66 67  1  0  0  0  0
 61 68  2  0  0  0  0
 62 69  1  0  0  0  0
 69 70  1  0  0  0  0
 71 72  2  0  0  0  0
 72 73  1  0  0  0  0
 73 74  1  0  0  0  0
 74 75  1  0  0  0  0
 75 76  1  0  0  0  0
 76 77  1  0  0  0  0
 77 72  1  0  0  0  0
 77 78  2  0  0  0  0
 73 79  2  0  0  0  0
 74 80  1  0  0  0  0
 80 81  1  0  0  0  0
 75 82  2  0  0  0  0
 76 83  1  0  0  0  0
 83 84  1  0  0  0  0
 71 55  1  0  0  0  0
  2 85  1  0  0  0  0
  9 86  1  0  0  0  0
 10 87  1  0  0  0  0
 12 88  1  0  0  0  0
 12 89  1  0  0  0  0
 13 90  1  0  0  0  0
 13 91  1  0  0  0  0
 13 92  1  0  0  0  0
 14 93  1  0  0  0  0
 15 94  1  0  0  0  0
 17 95  1  0  0  0  0
 18 96  1  0  0  0  0
 20 97  1  0  0  0  0
 20 98  1  0  0  0  0
 21 99  1  0  0  0  0
 21100  1  0  0  0  0
 21101  1  0  0  0  0
 22102  1  0  0  0  0
 23103  1  0  0  0  0
 28104  1  0  0  0  0
 32105  1  0  0  0  0
 33106  1  0  0  0  0
 35107  1  0  0  0  0
 35108  1  0  0  0  0
 36109  1  0  0  0  0
 36110  1  0  0  0  0
 36111  1  0  0  0  0
 37112  1  0  0  0  0
 38113  1  0  0  0  0
 40114  1  0  0  0  0
 41115  1  0  0  0  0
 43116  1  0  0  0  0
 43117  1  0  0  0  0
 44118  1  0  0  0  0
 44119  1  0  0  0  0
 44120  1  0  0  0  0
 45121  1  0  0  0  0
 46122  1  0  0  0  0
 50123  1  0  0  0  0
 56124  1  0  0  0  0
 57125  1  0  0  0  0
 66126  1  0  0  0  0
 66127  1  0  0  0  0
 67128  1  0  0  0  0
 67129  1  0  0  0  0
 67130  1  0  0  0  0
 69131  1  0  0  0  0
 69132  1  0  0  0  0
 70133  1  0  0  0  0
 70134  1  0  0  0  0
 70135  1  0  0  0  0
 71136  1  0  0  0  0
 80137  1  0  0  0  0
 80138  1  0  0  0  0
 81139  1  0  0  0  0
 81140  1  0  0  0  0
 81141  1  0  0  0  0
 83142  1  0  0  0  0
 83143  1  0  0  0  0
 84144  1  0  0  0  0
 84145  1  0  0  0  0
 84146  1  0  0  0  0
M  END
