IDTTP-4F.sdf
  xtb     12202113483D
 energy: -230.819181589344 gnorm: 0.000491787659 xtb: 6.4.1 (unknown)
124139  0     0  0            999 V2000
    0.8617    1.6240   -0.4802 C   0  0  0  0  0  0  0  0  0  0  0  0
    1.4621    1.6911    0.7684 C   0  0  0  0  0  0  0  0  0  0  0  0
    0.8482    0.2832   -0.9715 C   0  0  0  0  0  0  0  0  0  0  0  0
    1.4906   -0.5210   -0.0016 C   0  0  0  0  0  0  0  0  0  0  0  0
    2.0131    0.3338    1.1493 C   0  0  0  0  0  0  0  0  0  0  0  0
    1.4764   -0.2270    2.4484 C   0  0  0  0  0  0  0  0  0  0  0  0
    3.5346    0.4349    1.0933 C   0  0  0  0  0  0  0  0  0  0  0  0
    0.2883   -0.2548   -2.1271 C   0  0  0  0  0  0  0  0  0  0  0  0
    0.3449   -1.6209   -2.2736 C   0  0  0  0  0  0  0  0  0  0  0  0
    0.9418   -2.4302   -1.2785 C   0  0  0  0  0  0  0  0  0  0  0  0
    1.5436   -1.8863   -0.1458 C   0  0  0  0  0  0  0  0  0  0  0  0
   -0.2396   -2.4718   -3.3877 C   0  0  0  0  0  0  0  0  0  0  0  0
   -0.0037   -3.8533   -2.8375 C   0  0  0  0  0  0  0  0  0  0  0  0
    0.7214   -3.7901   -1.6572 C   0  0  0  0  0  0  0  0  0  0  0  0
    0.5329   -2.3840   -4.6953 C   0  0  0  0  0  0  0  0  0  0  0  0
   -1.7008   -2.1151   -3.5778 C   0  0  0  0  0  0  0  0  0  0  0  0
   -0.3054   -5.1657   -3.1855 C   0  0  0  0  0  0  0  0  0  0  0  0
    0.1877   -6.0974   -2.2440 C   0  0  0  0  0  0  0  0  0  0  0  0
    1.0598   -5.3292   -0.9460 S   0  0  0  0  0  0  0  0  0  0  0  0
    0.1530    8.3960    2.9207 C   0  0  0  0  0  0  0  0  0  0  0  0
    0.2689    9.0226    4.1404 C   0  0  0  0  0  0  0  0  0  0  0  0
   -0.1923   10.3788    4.3819 C   0  0  0  0  0  0  0  0  0  0  0  0
   -0.1118   10.6277    5.8217 C   0  0  0  0  0  0  0  0  0  0  0  0
    0.4542    9.5016    6.4376 C   0  0  0  0  0  0  0  0  0  0  0  0
    0.7484    8.4685    5.4194 C   0  0  0  0  0  0  0  0  0  0  0  0
   -0.4846   11.7188    6.5914 C   0  0  0  0  0  0  0  0  0  0  0  0
   -0.2773   11.6509    7.9612 C   0  0  0  0  0  0  0  0  0  0  0  0
    0.2919   10.5286    8.5628 C   0  0  0  0  0  0  0  0  0  0  0  0
    0.6665    9.4346    7.8003 C   0  0  0  0  0  0  0  0  0  0  0  0
    1.2769    7.3986    5.6508 O   0  0  0  0  0  0  0  0  0  0  0  0
   -0.5943   11.3057    3.4557 C   0  0  0  0  0  0  0  0  0  0  0  0
   -1.0269   12.6094    3.7816 C   0  0  0  0  0  0  0  0  0  0  0  0
   -0.6155   11.1387    2.0539 C   0  0  0  0  0  0  0  0  0  0  0  0
   -0.6530   11.1103    0.9063 N   0  0  0  0  0  0  0  0  0  0  0  0
   -1.3927   13.6801    3.9741 N   0  0  0  0  0  0  0  0  0  0  0  0
    0.4747   10.5070    9.8893 F   0  0  0  0  0  0  0  0  0  0  0  0
   -0.6366   12.6912    8.7222 F   0  0  0  0  0  0  0  0  0  0  0  0
   -2.0521   -1.0807   -4.4366 C   0  0  0  0  0  0  0  0  0  0  0  0
   -3.3779   -0.7197   -4.5914 C   0  0  0  0  0  0  0  0  0  0  0  0
   -4.3674   -1.3860   -3.8887 C   0  0  0  0  0  0  0  0  0  0  0  0
   -4.0221   -2.4093   -3.0239 C   0  0  0  0  0  0  0  0  0  0  0  0
   -2.6952   -2.7687   -2.8640 C   0  0  0  0  0  0  0  0  0  0  0  0
   -0.0012   -2.9903   -5.8267 C   0  0  0  0  0  0  0  0  0  0  0  0
    0.6936   -2.9775   -7.0214 C   0  0  0  0  0  0  0  0  0  0  0  0
    1.9315   -2.3610   -7.0986 C   0  0  0  0  0  0  0  0  0  0  0  0
    2.4704   -1.7632   -5.9734 C   0  0  0  0  0  0  0  0  0  0  0  0
    1.7781   -1.7782   -4.7741 C   0  0  0  0  0  0  0  0  0  0  0  0
    2.0700   -1.3465    3.0238 C   0  0  0  0  0  0  0  0  0  0  0  0
    1.5588   -1.8953    4.1855 C   0  0  0  0  0  0  0  0  0  0  0  0
    0.4438   -1.3379    4.7882 C   0  0  0  0  0  0  0  0  0  0  0  0
   -0.1617   -0.2343    4.2144 C   0  0  0  0  0  0  0  0  0  0  0  0
    0.3467    0.3137    3.0492 C   0  0  0  0  0  0  0  0  0  0  0  0
    4.1608    0.5205   -0.1459 C   0  0  0  0  0  0  0  0  0  0  0  0
    5.5330    0.6623   -0.2363 C   0  0  0  0  0  0  0  0  0  0  0  0
    6.3040    0.7277    0.9119 C   0  0  0  0  0  0  0  0  0  0  0  0
    5.6886    0.6544    2.1481 C   0  0  0  0  0  0  0  0  0  0  0  0
    4.3137    0.5138    2.2395 C   0  0  0  0  0  0  0  0  0  0  0  0
    1.3835    2.9853    1.2942 C   0  0  0  0  0  0  0  0  0  0  0  0
    0.7111    3.8699    0.4039 C   0  0  0  0  0  0  0  0  0  0  0  0
    0.2063    3.1125   -1.0709 S   0  0  0  0  0  0  0  0  0  0  0  0
    1.6780    3.6461    2.4543 N   0  0  0  0  0  0  0  0  0  0  0  0
    1.2179    4.9311    2.3230 C   0  0  0  0  0  0  0  0  0  0  0  0
    0.6082    5.0961    1.0484 C   0  0  0  0  0  0  0  0  0  0  0  0
    2.3962    3.1562    3.6034 C   0  0  0  0  0  0  0  0  0  0  0  0
    3.8559    3.6012    3.5774 C   0  0  0  0  0  0  0  0  0  0  0  0
    1.1536    6.0554    3.1281 C   0  0  0  0  0  0  0  0  0  0  0  0
    0.4937    7.1052    2.4975 C   0  0  0  0  0  0  0  0  0  0  0  0
   -0.0259    6.6760    0.8510 S   0  0  0  0  0  0  0  0  0  0  0  0
   -1.5197   -8.6261   -4.3006 C   0  0  0  0  0  0  0  0  0  0  0  0
   -1.6564   -9.9399   -3.9272 C   0  0  0  0  0  0  0  0  0  0  0  0
   -2.3473  -10.9303   -4.7365 C   0  0  0  0  0  0  0  0  0  0  0  0
   -2.5291  -12.1271   -3.9158 C   0  0  0  0  0  0  0  0  0  0  0  0
   -1.8895  -11.9253   -2.6832 C   0  0  0  0  0  0  0  0  0  0  0  0
   -1.2818  -10.5760   -2.6478 C   0  0  0  0  0  0  0  0  0  0  0  0
   -0.6270  -10.1299   -1.7292 O   0  0  0  0  0  0  0  0  0  0  0  0
   -2.7211  -10.8198   -6.0500 C   0  0  0  0  0  0  0  0  0  0  0  0
   -2.4770   -9.7159   -6.8958 C   0  0  0  0  0  0  0  0  0  0  0  0
   -2.3067   -8.8767   -7.6611 N   0  0  0  0  0  0  0  0  0  0  0  0
   -3.3860  -11.8375   -6.7681 C   0  0  0  0  0  0  0  0  0  0  0  0
   -3.9319  -12.6193   -7.4065 N   0  0  0  0  0  0  0  0  0  0  0  0
   -3.1870  -13.3222   -4.1634 C   0  0  0  0  0  0  0  0  0  0  0  0
   -3.1836  -14.2858   -3.1660 C   0  0  0  0  0  0  0  0  0  0  0  0
   -2.5384  -14.0780   -1.9464 C   0  0  0  0  0  0  0  0  0  0  0  0
   -1.8797  -12.8863   -1.6917 C   0  0  0  0  0  0  0  0  0  0  0  0
   -3.8194  -15.4427   -3.3820 F   0  0  0  0  0  0  0  0  0  0  0  0
   -2.5598  -15.0373   -1.0132 F   0  0  0  0  0  0  0  0  0  0  0  0
   -1.1855   -5.9543   -4.4293 S   0  0  0  0  0  0  0  0  0  0  0  0
   -0.9215   -7.5299   -3.6594 C   0  0  0  0  0  0  0  0  0  0  0  0
   -0.1523   -7.4132   -2.5090 C   0  0  0  0  0  0  0  0  0  0  0  0
   -0.1889    0.3804   -2.8570 H   0  0  0  0  0  0  0  0  0  0  0  0
    1.9995   -2.5292    0.5900 H   0  0  0  0  0  0  0  0  0  0  0  0
   -0.3238    8.9788    2.1414 H   0  0  0  0  0  0  0  0  0  0  0  0
   -0.9296   12.6090    6.1789 H   0  0  0  0  0  0  0  0  0  0  0  0
    1.1052    8.5631    8.2593 H   0  0  0  0  0  0  0  0  0  0  0  0
   -1.2852   -0.5648   -4.9962 H   0  0  0  0  0  0  0  0  0  0  0  0
   -3.6383    0.0833   -5.2648 H   0  0  0  0  0  0  0  0  0  0  0  0
   -5.4029   -1.1075   -4.0140 H   0  0  0  0  0  0  0  0  0  0  0  0
   -4.7873   -2.9318   -2.4692 H   0  0  0  0  0  0  0  0  0  0  0  0
   -2.4359   -3.5633   -2.1792 H   0  0  0  0  0  0  0  0  0  0  0  0
   -0.9687   -3.4681   -5.7704 H   0  0  0  0  0  0  0  0  0  0  0  0
    0.2673   -3.4519   -7.8924 H   0  0  0  0  0  0  0  0  0  0  0  0
    2.4743   -2.3490   -8.0317 H   0  0  0  0  0  0  0  0  0  0  0  0
    3.4366   -1.2833   -6.0248 H   0  0  0  0  0  0  0  0  0  0  0  0
    2.2106   -1.3145   -3.8996 H   0  0  0  0  0  0  0  0  0  0  0  0
    2.9462   -1.7843    2.5683 H   0  0  0  0  0  0  0  0  0  0  0  0
    2.0339   -2.7620    4.6206 H   0  0  0  0  0  0  0  0  0  0  0  0
    0.0475   -1.7645    5.6971 H   0  0  0  0  0  0  0  0  0  0  0  0
   -1.0364    0.2036    4.6716 H   0  0  0  0  0  0  0  0  0  0  0  0
   -0.1447    1.1674    2.6058 H   0  0  0  0  0  0  0  0  0  0  0  0
    3.5705    0.4759   -1.0493 H   0  0  0  0  0  0  0  0  0  0  0  0
    6.0008    0.7230   -1.2075 H   0  0  0  0  0  0  0  0  0  0  0  0
    7.3756    0.8375    0.8429 H   0  0  0  0  0  0  0  0  0  0  0  0
    6.2774    0.7099    3.0517 H   0  0  0  0  0  0  0  0  0  0  0  0
    3.8579    0.4564    3.2164 H   0  0  0  0  0  0  0  0  0  0  0  0
    2.3225    2.0677    3.6099 H   0  0  0  0  0  0  0  0  0  0  0  0
    1.9051    3.5451    4.5004 H   0  0  0  0  0  0  0  0  0  0  0  0
    4.3500    3.2306    2.6819 H   0  0  0  0  0  0  0  0  0  0  0  0
    4.3756    3.2131    4.4485 H   0  0  0  0  0  0  0  0  0  0  0  0
    3.9192    4.6864    3.5897 H   0  0  0  0  0  0  0  0  0  0  0  0
    1.5398    6.1398    4.1265 H   0  0  0  0  0  0  0  0  0  0  0  0
   -1.9881   -8.3547   -5.2397 H   0  0  0  0  0  0  0  0  0  0  0  0
   -3.7024  -13.5330   -5.0858 H   0  0  0  0  0  0  0  0  0  0  0  0
   -1.3809  -12.7186   -0.7505 H   0  0  0  0  0  0  0  0  0  0  0  0
    0.1218   -8.2557   -1.9020 H   0  0  0  0  0  0  0  0  0  0  0  0
  1  3  1  0  0  0  0
  3  4  1  0  0  0  0
  4  5  1  0  0  0  0
  5  2  1  0  0  0  0
  5  6  1  0  0  0  0
  5  7  1  0  0  0  0
  3  8  2  0  0  0  0
  8  9  1  0  0  0  0
  9 10  2  0  0  0  0
 10 11  1  0  0  0  0
 11  4  2  0  0  0  0
  9 12  1  0  0  0  0
 12 13  1  0  0  0  0
 13 14  2  0  0  0  0
 14 10  1  0  0  0  0
 12 15  1  0  0  0  0
 12 16  1  0  0  0  0
 13 17  1  0  0  0  0
 17 18  2  0  0  0  0
 18 19  1  0  0  0  0
 19 14  1  0  0  0  0
 20 21  2  0  0  0  0
 21 22  1  0  0  0  0
 22 23  1  0  0  0  0
 23 24  2  0  0  0  0
 24 25  1  0  0  0  0
 25 21  1  0  0  0  0
 23 26  1  0  0  0  0
 26 27  2  0  0  0  0
 27 28  1  0  0  0  0
 28 29  2  0  0  0  0
 29 24  1  0  0  0  0
 25 30  2  0  0  0  0
 22 31  2  0  0  0  0
 31 32  1  0  0  0  0
 31 33  1  0  0  0  0
 33 34  3  0  0  0  0
 32 35  3  0  0  0  0
 28 36  1  0  0  0  0
 27 37  1  0  0  0  0
 16 38  2  0  0  0  0
 38 39  1  0  0  0  0
 39 40  2  0  0  0  0
 40 41  1  0  0  0  0
 41 42  2  0  0  0  0
 42 16  1  0  0  0  0
 15 43  2  0  0  0  0
 43 44  1  0  0  0  0
 44 45  2  0  0  0  0
 45 46  1  0  0  0  0
 46 47  2  0  0  0  0
 47 15  1  0  0  0  0
  6 48  2  0  0  0  0
 48 49  1  0  0  0  0
 49 50  2  0  0  0  0
 50 51  1  0  0  0  0
 51 52  2  0  0  0  0
 52  6  1  0  0  0  0
  7 53  2  0  0  0  0
 53 54  1  0  0  0  0
 54 55  2  0  0  0  0
 55 56  1  0  0  0  0
 56 57  2  0  0  0  0
 57  7  1  0  0  0  0
  1  2  2  0  0  0  0
  2 58  1  0  0  0  0
 58 59  2  0  0  0  0
 59 60  1  0  0  0  0
 60  1  1  0  0  0  0
 58 61  1  0  0  0  0
 61 62  1  0  0  0  0
 62 63  2  0  0  0  0
 63 59  1  0  0  0  0
 61 64  1  0  0  0  0
 64 65  1  0  0  0  0
 62 66  1  0  0  0  0
 66 67  2  0  0  0  0
 67 68  1  0  0  0  0
 68 63  1  0  0  0  0
 67 20  1  0  0  0  0
 69 70  2  0  0  0  0
 70 71  1  0  0  0  0
 71 72  1  0  0  0  0
 72 73  2  0  0  0  0
 73 74  1  0  0  0  0
 74 70  1  0  0  0  0
 74 75  2  0  0  0  0
 71 76  2  0  0  0  0
 76 77  1  0  0  0  0
 77 78  3  0  0  0  0
 76 79  1  0  0  0  0
 79 80  3  0  0  0  0
 72 81  1  0  0  0  0
 81 82  2  0  0  0  0
 82 83  1  0  0  0  0
 83 84  2  0  0  0  0
 84 73  1  0  0  0  0
 82 85  1  0  0  0  0
 83 86  1  0  0  0  0
 17 87  1  0  0  0  0
 87 88  1  0  0  0  0
 88 89  2  0  0  0  0
 89 18  1  0  0  0  0
 69 88  1  0  0  0  0
  8 90  1  0  0  0  0
 11 91  1  0  0  0  0
 20 92  1  0  0  0  0
 26 93  1  0  0  0  0
 29 94  1  0  0  0  0
 38 95  1  0  0  0  0
 39 96  1  0  0  0  0
 40 97  1  0  0  0  0
 41 98  1  0  0  0  0
 42 99  1  0  0  0  0
 43100  1  0  0  0  0
 44101  1  0  0  0  0
 45102  1  0  0  0  0
 46103  1  0  0  0  0
 47104  1  0  0  0  0
 48105  1  0  0  0  0
 49106  1  0  0  0  0
 50107  1  0  0  0  0
 51108  1  0  0  0  0
 52109  1  0  0  0  0
 53110  1  0  0  0  0
 54111  1  0  0  0  0
 55112  1  0  0  0  0
 56113  1  0  0  0  0
 57114  1  0  0  0  0
 64115  1  0  0  0  0
 64116  1  0  0  0  0
 65117  1  0  0  0  0
 65118  1  0  0  0  0
 65119  1  0  0  0  0
 66120  1  0  0  0  0
 69121  1  0  0  0  0
 81122  1  0  0  0  0
 84123  1  0  0  0  0
 89124  1  0  0  0  0
M  END
