IDTT2OT-4F.sdf
  xtb     12202113463D
 energy: -309.355003272102 gnorm: 0.000458807069 xtb: 6.4.1 (unknown)
180196  0     0  0            999 V2000
    2.5920    8.0621   -1.1744 C   0  0  0  0  0  0  0  0  0  0  0  0
    2.0465    6.7663   -1.0861 C   0  0  0  0  0  0  0  0  0  0  0  0
    1.1749    6.1656   -1.9785 C   0  0  0  0  0  0  0  0  0  0  0  0
    0.8546    4.8704   -1.5909 C   0  0  0  0  0  0  0  0  0  0  0  0
    1.4807    4.4635   -0.3968 C   0  0  0  0  0  0  0  0  0  0  0  0
    2.4702    5.7152    0.2546 S   0  0  0  0  0  0  0  0  0  0  0  0
    1.1636    3.1509   -0.0562 C   0  0  0  0  0  0  0  0  0  0  0  0
    1.4819    2.1863    1.0546 C   0  0  0  0  0  0  0  0  0  0  0  0
    0.9621    2.8001    2.3426 C   0  0  0  0  0  0  0  0  0  0  0  0
   -0.2657    2.4492    2.8832 C   0  0  0  0  0  0  0  0  0  0  0  0
   -0.7292    3.0735    4.0277 C   0  0  0  0  0  0  0  0  0  0  0  0
    0.0122    4.0673    4.6510 C   0  0  0  0  0  0  0  0  0  0  0  0
   -0.4748    4.7124    5.9165 C   0  0  0  0  0  0  0  0  0  0  0  0
    0.0270    3.9398    7.1381 C   0  0  0  0  0  0  0  0  0  0  0  0
    1.2378    4.4199    4.0993 C   0  0  0  0  0  0  0  0  0  0  0  0
    1.7073    3.7989    2.9588 C   0  0  0  0  0  0  0  0  0  0  0  0
    2.9528    1.8334    1.1579 C   0  0  0  0  0  0  0  0  0  0  0  0
    3.4546    1.2900    2.3339 C   0  0  0  0  0  0  0  0  0  0  0  0
    4.7849    0.9290    2.4279 C   0  0  0  0  0  0  0  0  0  0  0  0
    5.6474    1.0954    1.3519 C   0  0  0  0  0  0  0  0  0  0  0  0
    7.1037    0.7509    1.4744 C   0  0  0  0  0  0  0  0  0  0  0  0
    7.8960    1.9549    1.9879 C   0  0  0  0  0  0  0  0  0  0  0  0
    5.1388    1.6315    0.1769 C   0  0  0  0  0  0  0  0  0  0  0  0
    3.8074    1.9908    0.0764 C   0  0  0  0  0  0  0  0  0  0  0  0
    0.7094    0.9603    0.5965 C   0  0  0  0  0  0  0  0  0  0  0  0
    0.0047    1.2254   -0.6022 C   0  0  0  0  0  0  0  0  0  0  0  0
    0.2970    2.5751   -0.9691 C   0  0  0  0  0  0  0  0  0  0  0  0
   -0.1466    3.6218   -2.2765 S   0  0  0  0  0  0  0  0  0  0  0  0
   -0.7818    0.2579   -1.2223 C   0  0  0  0  0  0  0  0  0  0  0  0
   -0.8394   -0.9808   -0.6286 C   0  0  0  0  0  0  0  0  0  0  0  0
   -1.5950   -2.2122   -1.0993 C   0  0  0  0  0  0  0  0  0  0  0  0
   -3.1054   -2.0913   -0.9992 C   0  0  0  0  0  0  0  0  0  0  0  0
   -3.8964   -3.0767   -1.5786 C   0  0  0  0  0  0  0  0  0  0  0  0
   -5.2719   -3.0263   -1.4683 C   0  0  0  0  0  0  0  0  0  0  0  0
   -5.8943   -1.9947   -0.7764 C   0  0  0  0  0  0  0  0  0  0  0  0
   -7.3876   -1.9635   -0.6222 C   0  0  0  0  0  0  0  0  0  0  0  0
   -7.8090   -2.6987    0.6518 C   0  0  0  0  0  0  0  0  0  0  0  0
   -5.0985   -1.0205   -0.1899 C   0  0  0  0  0  0  0  0  0  0  0  0
   -3.7196   -1.0668   -0.2947 C   0  0  0  0  0  0  0  0  0  0  0  0
   -1.1551   -2.5470   -2.5113 C   0  0  0  0  0  0  0  0  0  0  0  0
   -0.0770   -3.3872   -2.7474 C   0  0  0  0  0  0  0  0  0  0  0  0
    0.3318   -3.6570   -4.0408 C   0  0  0  0  0  0  0  0  0  0  0  0
   -0.3196   -3.0920   -5.1281 C   0  0  0  0  0  0  0  0  0  0  0  0
    0.1446   -3.3530   -6.5320 C   0  0  0  0  0  0  0  0  0  0  0  0
    1.0684   -2.2305   -7.0087 C   0  0  0  0  0  0  0  0  0  0  0  0
   -1.3885   -2.2382   -4.8853 C   0  0  0  0  0  0  0  0  0  0  0  0
   -1.8014   -1.9662   -3.5956 C   0  0  0  0  0  0  0  0  0  0  0  0
   -1.1583   -3.2206   -0.0706 C   0  0  0  0  0  0  0  0  0  0  0  0
   -0.3286   -2.6320    0.8681 C   0  0  0  0  0  0  0  0  0  0  0  0
   -0.1041   -1.2573    0.5489 C   0  0  0  0  0  0  0  0  0  0  0  0
    0.6722   -0.2860    1.1760 C   0  0  0  0  0  0  0  0  0  0  0  0
    0.2072   -3.7135    2.1113 S   0  0  0  0  0  0  0  0  0  0  0  0
   -0.7020   -4.9952    1.3613 C   0  0  0  0  0  0  0  0  0  0  0  0
   -1.3840   -4.5667    0.2061 C   0  0  0  0  0  0  0  0  0  0  0  0
   -2.2717   -5.8550   -0.5165 S   0  0  0  0  0  0  0  0  0  0  0  0
   -1.7159   -6.9566    0.7327 C   0  0  0  0  0  0  0  0  0  0  0  0
   -0.8869   -6.3406    1.6550 C   0  0  0  0  0  0  0  0  0  0  0  0
   -2.8547  -11.9673    1.7034 C   0  0  0  0  0  0  0  0  0  0  0  0
   -2.3436  -12.5982    2.8189 C   0  0  0  0  0  0  0  0  0  0  0  0
   -2.6806  -13.9311    3.2606 C   0  0  0  0  0  0  0  0  0  0  0  0
   -3.4669  -14.8564    2.6192 C   0  0  0  0  0  0  0  0  0  0  0  0
   -4.0763  -14.6884    1.3597 C   0  0  0  0  0  0  0  0  0  0  0  0
   -4.5845  -14.6473    0.3295 N   0  0  0  0  0  0  0  0  0  0  0  0
   -3.7501  -16.1410    3.1279 C   0  0  0  0  0  0  0  0  0  0  0  0
   -4.0233  -17.1976    3.4844 N   0  0  0  0  0  0  0  0  0  0  0  0
   -1.9811  -14.1614    4.5277 C   0  0  0  0  0  0  0  0  0  0  0  0
   -1.9739  -15.2466    5.3887 C   0  0  0  0  0  0  0  0  0  0  0  0
   -1.1869  -15.1682    6.5291 C   0  0  0  0  0  0  0  0  0  0  0  0
   -0.4185  -14.0406    6.8139 C   0  0  0  0  0  0  0  0  0  0  0  0
   -0.4202  -12.9506    5.9575 C   0  0  0  0  0  0  0  0  0  0  0  0
   -1.2055  -13.0286    4.8256 C   0  0  0  0  0  0  0  0  0  0  0  0
   -1.3966  -12.0149    3.7652 C   0  0  0  0  0  0  0  0  0  0  0  0
   -0.8645  -10.9195    3.7173 O   0  0  0  0  0  0  0  0  0  0  0  0
    2.3755   11.4577   -4.6092 C   0  0  0  0  0  0  0  0  0  0  0  0
    1.7169   10.4420   -4.4674 O   0  0  0  0  0  0  0  0  0  0  0  0
    2.3666   12.3334   -5.8011 C   0  0  0  0  0  0  0  0  0  0  0  0
    1.6610   12.1770   -6.9764 C   0  0  0  0  0  0  0  0  0  0  0  0
    1.8345   13.1372   -7.9610 C   0  0  0  0  0  0  0  0  0  0  0  0
    2.6929   14.2162   -7.7564 C   0  0  0  0  0  0  0  0  0  0  0  0
    3.3987   14.3738   -6.5718 C   0  0  0  0  0  0  0  0  0  0  0  0
    3.2309   13.4182   -5.5829 C   0  0  0  0  0  0  0  0  0  0  0  0
    3.8126   13.2916   -4.2434 C   0  0  0  0  0  0  0  0  0  0  0  0
    4.6518   14.2160   -3.6702 C   0  0  0  0  0  0  0  0  0  0  0  0
    5.0897   15.3943   -4.3097 C   0  0  0  0  0  0  0  0  0  0  0  0
    5.4890   16.3682   -4.7682 N   0  0  0  0  0  0  0  0  0  0  0  0
    5.1774   14.1522   -2.3663 C   0  0  0  0  0  0  0  0  0  0  0  0
    5.6287   14.1876   -1.3089 N   0  0  0  0  0  0  0  0  0  0  0  0
    3.3115   12.0657   -3.6674 C   0  0  0  0  0  0  0  0  0  0  0  0
    3.6737   11.5461   -2.4389 C   0  0  0  0  0  0  0  0  0  0  0  0
   -2.6139  -10.6910    1.1993 C   0  0  0  0  0  0  0  0  0  0  0  0
   -3.2463  -10.2153    0.0229 C   0  0  0  0  0  0  0  0  0  0  0  0
   -3.0024   -8.8623   -0.2202 C   0  0  0  0  0  0  0  0  0  0  0  0
   -2.1368   -8.3006    0.7305 C   0  0  0  0  0  0  0  0  0  0  0  0
   -1.6251   -9.4449    1.9207 S   0  0  0  0  0  0  0  0  0  0  0  0
   -4.0466  -10.9980   -0.7527 O   0  0  0  0  0  0  0  0  0  0  0  0
   -3.4260  -12.0856   -1.4476 C   0  0  0  0  0  0  0  0  0  0  0  0
   -3.0344  -11.6847   -2.8643 C   0  0  0  0  0  0  0  0  0  0  0  0
   -3.4604   -8.0623   -1.2038 O   0  0  0  0  0  0  0  0  0  0  0  0
   -4.6267   -8.4243   -1.9338 C   0  0  0  0  0  0  0  0  0  0  0  0
   -5.2465   -7.1395   -2.4595 C   0  0  0  0  0  0  0  0  0  0  0  0
    3.4355    8.6413   -0.2175 C   0  0  0  0  0  0  0  0  0  0  0  0
    3.8164    9.9441   -0.5584 C   0  0  0  0  0  0  0  0  0  0  0  0
    3.3015   10.3583   -1.8144 C   0  0  0  0  0  0  0  0  0  0  0  0
    2.2642    9.1237   -2.4964 S   0  0  0  0  0  0  0  0  0  0  0  0
    3.7545    7.8899    0.8556 O   0  0  0  0  0  0  0  0  0  0  0  0
    4.6590   10.6590    0.2311 O   0  0  0  0  0  0  0  0  0  0  0  0
    4.5024    8.4311    1.9348 C   0  0  0  0  0  0  0  0  0  0  0  0
    4.6889    7.3103    2.9441 C   0  0  0  0  0  0  0  0  0  0  0  0
    4.2868   11.9533    0.7276 C   0  0  0  0  0  0  0  0  0  0  0  0
    2.7891   12.1618    0.8818 C   0  0  0  0  0  0  0  0  0  0  0  0
   -1.1692  -16.2056    7.3750 F   0  0  0  0  0  0  0  0  0  0  0  0
    2.8448   15.1275   -8.7252 F   0  0  0  0  0  0  0  0  0  0  0  0
    0.3278  -14.0090    7.9258 F   0  0  0  0  0  0  0  0  0  0  0  0
    1.1725   13.0257   -9.1202 F   0  0  0  0  0  0  0  0  0  0  0  0
    0.8095    6.6634   -2.8580 H   0  0  0  0  0  0  0  0  0  0  0  0
   -0.8653    1.6841    2.4122 H   0  0  0  0  0  0  0  0  0  0  0  0
   -1.6864    2.7856    4.4387 H   0  0  0  0  0  0  0  0  0  0  0  0
   -0.1147    5.7419    5.9695 H   0  0  0  0  0  0  0  0  0  0  0  0
   -1.5664    4.7310    5.9264 H   0  0  0  0  0  0  0  0  0  0  0  0
   -0.3324    2.9136    7.1100 H   0  0  0  0  0  0  0  0  0  0  0  0
    1.1144    3.9208    7.1534 H   0  0  0  0  0  0  0  0  0  0  0  0
   -0.3257    4.4064    8.0549 H   0  0  0  0  0  0  0  0  0  0  0  0
    1.8303    5.1926    4.5684 H   0  0  0  0  0  0  0  0  0  0  0  0
    2.6618    4.0862    2.5420 H   0  0  0  0  0  0  0  0  0  0  0  0
    2.8025    1.1600    3.1856 H   0  0  0  0  0  0  0  0  0  0  0  0
    5.1590    0.5094    3.3510 H   0  0  0  0  0  0  0  0  0  0  0  0
    7.2297   -0.0841    2.1665 H   0  0  0  0  0  0  0  0  0  0  0  0
    7.4965    0.4505    0.5010 H   0  0  0  0  0  0  0  0  0  0  0  0
    7.5277    2.2614    2.9645 H   0  0  0  0  0  0  0  0  0  0  0  0
    8.9511    1.7068    2.0764 H   0  0  0  0  0  0  0  0  0  0  0  0
    7.7925    2.7948    1.3043 H   0  0  0  0  0  0  0  0  0  0  0  0
    5.7914    1.7666   -0.6739 H   0  0  0  0  0  0  0  0  0  0  0  0
    3.4341    2.3972   -0.8522 H   0  0  0  0  0  0  0  0  0  0  0  0
   -1.3160    0.4801   -2.1332 H   0  0  0  0  0  0  0  0  0  0  0  0
   -3.4287   -3.8829   -2.1248 H   0  0  0  0  0  0  0  0  0  0  0  0
   -5.8717   -3.7969   -1.9314 H   0  0  0  0  0  0  0  0  0  0  0  0
   -7.8587   -2.4393   -1.4846 H   0  0  0  0  0  0  0  0  0  0  0  0
   -7.7335   -0.9292   -0.5709 H   0  0  0  0  0  0  0  0  0  0  0  0
   -8.8906   -2.6794    0.7628 H   0  0  0  0  0  0  0  0  0  0  0  0
   -7.4815   -3.7355    0.6164 H   0  0  0  0  0  0  0  0  0  0  0  0
   -7.3614   -2.2293    1.5250 H   0  0  0  0  0  0  0  0  0  0  0  0
   -5.5623   -0.2110    0.3557 H   0  0  0  0  0  0  0  0  0  0  0  0
   -3.1223   -0.2971    0.1718 H   0  0  0  0  0  0  0  0  0  0  0  0
    0.4483   -3.8377   -1.9179 H   0  0  0  0  0  0  0  0  0  0  0  0
    1.1695   -4.3198   -4.2057 H   0  0  0  0  0  0  0  0  0  0  0  0
   -0.7172   -3.4161   -7.2000 H   0  0  0  0  0  0  0  0  0  0  0  0
    0.6802   -4.3033   -6.5748 H   0  0  0  0  0  0  0  0  0  0  0  0
    1.9396   -2.1577   -6.3614 H   0  0  0  0  0  0  0  0  0  0  0  0
    0.5472   -1.2761   -6.9875 H   0  0  0  0  0  0  0  0  0  0  0  0
    1.4048   -2.4203   -8.0252 H   0  0  0  0  0  0  0  0  0  0  0  0
   -1.9072   -1.7842   -5.7176 H   0  0  0  0  0  0  0  0  0  0  0  0
   -2.6424   -1.3086   -3.4294 H   0  0  0  0  0  0  0  0  0  0  0  0
    1.2218   -0.5142    2.0761 H   0  0  0  0  0  0  0  0  0  0  0  0
   -0.4539   -6.8640    2.4877 H   0  0  0  0  0  0  0  0  0  0  0  0
   -3.5911  -12.5214    1.1343 H   0  0  0  0  0  0  0  0  0  0  0  0
   -2.5491  -16.1412    5.2163 H   0  0  0  0  0  0  0  0  0  0  0  0
    0.1721  -12.0758    6.1732 H   0  0  0  0  0  0  0  0  0  0  0  0
    0.9991   11.3397   -7.1291 H   0  0  0  0  0  0  0  0  0  0  0  0
    4.0491   15.2263   -6.4664 H   0  0  0  0  0  0  0  0  0  0  0  0
    4.3974   12.1222   -1.8796 H   0  0  0  0  0  0  0  0  0  0  0  0
   -4.1682  -12.8873   -1.4643 H   0  0  0  0  0  0  0  0  0  0  0  0
   -2.5416  -12.4314   -0.9030 H   0  0  0  0  0  0  0  0  0  0  0  0
   -2.5727  -12.5328   -3.3619 H   0  0  0  0  0  0  0  0  0  0  0  0
   -2.3243  -10.8597   -2.8460 H   0  0  0  0  0  0  0  0  0  0  0  0
   -3.9135  -11.3844   -3.4287 H   0  0  0  0  0  0  0  0  0  0  0  0
   -5.3253   -8.9594   -1.2834 H   0  0  0  0  0  0  0  0  0  0  0  0
   -4.3465   -9.0818   -2.7643 H   0  0  0  0  0  0  0  0  0  0  0  0
   -4.5293   -6.6104   -3.0813 H   0  0  0  0  0  0  0  0  0  0  0  0
   -5.5247   -6.4944   -1.6302 H   0  0  0  0  0  0  0  0  0  0  0  0
   -6.1298   -7.3714   -3.0474 H   0  0  0  0  0  0  0  0  0  0  0  0
    3.9533    9.2658    2.3871 H   0  0  0  0  0  0  0  0  0  0  0  0
    5.4681    8.7996    1.5736 H   0  0  0  0  0  0  0  0  0  0  0  0
    5.2506    7.6741    3.7993 H   0  0  0  0  0  0  0  0  0  0  0  0
    3.7202    6.9468    3.2763 H   0  0  0  0  0  0  0  0  0  0  0  0
    5.2266    6.4843    2.4869 H   0  0  0  0  0  0  0  0  0  0  0  0
    4.7757   11.9970    1.7060 H   0  0  0  0  0  0  0  0  0  0  0  0
    4.7246   12.7392    0.1020 H   0  0  0  0  0  0  0  0  0  0  0  0
    2.2921   12.2008   -0.0851 H   0  0  0  0  0  0  0  0  0  0  0  0
    2.6182   13.1042    1.3942 H   0  0  0  0  0  0  0  0  0  0  0  0
    2.3458   11.3585    1.4682 H   0  0  0  0  0  0  0  0  0  0  0  0
  1  2  1  0  0  0  0
  2  3  2  0  0  0  0
  3  4  1  0  0  0  0
  4  5  2  0  0  0  0
  5  6  1  0  0  0  0
  2  6  1  0  0  0  0
  5  7  1  0  0  0  0
  7  8  1  0  0  0  0
  8  9  1  0  0  0  0
  9 10  2  0  0  0  0
 10 11  1  0  0  0  0
 11 12  2  0  0  0  0
 12 13  1  0  0  0  0
 13 14  1  0  0  0  0
 12 15  1  0  0  0  0
 15 16  2  0  0  0  0
  9 16  1  0  0  0  0
  8 17  1  0  0  0  0
 17 18  2  0  0  0  0
 18 19  1  0  0  0  0
 19 20  2  0  0  0  0
 20 21  1  0  0  0  0
 21 22  1  0  0  0  0
 20 23  1  0  0  0  0
 23 24  2  0  0  0  0
 17 24  1  0  0  0  0
  8 25  1  0  0  0  0
 25 26  2  0  0  0  0
 26 27  1  0  0  0  0
  7 27  2  0  0  0  0
 27 28  1  0  0  0  0
  4 28  1  0  0  0  0
 26 29  1  0  0  0  0
 29 30  2  0  0  0  0
 30 31  1  0  0  0  0
 31 32  1  0  0  0  0
 32 33  2  0  0  0  0
 33 34  1  0  0  0  0
 34 35  2  0  0  0  0
 35 36  1  0  0  0  0
 36 37  1  0  0  0  0
 35 38  1  0  0  0  0
 38 39  2  0  0  0  0
 32 39  1  0  0  0  0
 31 40  1  0  0  0  0
 40 41  2  0  0  0  0
 41 42  1  0  0  0  0
 42 43  2  0  0  0  0
 43 44  1  0  0  0  0
 44 45  1  0  0  0  0
 43 46  1  0  0  0  0
 46 47  2  0  0  0  0
 40 47  1  0  0  0  0
 31 48  1  0  0  0  0
 48 49  2  0  0  0  0
 49 50  1  0  0  0  0
 30 50  1  0  0  0  0
 50 51  2  0  0  0  0
 25 51  1  0  0  0  0
 49 52  1  0  0  0  0
 52 53  1  0  0  0  0
 53 54  2  0  0  0  0
 48 54  1  0  0  0  0
 54 55  1  0  0  0  0
 55 56  1  0  0  0  0
 56 57  2  0  0  0  0
 53 57  1  0  0  0  0
 58 59  2  0  0  0  0
 59 60  1  0  0  0  0
 60 61  2  0  0  0  0
 61 62  1  0  0  0  0
 62 63  3  0  0  0  0
 61 64  1  0  0  0  0
 64 65  3  0  0  0  0
 60 66  1  0  0  0  0
 66 67  2  0  0  0  0
 67 68  1  0  0  0  0
 68 69  2  0  0  0  0
 69 70  1  0  0  0  0
 70 71  2  0  0  0  0
 66 71  1  0  0  0  0
 71 72  1  0  0  0  0
 59 72  1  0  0  0  0
 72 73  2  0  0  0  0
 74 75  2  0  0  0  0
 74 76  1  0  0  0  0
 76 77  2  0  0  0  0
 77 78  1  0  0  0  0
 78 79  2  0  0  0  0
 79 80  1  0  0  0  0
 80 81  2  0  0  0  0
 76 81  1  0  0  0  0
 81 82  1  0  0  0  0
 82 83  2  0  0  0  0
 83 84  1  0  0  0  0
 84 85  3  0  0  0  0
 83 86  1  0  0  0  0
 86 87  3  0  0  0  0
 82 88  1  0  0  0  0
 74 88  1  0  0  0  0
 88 89  2  0  0  0  0
 58 90  1  0  0  0  0
 90 91  2  0  0  0  0
 91 92  1  0  0  0  0
 92 93  2  0  0  0  0
 93 94  1  0  0  0  0
 94 90  1  0  0  0  0
 91 95  1  0  0  0  0
 95 96  1  0  0  0  0
 96 97  1  0  0  0  0
 92 98  1  0  0  0  0
 98 99  1  0  0  0  0
 99100  1  0  0  0  0
 93 56  1  0  0  0  0
  1101  2  0  0  0  0
101102  1  0  0  0  0
102103  2  0  0  0  0
103104  1  0  0  0  0
104  1  1  0  0  0  0
101105  1  0  0  0  0
102106  1  0  0  0  0
105107  1  0  0  0  0
107108  1  0  0  0  0
106109  1  0  0  0  0
103 89  1  0  0  0  0
109110  1  0  0  0  0
 68111  1  0  0  0  0
 79112  1  0  0  0  0
 69113  1  0  0  0  0
 78114  1  0  0  0  0
  3115  1  0  0  0  0
 10116  1  0  0  0  0
 11117  1  0  0  0  0
 13118  1  0  0  0  0
 13119  1  0  0  0  0
 14120  1  0  0  0  0
 14121  1  0  0  0  0
 14122  1  0  0  0  0
 15123  1  0  0  0  0
 16124  1  0  0  0  0
 18125  1  0  0  0  0
 19126  1  0  0  0  0
 21127  1  0  0  0  0
 21128  1  0  0  0  0
 22129  1  0  0  0  0
 22130  1  0  0  0  0
 22131  1  0  0  0  0
 23132  1  0  0  0  0
 24133  1  0  0  0  0
 29134  1  0  0  0  0
 33135  1  0  0  0  0
 34136  1  0  0  0  0
 36137  1  0  0  0  0
 36138  1  0  0  0  0
 37139  1  0  0  0  0
 37140  1  0  0  0  0
 37141  1  0  0  0  0
 38142  1  0  0  0  0
 39143  1  0  0  0  0
 41144  1  0  0  0  0
 42145  1  0  0  0  0
 44146  1  0  0  0  0
 44147  1  0  0  0  0
 45148  1  0  0  0  0
 45149  1  0  0  0  0
 45150  1  0  0  0  0
 46151  1  0  0  0  0
 47152  1  0  0  0  0
 51153  1  0  0  0  0
 57154  1  0  0  0  0
 58155  1  0  0  0  0
 67156  1  0  0  0  0
 70157  1  0  0  0  0
 77158  1  0  0  0  0
 80159  1  0  0  0  0
 89160  1  0  0  0  0
 96161  1  0  0  0  0
 96162  1  0  0  0  0
 97163  1  0  0  0  0
 97164  1  0  0  0  0
 97165  1  0  0  0  0
 99166  1  0  0  0  0
 99167  1  0  0  0  0
100168  1  0  0  0  0
100169  1  0  0  0  0
100170  1  0  0  0  0
107171  1  0  0  0  0
107172  1  0  0  0  0
108173  1  0  0  0  0
108174  1  0  0  0  0
108175  1  0  0  0  0
109176  1  0  0  0  0
109177  1  0  0  0  0
110178  1  0  0  0  0
110179  1  0  0  0  0
110180  1  0  0  0  0
M  END
