IE-4Cl.sdf
  xtb     12202113553D
 energy: -264.649864805180 gnorm: 0.000597082882 xtb: 6.4.1 (unknown)
158172  0     0  0            999 V2000
   -0.1118    1.9701    0.6587 C   0  0  0  0  0  0  0  0  0  0  0  0
    1.2507    1.6049    0.5414 C   0  0  0  0  0  0  0  0  0  0  0  0
    1.6728    0.6146   -0.3425 C   0  0  0  0  0  0  0  0  0  0  0  0
    0.7074   -0.0064   -1.1001 C   0  0  0  0  0  0  0  0  0  0  0  0
   -0.6565    0.3458   -0.9661 C   0  0  0  0  0  0  0  0  0  0  0  0
   -1.0776    1.3474   -0.0958 C   0  0  0  0  0  0  0  0  0  0  0  0
   -0.2930    3.0814    1.6793 C   0  0  0  0  0  0  0  0  0  0  0  0
    1.1319    3.2984    2.1181 C   0  0  0  0  0  0  0  0  0  0  0  0
    1.9801    2.4190    1.4631 C   0  0  0  0  0  0  0  0  0  0  0  0
    1.7785    4.1006    3.0510 C   0  0  0  0  0  0  0  0  0  0  0  0
    3.1369    3.8358    3.1174 C   0  0  0  0  0  0  0  0  0  0  0  0
    3.6037    2.5650    1.9945 S   0  0  0  0  0  0  0  0  0  0  0  0
    0.8822   -1.1223   -2.1188 C   0  0  0  0  0  0  0  0  0  0  0  0
   -0.5536   -1.4005   -2.4872 C   0  0  0  0  0  0  0  0  0  0  0  0
   -1.3960   -0.5161   -1.8321 C   0  0  0  0  0  0  0  0  0  0  0  0
   -1.2239   -2.2802   -3.3307 C   0  0  0  0  0  0  0  0  0  0  0  0
   -2.5951   -2.0772   -3.3161 C   0  0  0  0  0  0  0  0  0  0  0  0
   -3.0417   -0.7618   -2.2362 S   0  0  0  0  0  0  0  0  0  0  0  0
    4.1349    4.3940    3.9608 C   0  0  0  0  0  0  0  0  0  0  0  0
   -3.6339   -2.7705   -3.9950 C   0  0  0  0  0  0  0  0  0  0  0  0
    1.5866   -0.6790   -3.3901 C   0  0  0  0  0  0  0  0  0  0  0  0
    1.5962   -2.2853   -1.4598 C   0  0  0  0  0  0  0  0  0  0  0  0
   -0.9186    4.2751    0.9843 C   0  0  0  0  0  0  0  0  0  0  0  0
   -1.0787    2.6667    2.9103 C   0  0  0  0  0  0  0  0  0  0  0  0
   -2.3003    4.3653    0.8676 C   0  0  0  0  0  0  0  0  0  0  0  0
   -2.8802    5.4285    0.2026 C   0  0  0  0  0  0  0  0  0  0  0  0
   -2.0993    6.4275   -0.3646 C   0  0  0  0  0  0  0  0  0  0  0  0
   -0.7191    6.3261   -0.2561 C   0  0  0  0  0  0  0  0  0  0  0  0
   -0.1336    5.2626    0.4064 C   0  0  0  0  0  0  0  0  0  0  0  0
   -1.3039    1.3343    3.2224 C   0  0  0  0  0  0  0  0  0  0  0  0
   -1.9707    0.9916    4.3851 C   0  0  0  0  0  0  0  0  0  0  0  0
   -2.4153    1.9647    5.2691 C   0  0  0  0  0  0  0  0  0  0  0  0
   -2.1768    3.2974    4.9570 C   0  0  0  0  0  0  0  0  0  0  0  0
   -1.5142    3.6453    3.7963 C   0  0  0  0  0  0  0  0  0  0  0  0
    1.9972   -1.6416   -4.3052 C   0  0  0  0  0  0  0  0  0  0  0  0
    2.5960   -1.2714   -5.4931 C   0  0  0  0  0  0  0  0  0  0  0  0
    2.7975    0.0682   -5.8026 C   0  0  0  0  0  0  0  0  0  0  0  0
    2.3732    1.0250   -4.8916 C   0  0  0  0  0  0  0  0  0  0  0  0
    1.7712    0.6600   -3.7004 C   0  0  0  0  0  0  0  0  0  0  0  0
    0.8898   -3.3040   -0.8365 C   0  0  0  0  0  0  0  0  0  0  0  0
    1.5586   -4.3404   -0.2106 C   0  0  0  0  0  0  0  0  0  0  0  0
    2.9457   -4.3827   -0.1842 C   0  0  0  0  0  0  0  0  0  0  0  0
    3.6482   -3.3516   -0.7951 C   0  0  0  0  0  0  0  0  0  0  0  0
    2.9851   -2.3159   -1.4243 C   0  0  0  0  0  0  0  0  0  0  0  0
    3.4103    0.4692   -7.1132 C   0  0  0  0  0  0  0  0  0  0  0  0
    3.6711   -5.4863    0.5299 C   0  0  0  0  0  0  0  0  0  0  0  0
   -3.1783    1.5902    6.5065 C   0  0  0  0  0  0  0  0  0  0  0  0
   -2.7320    7.5601   -1.1203 C   0  0  0  0  0  0  0  0  0  0  0  0
   -4.6783    1.5322    6.2101 C   0  0  0  0  0  0  0  0  0  0  0  0
   -2.9107    7.1855   -2.5929 C   0  0  0  0  0  0  0  0  0  0  0  0
    2.3307    0.6036   -8.1892 C   0  0  0  0  0  0  0  0  0  0  0  0
    3.9432   -5.0935    1.9834 C   0  0  0  0  0  0  0  0  0  0  0  0
   -5.2652   -2.5623   -3.4446 S   0  0  0  0  0  0  0  0  0  0  0  0
   -5.8831   -3.6537   -4.6689 C   0  0  0  0  0  0  0  0  0  0  0  0
   -4.8360   -4.1150   -5.4533 C   0  0  0  0  0  0  0  0  0  0  0  0
   -3.5822   -3.6314   -5.0949 C   0  0  0  0  0  0  0  0  0  0  0  0
    5.5946    3.4913    4.2198 S   0  0  0  0  0  0  0  0  0  0  0  0
    6.2242    4.7324    5.2707 C   0  0  0  0  0  0  0  0  0  0  0  0
    5.3056    5.7801    5.3731 C   0  0  0  0  0  0  0  0  0  0  0  0
    4.1339    5.6091    4.6560 C   0  0  0  0  0  0  0  0  0  0  0  0
    3.0401    6.6312    4.6570 C   0  0  0  0  0  0  0  0  0  0  0  0
    2.0766    6.4035    5.8250 C   0  0  0  0  0  0  0  0  0  0  0  0
    7.4478    4.7429    5.9479 C   0  0  0  0  0  0  0  0  0  0  0  0
    8.4427    3.7950    6.0007 C   0  0  0  0  0  0  0  0  0  0  0  0
    8.4117    2.4926    5.3310 C   0  0  0  0  0  0  0  0  0  0  0  0
    9.6469    1.7951    5.7444 C   0  0  0  0  0  0  0  0  0  0  0  0
   10.3927    2.6332    6.5909 C   0  0  0  0  0  0  0  0  0  0  0  0
    9.6732    3.8969    6.7569 C   0  0  0  0  0  0  0  0  0  0  0  0
   10.0746    0.5277    5.4089 C   0  0  0  0  0  0  0  0  0  0  0  0
   11.2815    0.0810    5.9333 C   0  0  0  0  0  0  0  0  0  0  0  0
   11.5957    2.1852    7.1101 C   0  0  0  0  0  0  0  0  0  0  0  0
    7.5542    2.0546    4.5857 O   0  0  0  0  0  0  0  0  0  0  0  0
   10.1193    4.9654    7.4924 C   0  0  0  0  0  0  0  0  0  0  0  0
    9.4477    6.1950    7.6541 C   0  0  0  0  0  0  0  0  0  0  0  0
   11.3409    4.9851    8.1979 C   0  0  0  0  0  0  0  0  0  0  0  0
   12.3189    5.0710    8.7928 N   0  0  0  0  0  0  0  0  0  0  0  0
    8.9741    7.2259    7.8368 N   0  0  0  0  0  0  0  0  0  0  0  0
   -2.3486   -4.0318   -5.8415 C   0  0  0  0  0  0  0  0  0  0  0  0
   -1.7488   -5.3118   -5.2538 C   0  0  0  0  0  0  0  0  0  0  0  0
   -7.2708   -3.8618   -4.6862 C   0  0  0  0  0  0  0  0  0  0  0  0
   -8.0571   -4.7158   -5.4207 C   0  0  0  0  0  0  0  0  0  0  0  0
   -7.6342   -5.7866   -6.3458 C   0  0  0  0  0  0  0  0  0  0  0  0
   -8.8713   -6.5189   -6.6966 C   0  0  0  0  0  0  0  0  0  0  0  0
   -9.9746   -5.9143   -6.0742 C   0  0  0  0  0  0  0  0  0  0  0  0
   -9.5048   -4.7611   -5.3089 C   0  0  0  0  0  0  0  0  0  0  0  0
   -9.0043   -7.6337   -7.4980 C   0  0  0  0  0  0  0  0  0  0  0  0
  -10.2750   -8.1642   -7.6811 C   0  0  0  0  0  0  0  0  0  0  0  0
  -11.3804   -7.5722   -7.0617 C   0  0  0  0  0  0  0  0  0  0  0  0
  -11.2405   -6.4462   -6.2575 C   0  0  0  0  0  0  0  0  0  0  0  0
   -6.5227   -6.0589   -6.7508 O   0  0  0  0  0  0  0  0  0  0  0  0
  -10.3219   -3.8702   -4.6613 C   0  0  0  0  0  0  0  0  0  0  0  0
   -9.9169   -2.7005   -3.9832 C   0  0  0  0  0  0  0  0  0  0  0  0
  -11.7277   -3.9833   -4.6086 C   0  0  0  0  0  0  0  0  0  0  0  0
   -9.6939   -1.7223   -3.4232 N   0  0  0  0  0  0  0  0  0  0  0  0
  -12.8718   -4.0123   -4.5186 N   0  0  0  0  0  0  0  0  0  0  0  0
   12.0317    0.9069    6.7759 C   0  0  0  0  0  0  0  0  0  0  0  0
   13.5215    0.3427    7.4189 Cl  0  0  0  0  0  0  0  0  0  0  0  0
   11.8487   -1.4928    5.5446 Cl  0  0  0  0  0  0  0  0  0  0  0  0
  -12.9461   -8.2411   -7.2902 Cl  0  0  0  0  0  0  0  0  0  0  0  0
  -10.4854   -9.5528   -8.6700 Cl  0  0  0  0  0  0  0  0  0  0  0  0
    2.7164    0.3514   -0.4186 H   0  0  0  0  0  0  0  0  0  0  0  0
   -2.1219    1.6067   -0.0161 H   0  0  0  0  0  0  0  0  0  0  0  0
    1.2755    4.8113    3.6763 H   0  0  0  0  0  0  0  0  0  0  0  0
   -0.7386   -3.0532   -3.8930 H   0  0  0  0  0  0  0  0  0  0  0  0
   -2.9267    3.6064    1.3136 H   0  0  0  0  0  0  0  0  0  0  0  0
   -3.9566    5.4857    0.1265 H   0  0  0  0  0  0  0  0  0  0  0  0
   -0.0923    7.0905   -0.6933 H   0  0  0  0  0  0  0  0  0  0  0  0
    0.9432    5.2043    0.4763 H   0  0  0  0  0  0  0  0  0  0  0  0
   -0.9586    0.5570    2.5565 H   0  0  0  0  0  0  0  0  0  0  0  0
   -2.1422   -0.0514    4.6103 H   0  0  0  0  0  0  0  0  0  0  0  0
   -2.5106    4.0715    5.6334 H   0  0  0  0  0  0  0  0  0  0  0  0
   -1.3414    4.6874    3.5678 H   0  0  0  0  0  0  0  0  0  0  0  0
    1.8584   -2.6887   -4.0767 H   0  0  0  0  0  0  0  0  0  0  0  0
    2.9153   -2.0333   -6.1900 H   0  0  0  0  0  0  0  0  0  0  0  0
    2.5162    2.0730   -5.1137 H   0  0  0  0  0  0  0  0  0  0  0  0
    1.4480    1.4252   -3.0099 H   0  0  0  0  0  0  0  0  0  0  0  0
   -0.1907   -3.2921   -0.8418 H   0  0  0  0  0  0  0  0  0  0  0  0
    0.9919   -5.1301    0.2622 H   0  0  0  0  0  0  0  0  0  0  0  0
    4.7287   -3.3622   -0.7822 H   0  0  0  0  0  0  0  0  0  0  0  0
    3.5510   -1.5313   -1.9058 H   0  0  0  0  0  0  0  0  0  0  0  0
    4.1387   -0.2814   -7.4267 H   0  0  0  0  0  0  0  0  0  0  0  0
    3.9287    1.4237   -7.0029 H   0  0  0  0  0  0  0  0  0  0  0  0
    4.6199   -5.6896    0.0293 H   0  0  0  0  0  0  0  0  0  0  0  0
    3.0713   -6.3984    0.5096 H   0  0  0  0  0  0  0  0  0  0  0  0
   -2.8446    0.6150    6.8666 H   0  0  0  0  0  0  0  0  0  0  0  0
   -2.9949    2.3261    7.2920 H   0  0  0  0  0  0  0  0  0  0  0  0
   -2.1038    8.4504   -1.0490 H   0  0  0  0  0  0  0  0  0  0  0  0
   -3.7071    7.7941   -0.6885 H   0  0  0  0  0  0  0  0  0  0  0  0
   -5.0328    2.4999    5.8621 H   0  0  0  0  0  0  0  0  0  0  0  0
   -5.2330    1.2601    7.1049 H   0  0  0  0  0  0  0  0  0  0  0  0
   -4.8826    0.7951    5.4367 H   0  0  0  0  0  0  0  0  0  0  0  0
   -3.5442    6.3062   -2.6854 H   0  0  0  0  0  0  0  0  0  0  0  0
   -1.9474    6.9615   -3.0459 H   0  0  0  0  0  0  0  0  0  0  0  0
   -3.3707    8.0046   -3.1408 H   0  0  0  0  0  0  0  0  0  0  0  0
    1.8112   -0.3425   -8.3247 H   0  0  0  0  0  0  0  0  0  0  0  0
    2.7736    0.8957   -9.1384 H   0  0  0  0  0  0  0  0  0  0  0  0
    1.6002    1.3559   -7.8999 H   0  0  0  0  0  0  0  0  0  0  0  0
    4.5485   -4.1908    2.0247 H   0  0  0  0  0  0  0  0  0  0  0  0
    4.4720   -5.8909    2.5002 H   0  0  0  0  0  0  0  0  0  0  0  0
    3.0080   -4.9012    2.5047 H   0  0  0  0  0  0  0  0  0  0  0  0
   -4.9937   -4.7897   -6.2745 H   0  0  0  0  0  0  0  0  0  0  0  0
    5.5121    6.6535    5.9681 H   0  0  0  0  0  0  0  0  0  0  0  0
    3.4886    7.6213    4.7602 H   0  0  0  0  0  0  0  0  0  0  0  0
    2.5009    6.6037    3.7094 H   0  0  0  0  0  0  0  0  0  0  0  0
    2.6001    6.5225    6.7705 H   0  0  0  0  0  0  0  0  0  0  0  0
    1.2623    7.1232    5.7876 H   0  0  0  0  0  0  0  0  0  0  0  0
    1.6580    5.3997    5.7971 H   0  0  0  0  0  0  0  0  0  0  0  0
    7.6027    5.6442    6.5286 H   0  0  0  0  0  0  0  0  0  0  0  0
    9.4848   -0.0982    4.7582 H   0  0  0  0  0  0  0  0  0  0  0  0
   12.2018    2.7905    7.7636 H   0  0  0  0  0  0  0  0  0  0  0  0
   -2.6218   -4.2191   -6.8815 H   0  0  0  0  0  0  0  0  0  0  0  0
   -1.6172   -3.2226   -5.8260 H   0  0  0  0  0  0  0  0  0  0  0  0
   -1.5130   -5.1851   -4.1993 H   0  0  0  0  0  0  0  0  0  0  0  0
   -0.8395   -5.5816   -5.7854 H   0  0  0  0  0  0  0  0  0  0  0  0
   -2.4595   -6.1295   -5.3453 H   0  0  0  0  0  0  0  0  0  0  0  0
   -7.7965   -3.2428   -3.9686 H   0  0  0  0  0  0  0  0  0  0  0  0
   -8.1420   -8.0796   -7.9678 H   0  0  0  0  0  0  0  0  0  0  0  0
  -12.1163   -6.0209   -5.7961 H   0  0  0  0  0  0  0  0  0  0  0  0
  1  2  1  0  0  0  0
  2  3  2  0  0  0  0
  3  4  1  0  0  0  0
  4  5  2  0  0  0  0
  5  6  1  0  0  0  0
  6  1  2  0  0  0  0
  1  7  1  0  0  0  0
  7  8  1  0  0  0  0
  8  9  2  0  0  0  0
  9  2  1  0  0  0  0
  8 10  1  0  0  0  0
 10 11  2  0  0  0  0
 11 12  1  0  0  0  0
 12  9  1  0  0  0  0
  4 13  1  0  0  0  0
 13 14  1  0  0  0  0
 14 15  2  0  0  0  0
 15  5  1  0  0  0  0
 14 16  1  0  0  0  0
 16 17  2  0  0  0  0
 17 18  1  0  0  0  0
 18 15  1  0  0  0  0
 11 19  1  0  0  0  0
 17 20  1  0  0  0  0
 13 21  1  0  0  0  0
 13 22  1  0  0  0  0
  7 23  1  0  0  0  0
  7 24  1  0  0  0  0
 23 25  2  0  0  0  0
 25 26  1  0  0  0  0
 26 27  2  0  0  0  0
 27 28  1  0  0  0  0
 28 29  2  0  0  0  0
 29 23  1  0  0  0  0
 24 30  2  0  0  0  0
 30 31  1  0  0  0  0
 31 32  2  0  0  0  0
 32 33  1  0  0  0  0
 33 34  2  0  0  0  0
 34 24  1  0  0  0  0
 21 35  2  0  0  0  0
 35 36  1  0  0  0  0
 36 37  2  0  0  0  0
 37 38  1  0  0  0  0
 38 39  2  0  0  0  0
 39 21  1  0  0  0  0
 22 40  2  0  0  0  0
 40 41  1  0  0  0  0
 41 42  2  0  0  0  0
 42 43  1  0  0  0  0
 43 44  2  0  0  0  0
 44 22  1  0  0  0  0
 37 45  1  0  0  0  0
 42 46  1  0  0  0  0
 32 47  1  0  0  0  0
 27 48  1  0  0  0  0
 47 49  1  0  0  0  0
 48 50  1  0  0  0  0
 45 51  1  0  0  0  0
 46 52  1  0  0  0  0
 20 53  1  0  0  0  0
 53 54  1  0  0  0  0
 54 55  2  0  0  0  0
 55 56  1  0  0  0  0
 56 20  2  0  0  0  0
 19 57  1  0  0  0  0
 57 58  1  0  0  0  0
 58 59  2  0  0  0  0
 59 60  1  0  0  0  0
 60 19  2  0  0  0  0
 60 61  1  0  0  0  0
 61 62  1  0  0  0  0
 58 63  1  0  0  0  0
 63 64  2  0  0  0  0
 64 65  1  0  0  0  0
 65 66  1  0  0  0  0
 66 67  2  0  0  0  0
 67 68  1  0  0  0  0
 68 64  1  0  0  0  0
 66 69  1  0  0  0  0
 69 70  2  0  0  0  0
 70 96  1  0  0  0  0
 96 71  2  0  0  0  0
 71 67  1  0  0  0  0
 65 72  2  0  0  0  0
 68 73  2  0  0  0  0
 73 74  1  0  0  0  0
 73 75  1  0  0  0  0
 75 76  3  0  0  0  0
 74 77  3  0  0  0  0
 56 78  1  0  0  0  0
 78 79  1  0  0  0  0
 54 80  1  0  0  0  0
 80 81  2  0  0  0  0
 81 82  1  0  0  0  0
 82 83  1  0  0  0  0
 83 84  2  0  0  0  0
 84 85  1  0  0  0  0
 85 81  1  0  0  0  0
 83 86  1  0  0  0  0
 86 87  2  0  0  0  0
 87 88  1  0  0  0  0
 88 89  2  0  0  0  0
 89 84  1  0  0  0  0
 82 90  2  0  0  0  0
 85 91  2  0  0  0  0
 91 92  1  0  0  0  0
 91 93  1  0  0  0  0
 92 94  3  0  0  0  0
 93 95  3  0  0  0  0
 96 97  1  0  0  0  0
 70 98  1  0  0  0  0
 88 99  1  0  0  0  0
 87100  1  0  0  0  0
  3101  1  0  0  0  0
  6102  1  0  0  0  0
 10103  1  0  0  0  0
 16104  1  0  0  0  0
 25105  1  0  0  0  0
 26106  1  0  0  0  0
 28107  1  0  0  0  0
 29108  1  0  0  0  0
 30109  1  0  0  0  0
 31110  1  0  0  0  0
 33111  1  0  0  0  0
 34112  1  0  0  0  0
 35113  1  0  0  0  0
 36114  1  0  0  0  0
 38115  1  0  0  0  0
 39116  1  0  0  0  0
 40117  1  0  0  0  0
 41118  1  0  0  0  0
 43119  1  0  0  0  0
 44120  1  0  0  0  0
 45121  1  0  0  0  0
 45122  1  0  0  0  0
 46123  1  0  0  0  0
 46124  1  0  0  0  0
 47125  1  0  0  0  0
 47126  1  0  0  0  0
 48127  1  0  0  0  0
 48128  1  0  0  0  0
 49129  1  0  0  0  0
 49130  1  0  0  0  0
 49131  1  0  0  0  0
 50132  1  0  0  0  0
 50133  1  0  0  0  0
 50134  1  0  0  0  0
 51135  1  0  0  0  0
 51136  1  0  0  0  0
 51137  1  0  0  0  0
 52138  1  0  0  0  0
 52139  1  0  0  0  0
 52140  1  0  0  0  0
 55141  1  0  0  0  0
 59142  1  0  0  0  0
 61143  1  0  0  0  0
 61144  1  0  0  0  0
 62145  1  0  0  0  0
 62146  1  0  0  0  0
 62147  1  0  0  0  0
 63148  1  0  0  0  0
 69149  1  0  0  0  0
 71150  1  0  0  0  0
 78151  1  0  0  0  0
 78152  1  0  0  0  0
 79153  1  0  0  0  0
 79154  1  0  0  0  0
 79155  1  0  0  0  0
 80156  1  0  0  0  0
 86157  1  0  0  0  0
 89158  1  0  0  0  0
M  END
