INPIC-2F.sdf
  xtb     12202114223D
 energy: -261.791902156766 gnorm: 0.000186332644 xtb: 6.4.1 (unknown)
158174  0     0  0            999 V2000
    8.6410   -4.6890   -2.3558 C   0  0  0  0  0  0  0  0  0  0  0  0
    9.6242   -4.4655   -3.2918 C   0  0  0  0  0  0  0  0  0  0  0  0
   11.0016   -4.8889   -3.1105 C   0  0  0  0  0  0  0  0  0  0  0  0
   11.8083   -4.2445   -4.1461 C   0  0  0  0  0  0  0  0  0  0  0  0
   10.9498   -3.5317   -4.9979 C   0  0  0  0  0  0  0  0  0  0  0  0
    9.5517   -3.6735   -4.5333 C   0  0  0  0  0  0  0  0  0  0  0  0
    8.5814   -3.2066   -5.0982 O   0  0  0  0  0  0  0  0  0  0  0  0
   11.4857   -5.7756   -2.1833 C   0  0  0  0  0  0  0  0  0  0  0  0
   10.7237   -6.4898   -1.2339 C   0  0  0  0  0  0  0  0  0  0  0  0
   10.1900   -7.1313   -0.4443 N   0  0  0  0  0  0  0  0  0  0  0  0
   12.8446   -6.1380   -2.0725 C   0  0  0  0  0  0  0  0  0  0  0  0
   13.9324   -6.4730   -1.9212 N   0  0  0  0  0  0  0  0  0  0  0  0
   13.1752   -4.2349   -4.3835 C   0  0  0  0  0  0  0  0  0  0  0  0
   13.6597   -3.5172   -5.4671 C   0  0  0  0  0  0  0  0  0  0  0  0
   12.7860   -2.8286   -6.2946 C   0  0  0  0  0  0  0  0  0  0  0  0
   11.4159   -2.8179   -6.0830 C   0  0  0  0  0  0  0  0  0  0  0  0
   -6.6016    6.5989    3.2361 C   0  0  0  0  0  0  0  0  0  0  0  0
   -6.8374    7.2609    4.4188 C   0  0  0  0  0  0  0  0  0  0  0  0
   -7.4578    8.5727    4.4825 C   0  0  0  0  0  0  0  0  0  0  0  0
   -7.2990    9.0774    5.8458 C   0  0  0  0  0  0  0  0  0  0  0  0
   -6.6935    8.0768    6.6220 C   0  0  0  0  0  0  0  0  0  0  0  0
   -6.4195    6.8889    5.7828 C   0  0  0  0  0  0  0  0  0  0  0  0
   -7.6280   10.2932    6.4277 C   0  0  0  0  0  0  0  0  0  0  0  0
   -7.3497   10.4869    7.7727 C   0  0  0  0  0  0  0  0  0  0  0  0
   -6.7571    9.4768    8.5150 C   0  0  0  0  0  0  0  0  0  0  0  0
   -6.4155    8.2522    7.9622 C   0  0  0  0  0  0  0  0  0  0  0  0
   -5.9427    5.8466    6.1891 O   0  0  0  0  0  0  0  0  0  0  0  0
   -8.1280    9.2279    3.4816 C   0  0  0  0  0  0  0  0  0  0  0  0
   -8.7060   10.5070    3.6249 C   0  0  0  0  0  0  0  0  0  0  0  0
   -8.3834    8.7348    2.1841 C   0  0  0  0  0  0  0  0  0  0  0  0
   -8.6599    8.4151    1.1158 N   0  0  0  0  0  0  0  0  0  0  0  0
   -9.1937   11.5456    3.6676 N   0  0  0  0  0  0  0  0  0  0  0  0
    7.2892   -4.3245   -2.3226 C   0  0  0  0  0  0  0  0  0  0  0  0
    6.4566   -4.5961   -0.7739 S   0  0  0  0  0  0  0  0  0  0  0  0
    5.0276   -3.8881   -1.4033 C   0  0  0  0  0  0  0  0  0  0  0  0
    5.1887   -3.5003   -2.7619 C   0  0  0  0  0  0  0  0  0  0  0  0
    6.4515   -3.7498   -3.2722 C   0  0  0  0  0  0  0  0  0  0  0  0
    3.7436   -3.5066   -1.0374 C   0  0  0  0  0  0  0  0  0  0  0  0
    3.1471   -2.8965   -2.1776 C   0  0  0  0  0  0  0  0  0  0  0  0
    4.0394   -2.9049   -3.2143 N   0  0  0  0  0  0  0  0  0  0  0  0
    2.7280   -3.4879    0.3673 S   0  0  0  0  0  0  0  0  0  0  0  0
    1.5317   -2.6499   -0.5615 C   0  0  0  0  0  0  0  0  0  0  0  0
    1.8669   -2.4118   -1.8861 C   0  0  0  0  0  0  0  0  0  0  0  0
    0.3013   -2.0093   -0.2200 C   0  0  0  0  0  0  0  0  0  0  0  0
   -0.1510   -1.3432   -1.3801 C   0  0  0  0  0  0  0  0  0  0  0  0
    0.7364   -1.6790   -2.5749 C   0  0  0  0  0  0  0  0  0  0  0  0
   -0.3378   -1.8717    1.0097 C   0  0  0  0  0  0  0  0  0  0  0  0
   -1.3879   -0.9877    1.0739 C   0  0  0  0  0  0  0  0  0  0  0  0
   -1.7885   -0.2610   -0.0698 C   0  0  0  0  0  0  0  0  0  0  0  0
   -1.2011   -0.4587   -1.3166 C   0  0  0  0  0  0  0  0  0  0  0  0
   -2.1891   -0.5534    2.2968 C   0  0  0  0  0  0  0  0  0  0  0  0
   -2.9448    0.6316    1.7337 C   0  0  0  0  0  0  0  0  0  0  0  0
   -2.7469    0.7053    0.3632 C   0  0  0  0  0  0  0  0  0  0  0  0
   -3.7693    1.6708    2.1790 C   0  0  0  0  0  0  0  0  0  0  0  0
   -4.1705    2.5155    1.1056 C   0  0  0  0  0  0  0  0  0  0  0  0
   -3.5626    2.0064   -0.4360 S   0  0  0  0  0  0  0  0  0  0  0  0
   -4.2217    2.1927    3.3591 N   0  0  0  0  0  0  0  0  0  0  0  0
   -4.9011    3.3471    3.0647 C   0  0  0  0  0  0  0  0  0  0  0  0
   -4.8837    3.5701    1.6604 C   0  0  0  0  0  0  0  0  0  0  0  0
   -5.5174    4.3542    3.7878 C   0  0  0  0  0  0  0  0  0  0  0  0
   -5.9816    5.3731    2.9631 C   0  0  0  0  0  0  0  0  0  0  0  0
   -5.6725    5.0343    1.2438 S   0  0  0  0  0  0  0  0  0  0  0  0
    1.2251   -0.4188   -3.2611 C   0  0  0  0  0  0  0  0  0  0  0  0
   -0.0682   -2.6019   -3.4779 C   0  0  0  0  0  0  0  0  0  0  0  0
   -3.2329   -1.6031    2.6645 C   0  0  0  0  0  0  0  0  0  0  0  0
   -1.2210   -0.2284    3.4114 C   0  0  0  0  0  0  0  0  0  0  0  0
   -1.1469   -2.0995   -4.1981 C   0  0  0  0  0  0  0  0  0  0  0  0
   -1.9045   -2.9255   -5.0056 C   0  0  0  0  0  0  0  0  0  0  0  0
   -1.6143   -4.2795   -5.1168 C   0  0  0  0  0  0  0  0  0  0  0  0
   -0.5512   -4.7828   -4.3813 C   0  0  0  0  0  0  0  0  0  0  0  0
    0.2098   -3.9590   -3.5706 C   0  0  0  0  0  0  0  0  0  0  0  0
    1.7079    0.6200   -2.4725 C   0  0  0  0  0  0  0  0  0  0  0  0
    2.1721    1.7861   -3.0488 C   0  0  0  0  0  0  0  0  0  0  0  0
    2.1744    1.9482   -4.4289 C   0  0  0  0  0  0  0  0  0  0  0  0
    1.7063    0.9039   -5.2138 C   0  0  0  0  0  0  0  0  0  0  0  0
    1.2421   -0.2679   -4.6417 C   0  0  0  0  0  0  0  0  0  0  0  0
   -3.8639   -2.3240    1.6568 C   0  0  0  0  0  0  0  0  0  0  0  0
   -4.8594   -3.2341    1.9559 C   0  0  0  0  0  0  0  0  0  0  0  0
   -5.2592   -3.4513    3.2681 C   0  0  0  0  0  0  0  0  0  0  0  0
   -4.6318   -2.7262    4.2709 C   0  0  0  0  0  0  0  0  0  0  0  0
   -3.6355   -1.8125    3.9763 C   0  0  0  0  0  0  0  0  0  0  0  0
   -0.7917    1.0731    3.6351 C   0  0  0  0  0  0  0  0  0  0  0  0
    0.1365    1.3489    4.6231 C   0  0  0  0  0  0  0  0  0  0  0  0
    0.6689    0.3348    5.4067 C   0  0  0  0  0  0  0  0  0  0  0  0
    0.2532   -0.9690    5.1666 C   0  0  0  0  0  0  0  0  0  0  0  0
   -0.6749   -1.2494    4.1828 C   0  0  0  0  0  0  0  0  0  0  0  0
   13.2894   -2.1441   -7.3369 F   0  0  0  0  0  0  0  0  0  0  0  0
   -6.5023    9.6978    9.8167 F   0  0  0  0  0  0  0  0  0  0  0  0
    3.8544   -2.4146   -4.5574 C   0  0  0  0  0  0  0  0  0  0  0  0
    3.2549   -3.4786   -5.4736 C   0  0  0  0  0  0  0  0  0  0  0  0
   -4.1071    1.6366    4.6832 C   0  0  0  0  0  0  0  0  0  0  0  0
   -5.3749    0.8840    5.0788 C   0  0  0  0  0  0  0  0  0  0  0  0
   -2.4600   -5.1839   -5.9652 C   0  0  0  0  0  0  0  0  0  0  0  0
   -3.6005   -5.7803   -5.1379 C   0  0  0  0  0  0  0  0  0  0  0  0
    2.6218    3.2379   -5.0523 C   0  0  0  0  0  0  0  0  0  0  0  0
    1.4374    4.1959   -5.1976 C   0  0  0  0  0  0  0  0  0  0  0  0
   -6.3767   -4.4007    3.5887 C   0  0  0  0  0  0  0  0  0  0  0  0
   -7.7177   -3.6635    3.5917 C   0  0  0  0  0  0  0  0  0  0  0  0
    1.7102    0.6261    6.4475 C   0  0  0  0  0  0  0  0  0  0  0  0
    3.1124    0.4778    5.8532 C   0  0  0  0  0  0  0  0  0  0  0  0
    8.9636   -5.1886   -1.4497 H   0  0  0  0  0  0  0  0  0  0  0  0
   13.8652   -4.7625   -3.7464 H   0  0  0  0  0  0  0  0  0  0  0  0
   14.7172   -3.4859   -5.6770 H   0  0  0  0  0  0  0  0  0  0  0  0
   10.7470   -2.2762   -6.7324 H   0  0  0  0  0  0  0  0  0  0  0  0
   -6.8948    7.1296    2.3378 H   0  0  0  0  0  0  0  0  0  0  0  0
   -8.0854   11.0875    5.8619 H   0  0  0  0  0  0  0  0  0  0  0  0
   -7.5892   11.4218    8.2544 H   0  0  0  0  0  0  0  0  0  0  0  0
   -5.9527    7.4754    8.5496 H   0  0  0  0  0  0  0  0  0  0  0  0
    6.7861   -3.5256   -4.2674 H   0  0  0  0  0  0  0  0  0  0  0  0
    0.0263   -2.4003    1.8763 H   0  0  0  0  0  0  0  0  0  0  0  0
   -1.5282    0.1158   -2.1689 H   0  0  0  0  0  0  0  0  0  0  0  0
   -5.6248    4.3890    4.8556 H   0  0  0  0  0  0  0  0  0  0  0  0
   -1.3920   -1.0503   -4.1367 H   0  0  0  0  0  0  0  0  0  0  0  0
   -2.7336   -2.5107   -5.5608 H   0  0  0  0  0  0  0  0  0  0  0  0
   -0.3095   -5.8344   -4.4431 H   0  0  0  0  0  0  0  0  0  0  0  0
    1.0232   -4.3884   -3.0044 H   0  0  0  0  0  0  0  0  0  0  0  0
    1.7141    0.5124   -1.3970 H   0  0  0  0  0  0  0  0  0  0  0  0
    2.5381    2.5830   -2.4177 H   0  0  0  0  0  0  0  0  0  0  0  0
    1.7061    1.0034   -6.2899 H   0  0  0  0  0  0  0  0  0  0  0  0
    0.8886   -1.0641   -5.2806 H   0  0  0  0  0  0  0  0  0  0  0  0
   -3.5750   -2.1750    0.6268 H   0  0  0  0  0  0  0  0  0  0  0  0
   -5.3324   -3.7852    1.1557 H   0  0  0  0  0  0  0  0  0  0  0  0
   -4.9252   -2.8744    5.3005 H   0  0  0  0  0  0  0  0  0  0  0  0
   -3.1673   -1.2721    4.7849 H   0  0  0  0  0  0  0  0  0  0  0  0
   -1.1816    1.8811    3.0329 H   0  0  0  0  0  0  0  0  0  0  0  0
    0.4514    2.3699    4.7850 H   0  0  0  0  0  0  0  0  0  0  0  0
    0.6610   -1.7759    5.7585 H   0  0  0  0  0  0  0  0  0  0  0  0
   -0.9875   -2.2708    4.0204 H   0  0  0  0  0  0  0  0  0  0  0  0
    3.2050   -1.5376   -4.5212 H   0  0  0  0  0  0  0  0  0  0  0  0
    4.8344   -2.1096   -4.9329 H   0  0  0  0  0  0  0  0  0  0  0  0
    2.2631   -3.7641   -5.1303 H   0  0  0  0  0  0  0  0  0  0  0  0
    3.8886   -4.3622   -5.4930 H   0  0  0  0  0  0  0  0  0  0  0  0
    3.1736   -3.0870   -6.4836 H   0  0  0  0  0  0  0  0  0  0  0  0
   -3.9296    2.4601    5.3811 H   0  0  0  0  0  0  0  0  0  0  0  0
   -3.2409    0.9733    4.6991 H   0  0  0  0  0  0  0  0  0  0  0  0
   -6.2289    1.5570    5.0741 H   0  0  0  0  0  0  0  0  0  0  0  0
   -5.2630    0.4711    6.0772 H   0  0  0  0  0  0  0  0  0  0  0  0
   -5.5646    0.0700    4.3826 H   0  0  0  0  0  0  0  0  0  0  0  0
   -1.8472   -5.9929   -6.3680 H   0  0  0  0  0  0  0  0  0  0  0  0
   -2.8786   -4.6220   -6.8025 H   0  0  0  0  0  0  0  0  0  0  0  0
   -4.2312   -4.9897   -4.7376 H   0  0  0  0  0  0  0  0  0  0  0  0
   -3.2030   -6.3553   -4.3045 H   0  0  0  0  0  0  0  0  0  0  0  0
   -4.2127   -6.4362   -5.7522 H   0  0  0  0  0  0  0  0  0  0  0  0
    3.0510    3.0446   -6.0374 H   0  0  0  0  0  0  0  0  0  0  0  0
    3.3880    3.7043   -4.4301 H   0  0  0  0  0  0  0  0  0  0  0  0
    1.7588    5.1324   -5.6469 H   0  0  0  0  0  0  0  0  0  0  0  0
    1.0011    4.4088   -4.2242 H   0  0  0  0  0  0  0  0  0  0  0  0
    0.6683    3.7543   -5.8275 H   0  0  0  0  0  0  0  0  0  0  0  0
   -6.2114   -4.8500    4.5699 H   0  0  0  0  0  0  0  0  0  0  0  0
   -6.4075   -5.2005    2.8464 H   0  0  0  0  0  0  0  0  0  0  0  0
   -7.7137   -2.8717    4.3378 H   0  0  0  0  0  0  0  0  0  0  0  0
   -8.5288   -4.3508    3.8196 H   0  0  0  0  0  0  0  0  0  0  0  0
   -7.9053   -3.2153    2.6184 H   0  0  0  0  0  0  0  0  0  0  0  0
    1.5841    1.6427    6.8248 H   0  0  0  0  0  0  0  0  0  0  0  0
    1.6003   -0.0662    7.2847 H   0  0  0  0  0  0  0  0  0  0  0  0
    3.2614   -0.5334    5.4812 H   0  0  0  0  0  0  0  0  0  0  0  0
    3.2471    1.1695    5.0245 H   0  0  0  0  0  0  0  0  0  0  0  0
    3.8683    0.6859    6.6064 H   0  0  0  0  0  0  0  0  0  0  0  0
  1  2  2  0  0  0  0
  2  3  1  0  0  0  0
  3  4  1  0  0  0  0
  4  5  2  0  0  0  0
  5  6  1  0  0  0  0
  6  2  1  0  0  0  0
  6  7  2  0  0  0  0
  3  8  2  0  0  0  0
  8  9  1  0  0  0  0
  9 10  3  0  0  0  0
  8 11  1  0  0  0  0
 11 12  3  0  0  0  0
  4 13  1  0  0  0  0
 13 14  2  0  0  0  0
 14 15  1  0  0  0  0
 15 16  2  0  0  0  0
 16  5  1  0  0  0  0
 17 18  2  0  0  0  0
 18 19  1  0  0  0  0
 19 20  1  0  0  0  0
 20 21  2  0  0  0  0
 21 22  1  0  0  0  0
 22 18  1  0  0  0  0
 20 23  1  0  0  0  0
 23 24  2  0  0  0  0
 24 25  1  0  0  0  0
 25 26  2  0  0  0  0
 26 21  1  0  0  0  0
 22 27  2  0  0  0  0
 19 28  2  0  0  0  0
 28 29  1  0  0  0  0
 28 30  1  0  0  0  0
 30 31  3  0  0  0  0
 29 32  3  0  0  0  0
  1 33  1  0  0  0  0
 33 34  1  0  0  0  0
 34 35  1  0  0  0  0
 35 36  2  0  0  0  0
 36 37  1  0  0  0  0
 37 33  2  0  0  0  0
 35 38  1  0  0  0  0
 38 39  2  0  0  0  0
 39 40  1  0  0  0  0
 40 36  1  0  0  0  0
 38 41  1  0  0  0  0
 41 42  1  0  0  0  0
 42 43  2  0  0  0  0
 43 39  1  0  0  0  0
 42 44  1  0  0  0  0
 44 45  2  0  0  0  0
 45 46  1  0  0  0  0
 46 43  1  0  0  0  0
 44 47  1  0  0  0  0
 47 48  2  0  0  0  0
 48 49  1  0  0  0  0
 49 50  2  0  0  0  0
 50 45  1  0  0  0  0
 48 51  1  0  0  0  0
 51 52  1  0  0  0  0
 52 53  2  0  0  0  0
 53 49  1  0  0  0  0
 52 54  1  0  0  0  0
 54 55  2  0  0  0  0
 55 56  1  0  0  0  0
 56 53  1  0  0  0  0
 54 57  1  0  0  0  0
 57 58  1  0  0  0  0
 58 59  2  0  0  0  0
 59 55  1  0  0  0  0
 58 60  1  0  0  0  0
 60 61  2  0  0  0  0
 61 62  1  0  0  0  0
 62 59  1  0  0  0  0
 61 17  1  0  0  0  0
 46 63  1  0  0  0  0
 46 64  1  0  0  0  0
 51 65  1  0  0  0  0
 51 66  1  0  0  0  0
 64 67  2  0  0  0  0
 67 68  1  0  0  0  0
 68 69  2  0  0  0  0
 69 70  1  0  0  0  0
 70 71  2  0  0  0  0
 71 64  1  0  0  0  0
 63 72  2  0  0  0  0
 72 73  1  0  0  0  0
 73 74  2  0  0  0  0
 74 75  1  0  0  0  0
 75 76  2  0  0  0  0
 76 63  1  0  0  0  0
 65 77  2  0  0  0  0
 77 78  1  0  0  0  0
 78 79  2  0  0  0  0
 79 80  1  0  0  0  0
 80 81  2  0  0  0  0
 81 65  1  0  0  0  0
 66 82  2  0  0  0  0
 82 83  1  0  0  0  0
 83 84  2  0  0  0  0
 84 85  1  0  0  0  0
 85 86  2  0  0  0  0
 86 66  1  0  0  0  0
 15 87  1  0  0  0  0
 25 88  1  0  0  0  0
 40 89  1  0  0  0  0
 89 90  1  0  0  0  0
 57 91  1  0  0  0  0
 91 92  1  0  0  0  0
 69 93  1  0  0  0  0
 93 94  1  0  0  0  0
 74 95  1  0  0  0  0
 95 96  1  0  0  0  0
 79 97  1  0  0  0  0
 97 98  1  0  0  0  0
 84 99  1  0  0  0  0
 99100  1  0  0  0  0
  1101  1  0  0  0  0
 13102  1  0  0  0  0
 14103  1  0  0  0  0
 16104  1  0  0  0  0
 17105  1  0  0  0  0
 23106  1  0  0  0  0
 24107  1  0  0  0  0
 26108  1  0  0  0  0
 37109  1  0  0  0  0
 47110  1  0  0  0  0
 50111  1  0  0  0  0
 60112  1  0  0  0  0
 67113  1  0  0  0  0
 68114  1  0  0  0  0
 70115  1  0  0  0  0
 71116  1  0  0  0  0
 72117  1  0  0  0  0
 73118  1  0  0  0  0
 75119  1  0  0  0  0
 76120  1  0  0  0  0
 77121  1  0  0  0  0
 78122  1  0  0  0  0
 80123  1  0  0  0  0
 81124  1  0  0  0  0
 82125  1  0  0  0  0
 83126  1  0  0  0  0
 85127  1  0  0  0  0
 86128  1  0  0  0  0
 89129  1  0  0  0  0
 89130  1  0  0  0  0
 90131  1  0  0  0  0
 90132  1  0  0  0  0
 90133  1  0  0  0  0
 91134  1  0  0  0  0
 91135  1  0  0  0  0
 92136  1  0  0  0  0
 92137  1  0  0  0  0
 92138  1  0  0  0  0
 93139  1  0  0  0  0
 93140  1  0  0  0  0
 94141  1  0  0  0  0
 94142  1  0  0  0  0
 94143  1  0  0  0  0
 95144  1  0  0  0  0
 95145  1  0  0  0  0
 96146  1  0  0  0  0
 96147  1  0  0  0  0
 96148  1  0  0  0  0
 97149  1  0  0  0  0
 97150  1  0  0  0  0
 98151  1  0  0  0  0
 98152  1  0  0  0  0
 98153  1  0  0  0  0
 99154  1  0  0  0  0
 99155  1  0  0  0  0
100156  1  0  0  0  0
100157  1  0  0  0  0
100158  1  0  0  0  0
M  END
