IPT2F-Ph.sdf
  xtb     12202114343D
 energy: -255.082539136237 gnorm: 0.000875452327 xtb: 6.4.1 (unknown)
155170  0     0  0            999 V2000
   -0.4566    1.3431   -1.7787 C   0  0  0  0  0  0  0  0  0  0  0  0
    0.8993    1.1163   -1.5846 C   0  0  0  0  0  0  0  0  0  0  0  0
    1.1851    0.8761   -0.2066 C   0  0  0  0  0  0  0  0  0  0  0  0
   -0.0485    0.9105    0.4847 C   0  0  0  0  0  0  0  0  0  0  0  0
   -1.1907    1.2653   -0.4595 C   0  0  0  0  0  0  0  0  0  0  0  0
    2.3857    0.5950    0.4400 C   0  0  0  0  0  0  0  0  0  0  0  0
    2.3258    0.3288    1.7878 C   0  0  0  0  0  0  0  0  0  0  0  0
    1.0857    0.3251    2.4709 C   0  0  0  0  0  0  0  0  0  0  0  0
   -0.1122    0.6338    1.8284 C   0  0  0  0  0  0  0  0  0  0  0  0
    3.4651   -0.0403    2.7219 C   0  0  0  0  0  0  0  0  0  0  0  0
    2.7096   -0.3412    3.9909 C   0  0  0  0  0  0  0  0  0  0  0  0
    1.3508   -0.0767    3.8135 C   0  0  0  0  0  0  0  0  0  0  0  0
   -1.7389    2.5964    0.0145 C   0  0  0  0  0  0  0  0  0  0  0  0
   -2.2146    0.1487   -0.5685 C   0  0  0  0  0  0  0  0  0  0  0  0
   -1.2560    3.7881   -0.5111 C   0  0  0  0  0  0  0  0  0  0  0  0
   -1.7315    5.0044   -0.0565 C   0  0  0  0  0  0  0  0  0  0  0  0
   -2.6912    5.0657    0.9445 C   0  0  0  0  0  0  0  0  0  0  0  0
   -3.1425    3.8736    1.4956 C   0  0  0  0  0  0  0  0  0  0  0  0
   -2.6673    2.6560    1.0466 C   0  0  0  0  0  0  0  0  0  0  0  0
   -3.5699    0.3936   -0.7340 C   0  0  0  0  0  0  0  0  0  0  0  0
   -4.4567   -0.6534   -0.9031 C   0  0  0  0  0  0  0  0  0  0  0  0
   -4.0178   -1.9695   -0.9225 C   0  0  0  0  0  0  0  0  0  0  0  0
   -2.6592   -2.2108   -0.7647 C   0  0  0  0  0  0  0  0  0  0  0  0
   -1.7693   -1.1685   -0.5908 C   0  0  0  0  0  0  0  0  0  0  0  0
   -3.2603    6.3831    1.3841 C   0  0  0  0  0  0  0  0  0  0  0  0
   -4.4718    6.7500    0.5240 C   0  0  0  0  0  0  0  0  0  0  0  0
   -4.9827   -3.0925   -1.1699 C   0  0  0  0  0  0  0  0  0  0  0  0
   -5.2074   -3.2749   -2.6723 C   0  0  0  0  0  0  0  0  0  0  0  0
    4.4017    1.1178    3.0263 C   0  0  0  0  0  0  0  0  0  0  0  0
    4.2139   -1.2240    2.1416 C   0  0  0  0  0  0  0  0  0  0  0  0
    4.0927    2.4261    2.6857 C   0  0  0  0  0  0  0  0  0  0  0  0
    4.9512    3.4568    3.0254 C   0  0  0  0  0  0  0  0  0  0  0  0
    6.1268    3.2098    3.7201 C   0  0  0  0  0  0  0  0  0  0  0  0
    6.4257    1.8976    4.0658 C   0  0  0  0  0  0  0  0  0  0  0  0
    5.5742    0.8642    3.7285 C   0  0  0  0  0  0  0  0  0  0  0  0
    3.8489   -2.5267    2.4486 C   0  0  0  0  0  0  0  0  0  0  0  0
    4.5152   -3.5943    1.8753 C   0  0  0  0  0  0  0  0  0  0  0  0
    5.5503   -3.3897    0.9734 C   0  0  0  0  0  0  0  0  0  0  0  0
    5.9042   -2.0833    0.6612 C   0  0  0  0  0  0  0  0  0  0  0  0
    5.2450   -1.0131    1.2344 C   0  0  0  0  0  0  0  0  0  0  0  0
    7.0751    4.3267    4.0486 C   0  0  0  0  0  0  0  0  0  0  0  0
    8.0699    4.5366    2.9052 C   0  0  0  0  0  0  0  0  0  0  0  0
    6.3050   -4.5489    0.3898 C   0  0  0  0  0  0  0  0  0  0  0  0
    7.5081   -4.8971    1.2687 C   0  0  0  0  0  0  0  0  0  0  0  0
    3.0264   -0.7759    5.2633 C   0  0  0  0  0  0  0  0  0  0  0  0
    1.9041   -0.8665    6.0845 C   0  0  0  0  0  0  0  0  0  0  0  0
    0.4396   -0.3599    5.2265 S   0  0  0  0  0  0  0  0  0  0  0  0
   -0.7550    1.4655   -3.1380 C   0  0  0  0  0  0  0  0  0  0  0  0
    0.4041    1.3104   -3.9466 C   0  0  0  0  0  0  0  0  0  0  0  0
    1.8525    1.0604   -3.0286 S   0  0  0  0  0  0  0  0  0  0  0  0
   -1.8553    1.6053   -3.9467 N   0  0  0  0  0  0  0  0  0  0  0  0
   -1.4153    1.5199   -5.2479 C   0  0  0  0  0  0  0  0  0  0  0  0
   -0.0055    1.3440   -5.2762 C   0  0  0  0  0  0  0  0  0  0  0  0
   -1.9807    1.5690   -6.5050 C   0  0  0  0  0  0  0  0  0  0  0  0
   -1.0242    1.4184   -7.5180 C   0  0  0  0  0  0  0  0  0  0  0  0
    0.6117    1.2300   -6.8773 S   0  0  0  0  0  0  0  0  0  0  0  0
   -1.3946    1.4093   -8.8666 C   0  0  0  0  0  0  0  0  0  0  0  0
   -0.6402    1.2616  -10.0064 C   0  0  0  0  0  0  0  0  0  0  0  0
   -1.1508    1.2480  -11.3602 C   0  0  0  0  0  0  0  0  0  0  0  0
   -0.0063    1.0685  -12.2575 C   0  0  0  0  0  0  0  0  0  0  0  0
    1.1644    0.9748  -11.4850 C   0  0  0  0  0  0  0  0  0  0  0  0
    0.8152    1.0893  -10.0556 C   0  0  0  0  0  0  0  0  0  0  0  0
    0.0721    0.9873  -13.6375 C   0  0  0  0  0  0  0  0  0  0  0  0
    1.3334    0.8147  -14.1925 C   0  0  0  0  0  0  0  0  0  0  0  0
    2.4943    0.7218  -13.4400 C   0  0  0  0  0  0  0  0  0  0  0  0
    2.4093    0.8030  -12.0589 C   0  0  0  0  0  0  0  0  0  0  0  0
    1.5935    1.0467   -9.1201 O   0  0  0  0  0  0  0  0  0  0  0  0
   -2.4550    1.3714  -11.7676 C   0  0  0  0  0  0  0  0  0  0  0  0
   -3.5719    1.5475  -10.9251 C   0  0  0  0  0  0  0  0  0  0  0  0
   -2.8715    1.3354  -13.1151 C   0  0  0  0  0  0  0  0  0  0  0  0
   -4.5348    1.6902  -10.3138 N   0  0  0  0  0  0  0  0  0  0  0  0
   -3.2850    1.3154  -14.1858 N   0  0  0  0  0  0  0  0  0  0  0  0
    1.4322    0.7337  -15.5297 F   0  0  0  0  0  0  0  0  0  0  0  0
    1.7215   -1.2762    7.4134 C   0  0  0  0  0  0  0  0  0  0  0  0
    2.5876   -1.8093    8.3367 C   0  0  0  0  0  0  0  0  0  0  0  0
    2.1850   -2.1837    9.6812 C   0  0  0  0  0  0  0  0  0  0  0  0
    3.3172   -2.8624   10.3136 C   0  0  0  0  0  0  0  0  0  0  0  0
    4.3999   -2.8545    9.4203 C   0  0  0  0  0  0  0  0  0  0  0  0
    4.0086   -2.1797    8.1659 C   0  0  0  0  0  0  0  0  0  0  0  0
    4.7426   -1.9978    7.2152 O   0  0  0  0  0  0  0  0  0  0  0  0
    3.4556   -3.4587   11.5563 C   0  0  0  0  0  0  0  0  0  0  0  0
    4.6872   -4.0258   11.8541 C   0  0  0  0  0  0  0  0  0  0  0  0
    5.7646   -4.0196   10.9807 C   0  0  0  0  0  0  0  0  0  0  0  0
    5.6187   -3.4225    9.7391 C   0  0  0  0  0  0  0  0  0  0  0  0
    4.8420   -4.6134   13.0520 F   0  0  0  0  0  0  0  0  0  0  0  0
    0.9870   -1.9346   10.2994 C   0  0  0  0  0  0  0  0  0  0  0  0
    0.6807   -2.3320   11.6188 C   0  0  0  0  0  0  0  0  0  0  0  0
   -0.1149   -1.2401    9.7555 C   0  0  0  0  0  0  0  0  0  0  0  0
   -1.0581   -0.6787    9.4155 N   0  0  0  0  0  0  0  0  0  0  0  0
    0.3581   -2.6213   12.6817 N   0  0  0  0  0  0  0  0  0  0  0  0
   -3.1931    1.8527   -3.5770 C   0  0  0  0  0  0  0  0  0  0  0  0
   -4.1967    0.9960   -4.0114 C   0  0  0  0  0  0  0  0  0  0  0  0
   -5.5105    1.2558   -3.6744 C   0  0  0  0  0  0  0  0  0  0  0  0
   -5.8468    2.3615   -2.9017 C   0  0  0  0  0  0  0  0  0  0  0  0
   -4.8335    3.2160   -2.4851 C   0  0  0  0  0  0  0  0  0  0  0  0
   -3.5157    2.9732   -2.8239 C   0  0  0  0  0  0  0  0  0  0  0  0
   -7.2813    2.6558   -2.5735 C   0  0  0  0  0  0  0  0  0  0  0  0
   -7.9140    3.5093   -3.6750 C   0  0  0  0  0  0  0  0  0  0  0  0
    3.3159    0.5760   -0.1062 H   0  0  0  0  0  0  0  0  0  0  0  0
   -1.0440    0.6302    2.3716 H   0  0  0  0  0  0  0  0  0  0  0  0
   -0.4995    3.7687   -1.2832 H   0  0  0  0  0  0  0  0  0  0  0  0
   -1.3492    5.9195   -0.4865 H   0  0  0  0  0  0  0  0  0  0  0  0
   -3.8734    3.8975    2.2912 H   0  0  0  0  0  0  0  0  0  0  0  0
   -3.0306    1.7449    1.4979 H   0  0  0  0  0  0  0  0  0  0  0  0
   -3.9450    1.4044   -0.7341 H   0  0  0  0  0  0  0  0  0  0  0  0
   -5.5084   -0.4374   -1.0255 H   0  0  0  0  0  0  0  0  0  0  0  0
   -2.2917   -3.2270   -0.7784 H   0  0  0  0  0  0  0  0  0  0  0  0
   -0.7158   -1.3800   -0.4729 H   0  0  0  0  0  0  0  0  0  0  0  0
   -3.5661    6.3255    2.4303 H   0  0  0  0  0  0  0  0  0  0  0  0
   -2.5035    7.1645    1.2909 H   0  0  0  0  0  0  0  0  0  0  0  0
   -5.2445    5.9896    0.6163 H   0  0  0  0  0  0  0  0  0  0  0  0
   -4.8864    7.7049    0.8378 H   0  0  0  0  0  0  0  0  0  0  0  0
   -4.1845    6.8240   -0.5229 H   0  0  0  0  0  0  0  0  0  0  0  0
   -5.9375   -2.8724   -0.6881 H   0  0  0  0  0  0  0  0  0  0  0  0
   -4.5918   -4.0199   -0.7476 H   0  0  0  0  0  0  0  0  0  0  0  0
   -4.2690   -3.5131   -3.1683 H   0  0  0  0  0  0  0  0  0  0  0  0
   -5.6017   -2.3596   -3.1082 H   0  0  0  0  0  0  0  0  0  0  0  0
   -5.9127   -4.0816   -2.8574 H   0  0  0  0  0  0  0  0  0  0  0  0
    3.1793    2.6472    2.1527 H   0  0  0  0  0  0  0  0  0  0  0  0
    4.6974    4.4706    2.7499 H   0  0  0  0  0  0  0  0  0  0  0  0
    7.3333    1.6830    4.6115 H   0  0  0  0  0  0  0  0  0  0  0  0
    5.8218   -0.1495    4.0065 H   0  0  0  0  0  0  0  0  0  0  0  0
    3.0429   -2.7122    3.1436 H   0  0  0  0  0  0  0  0  0  0  0  0
    4.2229   -4.6027    2.1318 H   0  0  0  0  0  0  0  0  0  0  0  0
    6.7055   -1.9014   -0.0409 H   0  0  0  0  0  0  0  0  0  0  0  0
    5.5422   -0.0044    0.9856 H   0  0  0  0  0  0  0  0  0  0  0  0
    7.6227    4.0900    4.9629 H   0  0  0  0  0  0  0  0  0  0  0  0
    6.5166    5.2503    4.2136 H   0  0  0  0  0  0  0  0  0  0  0  0
    8.6451    3.6295    2.7333 H   0  0  0  0  0  0  0  0  0  0  0  0
    8.7579    5.3447    3.1426 H   0  0  0  0  0  0  0  0  0  0  0  0
    7.5433    4.7868    1.9868 H   0  0  0  0  0  0  0  0  0  0  0  0
    5.6495   -5.4189    0.3155 H   0  0  0  0  0  0  0  0  0  0  0  0
    6.6536   -4.2964   -0.6137 H   0  0  0  0  0  0  0  0  0  0  0  0
    8.0559   -5.7377    0.8492 H   0  0  0  0  0  0  0  0  0  0  0  0
    7.1795   -5.1611    2.2714 H   0  0  0  0  0  0  0  0  0  0  0  0
    8.1809   -4.0457    1.3431 H   0  0  0  0  0  0  0  0  0  0  0  0
    4.0090   -1.0382    5.6076 H   0  0  0  0  0  0  0  0  0  0  0  0
   -3.0268    1.7028   -6.7150 H   0  0  0  0  0  0  0  0  0  0  0  0
   -2.4609    1.5369   -9.0087 H   0  0  0  0  0  0  0  0  0  0  0  0
   -0.7869    1.0513  -14.2844 H   0  0  0  0  0  0  0  0  0  0  0  0
    3.4400    0.5885  -13.9409 H   0  0  0  0  0  0  0  0  0  0  0  0
    3.2878    0.7358  -11.4365 H   0  0  0  0  0  0  0  0  0  0  0  0
    0.6959   -1.1664    7.7461 H   0  0  0  0  0  0  0  0  0  0  0  0
    2.6633   -3.5035   12.2845 H   0  0  0  0  0  0  0  0  0  0  0  0
    6.6925   -4.4794   11.2817 H   0  0  0  0  0  0  0  0  0  0  0  0
    6.4295   -3.3960    9.0280 H   0  0  0  0  0  0  0  0  0  0  0  0
   -3.9398    0.1284   -4.6005 H   0  0  0  0  0  0  0  0  0  0  0  0
   -6.2886    0.5869   -4.0124 H   0  0  0  0  0  0  0  0  0  0  0  0
   -5.0747    4.0842   -1.8888 H   0  0  0  0  0  0  0  0  0  0  0  0
   -2.7368    3.6461   -2.5014 H   0  0  0  0  0  0  0  0  0  0  0  0
   -7.8394    1.7224   -2.4781 H   0  0  0  0  0  0  0  0  0  0  0  0
   -7.3423    3.1905   -1.6237 H   0  0  0  0  0  0  0  0  0  0  0  0
   -8.9539    3.7220   -3.4401 H   0  0  0  0  0  0  0  0  0  0  0  0
   -7.3807    4.4516   -3.7768 H   0  0  0  0  0  0  0  0  0  0  0  0
   -7.8726    2.9884   -4.6287 H   0  0  0  0  0  0  0  0  0  0  0  0
  1  2  2  0  0  0  0
  2  3  1  0  0  0  0
  3  4  1  0  0  0  0
  4  5  1  0  0  0  0
  5  1  1  0  0  0  0
  3  6  2  0  0  0  0
  6  7  1  0  0  0  0
  7  8  2  0  0  0  0
  8  9  1  0  0  0  0
  9  4  2  0  0  0  0
  7 10  1  0  0  0  0
 10 11  1  0  0  0  0
 11 12  2  0  0  0  0
 12  8  1  0  0  0  0
  5 13  1  0  0  0  0
  5 14  1  0  0  0  0
 13 15  2  0  0  0  0
 15 16  1  0  0  0  0
 16 17  2  0  0  0  0
 17 18  1  0  0  0  0
 18 19  2  0  0  0  0
 19 13  1  0  0  0  0
 14 20  2  0  0  0  0
 20 21  1  0  0  0  0
 21 22  2  0  0  0  0
 22 23  1  0  0  0  0
 23 24  2  0  0  0  0
 24 14  1  0  0  0  0
 17 25  1  0  0  0  0
 25 26  1  0  0  0  0
 22 27  1  0  0  0  0
 27 28  1  0  0  0  0
 10 29  1  0  0  0  0
 10 30  1  0  0  0  0
 29 31  2  0  0  0  0
 31 32  1  0  0  0  0
 32 33  2  0  0  0  0
 33 34  1  0  0  0  0
 34 35  2  0  0  0  0
 35 29  1  0  0  0  0
 30 36  2  0  0  0  0
 36 37  1  0  0  0  0
 37 38  2  0  0  0  0
 38 39  1  0  0  0  0
 39 40  2  0  0  0  0
 40 30  1  0  0  0  0
 33 41  1  0  0  0  0
 41 42  1  0  0  0  0
 38 43  1  0  0  0  0
 43 44  1  0  0  0  0
 11 45  1  0  0  0  0
 45 46  2  0  0  0  0
 46 47  1  0  0  0  0
 47 12  1  0  0  0  0
  1 48  1  0  0  0  0
 48 49  2  0  0  0  0
 49 50  1  0  0  0  0
 50  2  1  0  0  0  0
 48 51  1  0  0  0  0
 51 52  1  0  0  0  0
 52 53  2  0  0  0  0
 53 49  1  0  0  0  0
 52 54  1  0  0  0  0
 54 55  2  0  0  0  0
 55 56  1  0  0  0  0
 56 53  1  0  0  0  0
 55 57  1  0  0  0  0
 57 58  2  0  0  0  0
 58 59  1  0  0  0  0
 59 60  1  0  0  0  0
 60 61  2  0  0  0  0
 61 62  1  0  0  0  0
 62 58  1  0  0  0  0
 60 63  1  0  0  0  0
 63 64  2  0  0  0  0
 64 65  1  0  0  0  0
 65 66  2  0  0  0  0
 66 61  1  0  0  0  0
 62 67  2  0  0  0  0
 59 68  2  0  0  0  0
 68 69  1  0  0  0  0
 68 70  1  0  0  0  0
 69 71  3  0  0  0  0
 70 72  3  0  0  0  0
 64 73  1  0  0  0  0
 46 74  1  0  0  0  0
 74 75  2  0  0  0  0
 75 76  1  0  0  0  0
 76 77  1  0  0  0  0
 77 78  2  0  0  0  0
 78 79  1  0  0  0  0
 79 75  1  0  0  0  0
 79 80  2  0  0  0  0
 77 81  1  0  0  0  0
 81 82  2  0  0  0  0
 82 83  1  0  0  0  0
 83 84  2  0  0  0  0
 84 78  1  0  0  0  0
 82 85  1  0  0  0  0
 76 86  2  0  0  0  0
 86 87  1  0  0  0  0
 86 88  1  0  0  0  0
 88 89  3  0  0  0  0
 87 90  3  0  0  0  0
 51 91  1  0  0  0  0
 91 92  2  0  0  0  0
 92 93  1  0  0  0  0
 93 94  2  0  0  0  0
 94 95  1  0  0  0  0
 95 96  2  0  0  0  0
 96 91  1  0  0  0  0
 94 97  1  0  0  0  0
 97 98  1  0  0  0  0
  6 99  1  0  0  0  0
  9100  1  0  0  0  0
 15101  1  0  0  0  0
 16102  1  0  0  0  0
 18103  1  0  0  0  0
 19104  1  0  0  0  0
 20105  1  0  0  0  0
 21106  1  0  0  0  0
 23107  1  0  0  0  0
 24108  1  0  0  0  0
 25109  1  0  0  0  0
 25110  1  0  0  0  0
 26111  1  0  0  0  0
 26112  1  0  0  0  0
 26113  1  0  0  0  0
 27114  1  0  0  0  0
 27115  1  0  0  0  0
 28116  1  0  0  0  0
 28117  1  0  0  0  0
 28118  1  0  0  0  0
 31119  1  0  0  0  0
 32120  1  0  0  0  0
 34121  1  0  0  0  0
 35122  1  0  0  0  0
 36123  1  0  0  0  0
 37124  1  0  0  0  0
 39125  1  0  0  0  0
 40126  1  0  0  0  0
 41127  1  0  0  0  0
 41128  1  0  0  0  0
 42129  1  0  0  0  0
 42130  1  0  0  0  0
 42131  1  0  0  0  0
 43132  1  0  0  0  0
 43133  1  0  0  0  0
 44134  1  0  0  0  0
 44135  1  0  0  0  0
 44136  1  0  0  0  0
 45137  1  0  0  0  0
 54138  1  0  0  0  0
 57139  1  0  0  0  0
 63140  1  0  0  0  0
 65141  1  0  0  0  0
 66142  1  0  0  0  0
 74143  1  0  0  0  0
 81144  1  0  0  0  0
 83145  1  0  0  0  0
 84146  1  0  0  0  0
 92147  1  0  0  0  0
 93148  1  0  0  0  0
 95149  1  0  0  0  0
 96150  1  0  0  0  0
 97151  1  0  0  0  0
 97152  1  0  0  0  0
 98153  1  0  0  0  0
 98154  1  0  0  0  0
 98155  1  0  0  0  0
M  END
