IPTBO-4Cl.sdf
  xtb     12202114413D
 energy: -247.927100299415 gnorm: 0.000212831412 xtb: 6.4.1 (unknown)
145159  0     0  0            999 V2000
   -2.2132   -0.6088   -0.8352 C   0  0  0  0  0  0  0  0  0  0  0  0
   -1.6583    0.1852    0.1602 C   0  0  0  0  0  0  0  0  0  0  0  0
   -0.3002    0.5072   -0.1370 C   0  0  0  0  0  0  0  0  0  0  0  0
    0.0175   -0.1289   -1.3596 C   0  0  0  0  0  0  0  0  0  0  0  0
   -1.2224   -0.7788   -1.9664 C   0  0  0  0  0  0  0  0  0  0  0  0
    0.6479    1.2156    0.5966 C   0  0  0  0  0  0  0  0  0  0  0  0
    1.9358    1.2222    0.1157 C   0  0  0  0  0  0  0  0  0  0  0  0
    2.2720    0.5069   -1.0591 C   0  0  0  0  0  0  0  0  0  0  0  0
    1.3094   -0.1487   -1.8255 C   0  0  0  0  0  0  0  0  0  0  0  0
    3.1668    1.8603    0.7353 C   0  0  0  0  0  0  0  0  0  0  0  0
    4.2556    1.2763   -0.1284 C   0  0  0  0  0  0  0  0  0  0  0  0
    3.6915    0.5585   -1.1849 C   0  0  0  0  0  0  0  0  0  0  0  0
   -1.5941    0.0561   -3.1827 C   0  0  0  0  0  0  0  0  0  0  0  0
   -0.9878   -2.2456   -2.2698 C   0  0  0  0  0  0  0  0  0  0  0  0
   -0.8267   -0.0214   -4.3401 C   0  0  0  0  0  0  0  0  0  0  0  0
   -1.1324    0.7507   -5.4441 C   0  0  0  0  0  0  0  0  0  0  0  0
   -2.2081    1.6294   -5.4271 C   0  0  0  0  0  0  0  0  0  0  0  0
   -2.9576    1.7231   -4.2633 C   0  0  0  0  0  0  0  0  0  0  0  0
   -2.6548    0.9518   -3.1548 C   0  0  0  0  0  0  0  0  0  0  0  0
   -1.4257   -2.8539   -3.4392 C   0  0  0  0  0  0  0  0  0  0  0  0
   -1.2026   -4.2029   -3.6546 C   0  0  0  0  0  0  0  0  0  0  0  0
   -0.5493   -4.9813   -2.7095 C   0  0  0  0  0  0  0  0  0  0  0  0
   -0.1251   -4.3716   -1.5352 C   0  0  0  0  0  0  0  0  0  0  0  0
   -0.3434   -3.0255   -1.3157 C   0  0  0  0  0  0  0  0  0  0  0  0
   -2.5189    2.4939   -6.6140 C   0  0  0  0  0  0  0  0  0  0  0  0
   -1.8052    3.8421   -6.4952 C   0  0  0  0  0  0  0  0  0  0  0  0
   -0.2634   -6.4308   -2.9723 C   0  0  0  0  0  0  0  0  0  0  0  0
    1.0866   -6.5873   -3.6757 C   0  0  0  0  0  0  0  0  0  0  0  0
    3.2463    1.4944    2.2025 C   0  0  0  0  0  0  0  0  0  0  0  0
    3.2202    3.3678    0.5310 C   0  0  0  0  0  0  0  0  0  0  0  0
    3.9155    0.3552    2.6251 C   0  0  0  0  0  0  0  0  0  0  0  0
    3.9360    0.0118    3.9647 C   0  0  0  0  0  0  0  0  0  0  0  0
    3.2848    0.7898    4.9119 C   0  0  0  0  0  0  0  0  0  0  0  0
    2.6060    1.9228    4.4814 C   0  0  0  0  0  0  0  0  0  0  0  0
    2.5850    2.2722    3.1451 C   0  0  0  0  0  0  0  0  0  0  0  0
    4.2243    4.0929    1.1623 C   0  0  0  0  0  0  0  0  0  0  0  0
    4.3383    5.4537    0.9585 C   0  0  0  0  0  0  0  0  0  0  0  0
    3.4610    6.1251    0.1151 C   0  0  0  0  0  0  0  0  0  0  0  0
    2.4630    5.3947   -0.5136 C   0  0  0  0  0  0  0  0  0  0  0  0
    2.3441    4.0302   -0.3153 C   0  0  0  0  0  0  0  0  0  0  0  0
    3.2668    0.3916    6.3593 C   0  0  0  0  0  0  0  0  0  0  0  0
    2.0326   -0.4606    6.6624 C   0  0  0  0  0  0  0  0  0  0  0  0
    3.5644    7.6111   -0.0734 C   0  0  0  0  0  0  0  0  0  0  0  0
    2.7682    8.3448    1.0076 C   0  0  0  0  0  0  0  0  0  0  0  0
    5.6367    1.2892   -0.1447 C   0  0  0  0  0  0  0  0  0  0  0  0
    6.1589    0.5596   -1.2116 C   0  0  0  0  0  0  0  0  0  0  0  0
    4.8675   -0.1044   -2.2263 S   0  0  0  0  0  0  0  0  0  0  0  0
   -3.5055   -1.0157   -0.4889 C   0  0  0  0  0  0  0  0  0  0  0  0
   -3.8903   -0.5042    0.7824 C   0  0  0  0  0  0  0  0  0  0  0  0
   -2.6734    0.4759    1.5301 S   0  0  0  0  0  0  0  0  0  0  0  0
   -4.5135   -1.8013   -0.9826 N   0  0  0  0  0  0  0  0  0  0  0  0
   -5.5253   -1.7943   -0.0561 C   0  0  0  0  0  0  0  0  0  0  0  0
   -5.1607   -0.9946    1.0626 C   0  0  0  0  0  0  0  0  0  0  0  0
   -6.7641   -2.3848    0.0874 C   0  0  0  0  0  0  0  0  0  0  0  0
   -7.3617   -2.0681    1.3153 C   0  0  0  0  0  0  0  0  0  0  0  0
   -6.3614   -0.9892    2.2931 S   0  0  0  0  0  0  0  0  0  0  0  0
   -4.5626   -2.5010   -2.2415 C   0  0  0  0  0  0  0  0  0  0  0  0
   -5.1393   -1.6325   -3.3571 C   0  0  0  0  0  0  0  0  0  0  0  0
   -8.5970   -2.6120    1.6793 C   0  0  0  0  0  0  0  0  0  0  0  0
   -9.3239   -2.4989    2.8417 C   0  0  0  0  0  0  0  0  0  0  0  0
  -10.5765   -3.1690    3.1202 C   0  0  0  0  0  0  0  0  0  0  0  0
  -10.9662   -2.8158    4.4860 C   0  0  0  0  0  0  0  0  0  0  0  0
  -10.0007   -1.9465    5.0219 C   0  0  0  0  0  0  0  0  0  0  0  0
   -8.9456   -1.7075    4.0151 C   0  0  0  0  0  0  0  0  0  0  0  0
  -12.0526   -3.1906    5.2585 C   0  0  0  0  0  0  0  0  0  0  0  0
  -12.1550   -2.6907    6.5528 C   0  0  0  0  0  0  0  0  0  0  0  0
  -11.1892   -1.8253    7.0757 C   0  0  0  0  0  0  0  0  0  0  0  0
  -10.0980   -1.4463    6.3032 C   0  0  0  0  0  0  0  0  0  0  0  0
   -7.9705   -0.9925    4.1532 O   0  0  0  0  0  0  0  0  0  0  0  0
  -11.2924   -3.9912    2.2866 C   0  0  0  0  0  0  0  0  0  0  0  0
  -10.9383   -4.3443    0.9683 C   0  0  0  0  0  0  0  0  0  0  0  0
  -12.5101   -4.6096    2.6400 C   0  0  0  0  0  0  0  0  0  0  0  0
  -10.7276   -4.6838   -0.1093 N   0  0  0  0  0  0  0  0  0  0  0  0
  -13.5021   -5.1450    2.8580 N   0  0  0  0  0  0  0  0  0  0  0  0
  -13.4978   -3.1545    7.5187 Cl  0  0  0  0  0  0  0  0  0  0  0  0
  -11.3471   -1.2283    8.6783 Cl  0  0  0  0  0  0  0  0  0  0  0  0
    7.4660    0.2373   -1.6030 C   0  0  0  0  0  0  0  0  0  0  0  0
    8.6823    0.4457   -0.9982 C   0  0  0  0  0  0  0  0  0  0  0  0
    9.9392   -0.0177   -1.5611 C   0  0  0  0  0  0  0  0  0  0  0  0
   10.9805    0.1911   -0.5565 C   0  0  0  0  0  0  0  0  0  0  0  0
   10.4090    0.8288    0.5554 C   0  0  0  0  0  0  0  0  0  0  0  0
    8.9648    1.0476    0.3206 C   0  0  0  0  0  0  0  0  0  0  0  0
    8.2113    1.6098    1.0887 O   0  0  0  0  0  0  0  0  0  0  0  0
   12.3290   -0.1262   -0.5450 C   0  0  0  0  0  0  0  0  0  0  0  0
   13.0815    0.2023    0.5775 C   0  0  0  0  0  0  0  0  0  0  0  0
   12.5032    0.8433    1.6780 C   0  0  0  0  0  0  0  0  0  0  0  0
   11.1512    1.1617    1.6695 C   0  0  0  0  0  0  0  0  0  0  0  0
   13.4638    1.2362    3.0464 Cl  0  0  0  0  0  0  0  0  0  0  0  0
   14.7529   -0.1939    0.6027 Cl  0  0  0  0  0  0  0  0  0  0  0  0
   10.1593   -0.5281   -2.8148 C   0  0  0  0  0  0  0  0  0  0  0  0
   11.4208   -0.9547   -3.2828 C   0  0  0  0  0  0  0  0  0  0  0  0
    9.2003   -0.6884   -3.8378 C   0  0  0  0  0  0  0  0  0  0  0  0
    8.5016   -0.8469   -4.7361 N   0  0  0  0  0  0  0  0  0  0  0  0
   12.4109   -1.3248   -3.7304 N   0  0  0  0  0  0  0  0  0  0  0  0
    0.3789    1.7081    1.5180 H   0  0  0  0  0  0  0  0  0  0  0  0
    1.5947   -0.6792   -2.7202 H   0  0  0  0  0  0  0  0  0  0  0  0
    0.0117   -0.6995   -4.3854 H   0  0  0  0  0  0  0  0  0  0  0  0
   -0.5258    0.6676   -6.3344 H   0  0  0  0  0  0  0  0  0  0  0  0
   -3.7938    2.4064   -4.2202 H   0  0  0  0  0  0  0  0  0  0  0  0
   -3.2535    1.0589   -2.2621 H   0  0  0  0  0  0  0  0  0  0  0  0
   -1.9388   -2.2764   -4.1945 H   0  0  0  0  0  0  0  0  0  0  0  0
   -1.5473   -4.6559   -4.5733 H   0  0  0  0  0  0  0  0  0  0  0  0
    0.3813   -4.9585   -0.7826 H   0  0  0  0  0  0  0  0  0  0  0  0
   -0.0077   -2.5701   -0.3947 H   0  0  0  0  0  0  0  0  0  0  0  0
   -3.5960    2.6619   -6.6772 H   0  0  0  0  0  0  0  0  0  0  0  0
   -2.1959    1.9953   -7.5299 H   0  0  0  0  0  0  0  0  0  0  0  0
   -0.7286    3.6969   -6.4408 H   0  0  0  0  0  0  0  0  0  0  0  0
   -2.1259    4.3625   -5.5955 H   0  0  0  0  0  0  0  0  0  0  0  0
   -2.0287    4.4669   -7.3565 H   0  0  0  0  0  0  0  0  0  0  0  0
   -1.0481   -6.8554   -3.6016 H   0  0  0  0  0  0  0  0  0  0  0  0
   -0.2444   -6.9815   -2.0299 H   0  0  0  0  0  0  0  0  0  0  0  0
    1.8844   -6.1798   -3.0589 H   0  0  0  0  0  0  0  0  0  0  0  0
    1.0829   -6.0560   -4.6248 H   0  0  0  0  0  0  0  0  0  0  0  0
    1.2961   -7.6370   -3.8662 H   0  0  0  0  0  0  0  0  0  0  0  0
    4.4298   -0.2666    1.9066 H   0  0  0  0  0  0  0  0  0  0  0  0
    4.4695   -0.8743    4.2779 H   0  0  0  0  0  0  0  0  0  0  0  0
    2.0909    2.5416    5.2023 H   0  0  0  0  0  0  0  0  0  0  0  0
    2.0616    3.1643    2.8317 H   0  0  0  0  0  0  0  0  0  0  0  0
    4.9156    3.5870    1.8199 H   0  0  0  0  0  0  0  0  0  0  0  0
    5.1250    6.0026    1.4557 H   0  0  0  0  0  0  0  0  0  0  0  0
    1.7702    5.8961   -1.1746 H   0  0  0  0  0  0  0  0  0  0  0  0
    1.5629    3.4847   -0.8247 H   0  0  0  0  0  0  0  0  0  0  0  0
    4.1664   -0.1786    6.5987 H   0  0  0  0  0  0  0  0  0  0  0  0
    3.2500    1.2840    6.9882 H   0  0  0  0  0  0  0  0  0  0  0  0
    2.0160   -0.7470    7.7113 H   0  0  0  0  0  0  0  0  0  0  0  0
    1.1245    0.0950    6.4394 H   0  0  0  0  0  0  0  0  0  0  0  0
    2.0380   -1.3633    6.0554 H   0  0  0  0  0  0  0  0  0  0  0  0
    3.1769    7.8875   -1.0560 H   0  0  0  0  0  0  0  0  0  0  0  0
    4.6108    7.9182   -0.0197 H   0  0  0  0  0  0  0  0  0  0  0  0
    1.7191    8.0608    0.9627 H   0  0  0  0  0  0  0  0  0  0  0  0
    3.1489    8.0923    1.9947 H   0  0  0  0  0  0  0  0  0  0  0  0
    2.8432    9.4210    0.8709 H   0  0  0  0  0  0  0  0  0  0  0  0
    6.2657    1.7728    0.5787 H   0  0  0  0  0  0  0  0  0  0  0  0
   -7.2435   -3.0280   -0.6287 H   0  0  0  0  0  0  0  0  0  0  0  0
   -3.5515   -2.8236   -2.4978 H   0  0  0  0  0  0  0  0  0  0  0  0
   -5.1849   -3.3888   -2.1010 H   0  0  0  0  0  0  0  0  0  0  0  0
   -6.1353   -1.2855   -3.0914 H   0  0  0  0  0  0  0  0  0  0  0  0
   -4.5030   -0.7687   -3.5353 H   0  0  0  0  0  0  0  0  0  0  0  0
   -5.2052   -2.2105   -4.2745 H   0  0  0  0  0  0  0  0  0  0  0  0
   -9.0203   -3.2452    0.9091 H   0  0  0  0  0  0  0  0  0  0  0  0
  -12.8172   -3.8558    4.8927 H   0  0  0  0  0  0  0  0  0  0  0  0
   -9.3444   -0.7804    6.6930 H   0  0  0  0  0  0  0  0  0  0  0  0
    7.4989   -0.3129   -2.5361 H   0  0  0  0  0  0  0  0  0  0  0  0
   12.8118   -0.6214   -1.3710 H   0  0  0  0  0  0  0  0  0  0  0  0
   10.6894    1.6540    2.5107 H   0  0  0  0  0  0  0  0  0  0  0  0
  1  2  2  0  0  0  0
  2  3  1  0  0  0  0
  3  4  1  0  0  0  0
  4  5  1  0  0  0  0
  5  1  1  0  0  0  0
  3  6  2  0  0  0  0
  6  7  1  0  0  0  0
  7  8  2  0  0  0  0
  8  9  1  0  0  0  0
  9  4  2  0  0  0  0
  7 10  1  0  0  0  0
 10 11  1  0  0  0  0
 11 12  2  0  0  0  0
 12  8  1  0  0  0  0
  5 13  1  0  0  0  0
  5 14  1  0  0  0  0
 13 15  2  0  0  0  0
 15 16  1  0  0  0  0
 16 17  2  0  0  0  0
 17 18  1  0  0  0  0
 18 19  2  0  0  0  0
 19 13  1  0  0  0  0
 14 20  2  0  0  0  0
 20 21  1  0  0  0  0
 21 22  2  0  0  0  0
 22 23  1  0  0  0  0
 23 24  2  0  0  0  0
 24 14  1  0  0  0  0
 17 25  1  0  0  0  0
 25 26  1  0  0  0  0
 22 27  1  0  0  0  0
 27 28  1  0  0  0  0
 10 29  1  0  0  0  0
 10 30  1  0  0  0  0
 29 31  2  0  0  0  0
 31 32  1  0  0  0  0
 32 33  2  0  0  0  0
 33 34  1  0  0  0  0
 34 35  2  0  0  0  0
 35 29  1  0  0  0  0
 30 36  2  0  0  0  0
 36 37  1  0  0  0  0
 37 38  2  0  0  0  0
 38 39  1  0  0  0  0
 39 40  2  0  0  0  0
 40 30  1  0  0  0  0
 33 41  1  0  0  0  0
 41 42  1  0  0  0  0
 38 43  1  0  0  0  0
 43 44  1  0  0  0  0
 11 45  1  0  0  0  0
 45 46  2  0  0  0  0
 46 47  1  0  0  0  0
 47 12  1  0  0  0  0
  1 48  1  0  0  0  0
 48 49  2  0  0  0  0
 49 50  1  0  0  0  0
 50  2  1  0  0  0  0
 48 51  1  0  0  0  0
 51 52  1  0  0  0  0
 52 53  2  0  0  0  0
 53 49  1  0  0  0  0
 52 54  1  0  0  0  0
 54 55  2  0  0  0  0
 55 56  1  0  0  0  0
 56 53  1  0  0  0  0
 51 57  1  0  0  0  0
 57 58  1  0  0  0  0
 55 59  1  0  0  0  0
 59 60  2  0  0  0  0
 60 61  1  0  0  0  0
 61 62  1  0  0  0  0
 62 63  2  0  0  0  0
 63 64  1  0  0  0  0
 64 60  1  0  0  0  0
 62 65  1  0  0  0  0
 65 66  2  0  0  0  0
 66 67  1  0  0  0  0
 67 68  2  0  0  0  0
 68 63  1  0  0  0  0
 64 69  2  0  0  0  0
 61 70  2  0  0  0  0
 70 71  1  0  0  0  0
 70 72  1  0  0  0  0
 71 73  3  0  0  0  0
 72 74  3  0  0  0  0
 66 75  1  0  0  0  0
 67 76  1  0  0  0  0
 46 77  1  0  0  0  0
 77 78  2  0  0  0  0
 78 79  1  0  0  0  0
 79 80  1  0  0  0  0
 80 81  2  0  0  0  0
 81 82  1  0  0  0  0
 82 78  1  0  0  0  0
 82 83  2  0  0  0  0
 80 84  1  0  0  0  0
 84 85  2  0  0  0  0
 85 86  1  0  0  0  0
 86 87  2  0  0  0  0
 87 81  1  0  0  0  0
 86 88  1  0  0  0  0
 85 89  1  0  0  0  0
 79 90  2  0  0  0  0
 90 91  1  0  0  0  0
 90 92  1  0  0  0  0
 92 93  3  0  0  0  0
 91 94  3  0  0  0  0
  6 95  1  0  0  0  0
  9 96  1  0  0  0  0
 15 97  1  0  0  0  0
 16 98  1  0  0  0  0
 18 99  1  0  0  0  0
 19100  1  0  0  0  0
 20101  1  0  0  0  0
 21102  1  0  0  0  0
 23103  1  0  0  0  0
 24104  1  0  0  0  0
 25105  1  0  0  0  0
 25106  1  0  0  0  0
 26107  1  0  0  0  0
 26108  1  0  0  0  0
 26109  1  0  0  0  0
 27110  1  0  0  0  0
 27111  1  0  0  0  0
 28112  1  0  0  0  0
 28113  1  0  0  0  0
 28114  1  0  0  0  0
 31115  1  0  0  0  0
 32116  1  0  0  0  0
 34117  1  0  0  0  0
 35118  1  0  0  0  0
 36119  1  0  0  0  0
 37120  1  0  0  0  0
 39121  1  0  0  0  0
 40122  1  0  0  0  0
 41123  1  0  0  0  0
 41124  1  0  0  0  0
 42125  1  0  0  0  0
 42126  1  0  0  0  0
 42127  1  0  0  0  0
 43128  1  0  0  0  0
 43129  1  0  0  0  0
 44130  1  0  0  0  0
 44131  1  0  0  0  0
 44132  1  0  0  0  0
 45133  1  0  0  0  0
 54134  1  0  0  0  0
 57135  1  0  0  0  0
 57136  1  0  0  0  0
 58137  1  0  0  0  0
 58138  1  0  0  0  0
 58139  1  0  0  0  0
 59140  1  0  0  0  0
 65141  1  0  0  0  0
 68142  1  0  0  0  0
 77143  1  0  0  0  0
 84144  1  0  0  0  0
 87145  1  0  0  0  0
M  END
