IT-BT-ICN.sdf
  xtb     12202113153D
 energy: -271.149028738395 gnorm: 0.000472226514 xtb: 6.4.1 (unknown)
160178  0     0  0            999 V2000
    3.9398   -2.2560    5.7850 C   0  0  0  0  0  0  0  0  0  0  0  0
    4.5917   -1.5683    4.7824 C   0  0  0  0  0  0  0  0  0  0  0  0
    3.9511   -1.7032    3.5534 C   0  0  0  0  0  0  0  0  0  0  0  0
    2.7965   -2.5040    3.5957 C   0  0  0  0  0  0  0  0  0  0  0  0
    2.5289   -3.1206    5.1808 S   0  0  0  0  0  0  0  0  0  0  0  0
    2.1090   -2.5121    2.3846 C   0  0  0  0  0  0  0  0  0  0  0  0
    0.8370   -3.0954    1.8295 C   0  0  0  0  0  0  0  0  0  0  0  0
   -0.3986   -2.7651    2.6417 C   0  0  0  0  0  0  0  0  0  0  0  0
   -1.5322   -3.5614    2.5398 C   0  0  0  0  0  0  0  0  0  0  0  0
   -2.6720   -3.2529    3.2574 C   0  0  0  0  0  0  0  0  0  0  0  0
   -2.7107   -2.1449    4.0939 C   0  0  0  0  0  0  0  0  0  0  0  0
   -3.9614   -1.7941    4.8468 C   0  0  0  0  0  0  0  0  0  0  0  0
   -4.8611   -0.8940    3.9976 C   0  0  0  0  0  0  0  0  0  0  0  0
   -1.5811   -1.3426    4.1781 C   0  0  0  0  0  0  0  0  0  0  0  0
   -0.4402   -1.6436    3.4578 C   0  0  0  0  0  0  0  0  0  0  0  0
    1.0494   -4.5967    1.7220 C   0  0  0  0  0  0  0  0  0  0  0  0
    1.0095   -5.3616    2.8821 C   0  0  0  0  0  0  0  0  0  0  0  0
    1.2386   -6.7221    2.8326 C   0  0  0  0  0  0  0  0  0  0  0  0
    1.5152   -7.3553    1.6268 C   0  0  0  0  0  0  0  0  0  0  0  0
    1.8050   -8.8280    1.5831 C   0  0  0  0  0  0  0  0  0  0  0  0
    3.2958   -9.0861    1.8113 C   0  0  0  0  0  0  0  0  0  0  0  0
    1.5645   -6.5845    0.4741 C   0  0  0  0  0  0  0  0  0  0  0  0
    1.3378   -5.2200    0.5175 C   0  0  0  0  0  0  0  0  0  0  0  0
    0.7705   -2.3943    0.4833 C   0  0  0  0  0  0  0  0  0  0  0  0
    1.9408   -1.6323    0.2530 C   0  0  0  0  0  0  0  0  0  0  0  0
    2.7439   -1.7347    1.4313 C   0  0  0  0  0  0  0  0  0  0  0  0
    4.2092   -0.9955    1.9844 S   0  0  0  0  0  0  0  0  0  0  0  0
    2.1121   -0.8812   -0.9067 C   0  0  0  0  0  0  0  0  0  0  0  0
    1.0681   -0.8621   -1.8012 C   0  0  0  0  0  0  0  0  0  0  0  0
    0.9530   -0.0595   -3.0862 C   0  0  0  0  0  0  0  0  0  0  0  0
    1.7724   -0.6282   -4.2330 C   0  0  0  0  0  0  0  0  0  0  0  0
    1.8483    0.0892   -5.4213 C   0  0  0  0  0  0  0  0  0  0  0  0
    2.5368   -0.4198   -6.5043 C   0  0  0  0  0  0  0  0  0  0  0  0
    3.1639   -1.6581   -6.4326 C   0  0  0  0  0  0  0  0  0  0  0  0
    3.9489   -2.1872   -7.5981 C   0  0  0  0  0  0  0  0  0  0  0  0
    5.3813   -1.6503   -7.5661 C   0  0  0  0  0  0  0  0  0  0  0  0
    3.0827   -2.3700   -5.2445 C   0  0  0  0  0  0  0  0  0  0  0  0
    2.3902   -1.8671   -4.1569 C   0  0  0  0  0  0  0  0  0  0  0  0
    1.3052    1.3870   -2.8077 C   0  0  0  0  0  0  0  0  0  0  0  0
    0.3412    2.2892   -2.3818 C   0  0  0  0  0  0  0  0  0  0  0  0
    0.6851    3.5960   -2.0884 C   0  0  0  0  0  0  0  0  0  0  0  0
    1.9977    4.0320   -2.2038 C   0  0  0  0  0  0  0  0  0  0  0  0
    2.3806    5.4372   -1.8392 C   0  0  0  0  0  0  0  0  0  0  0  0
    2.8401    5.5034   -0.3813 C   0  0  0  0  0  0  0  0  0  0  0  0
    2.9614    3.1206   -2.6166 C   0  0  0  0  0  0  0  0  0  0  0  0
    2.6227    1.8149   -2.9144 C   0  0  0  0  0  0  0  0  0  0  0  0
   -0.4943   -0.2908   -3.4306 C   0  0  0  0  0  0  0  0  0  0  0  0
   -1.0591   -1.2094   -2.5625 C   0  0  0  0  0  0  0  0  0  0  0  0
   -0.1281   -1.5713   -1.5395 C   0  0  0  0  0  0  0  0  0  0  0  0
   -0.2767   -2.3682   -0.4073 C   0  0  0  0  0  0  0  0  0  0  0  0
   -2.7289   -1.5443   -2.8769 S   0  0  0  0  0  0  0  0  0  0  0  0
   -2.6920   -0.4004   -4.1879 C   0  0  0  0  0  0  0  0  0  0  0  0
   -1.4197    0.1696   -4.3645 C   0  0  0  0  0  0  0  0  0  0  0  0
   -1.4373    1.3403   -5.6274 S   0  0  0  0  0  0  0  0  0  0  0  0
   -3.1618    1.0811   -5.8824 C   0  0  0  0  0  0  0  0  0  0  0  0
   -3.6661    0.1105   -5.0430 C   0  0  0  0  0  0  0  0  0  0  0  0
   -3.8722    1.8814   -6.8283 C   0  0  0  0  0  0  0  0  0  0  0  0
   -3.2297    2.8242   -7.6245 C   0  0  0  0  0  0  0  0  0  0  0  0
   -3.9039    3.6418   -8.5213 C   0  0  0  0  0  0  0  0  0  0  0  0
   -5.2761    3.5597   -8.7274 C   0  0  0  0  0  0  0  0  0  0  0  0
   -5.9815    2.6490   -7.8992 C   0  0  0  0  0  0  0  0  0  0  0  0
   -5.2868    1.8052   -6.9636 C   0  0  0  0  0  0  0  0  0  0  0  0
   -7.3013    2.5034   -7.8170 N   0  0  0  0  0  0  0  0  0  0  0  0
   -7.6346    1.3820   -6.7209 S   0  0  0  0  0  0  0  0  0  0  0  0
   -6.1302    1.0478   -6.2641 N   0  0  0  0  0  0  0  0  0  0  0  0
    4.2177   -2.2407    7.1841 C   0  0  0  0  0  0  0  0  0  0  0  0
    3.4750   -2.9858    8.0943 C   0  0  0  0  0  0  0  0  0  0  0  0
    3.6306   -2.8730    9.4685 C   0  0  0  0  0  0  0  0  0  0  0  0
    4.5007   -1.9597   10.0544 C   0  0  0  0  0  0  0  0  0  0  0  0
    5.3440   -1.2446    9.1641 C   0  0  0  0  0  0  0  0  0  0  0  0
    5.2208   -1.3972    7.7382 C   0  0  0  0  0  0  0  0  0  0  0  0
    6.3270   -0.4087    9.4916 N   0  0  0  0  0  0  0  0  0  0  0  0
    7.0205    0.1386    8.1465 S   0  0  0  0  0  0  0  0  0  0  0  0
    6.1135   -0.6575    7.0859 N   0  0  0  0  0  0  0  0  0  0  0  0
    4.5337   -1.7903   11.4739 C   0  0  0  0  0  0  0  0  0  0  0  0
    4.8892   -0.6996   12.1986 C   0  0  0  0  0  0  0  0  0  0  0  0
    5.2013   -0.8509   13.6488 C   0  0  0  0  0  0  0  0  0  0  0  0
    5.9071    0.3918   14.0217 C   0  0  0  0  0  0  0  0  0  0  0  0
    5.9070    1.2775   12.9278 C   0  0  0  0  0  0  0  0  0  0  0  0
    5.1461    0.6776   11.8348 C   0  0  0  0  0  0  0  0  0  0  0  0
    4.5877    1.3650   10.7912 C   0  0  0  0  0  0  0  0  0  0  0  0
    4.9573   -1.8088   14.3457 O   0  0  0  0  0  0  0  0  0  0  0  0
    4.8480    2.7208   10.5073 C   0  0  0  0  0  0  0  0  0  0  0  0
    3.6346    0.8215    9.9065 C   0  0  0  0  0  0  0  0  0  0  0  0
    2.8288    0.4488    9.1785 N   0  0  0  0  0  0  0  0  0  0  0  0
    5.0431    3.8113   10.2057 N   0  0  0  0  0  0  0  0  0  0  0  0
   -5.9348    4.4118   -9.6724 C   0  0  0  0  0  0  0  0  0  0  0  0
   -7.0304    4.0858  -10.4065 C   0  0  0  0  0  0  0  0  0  0  0  0
   -7.8511    4.9892  -11.1953 C   0  0  0  0  0  0  0  0  0  0  0  0
   -8.9361    4.2022  -11.7773 C   0  0  0  0  0  0  0  0  0  0  0  0
   -8.7590    2.8512  -11.4313 C   0  0  0  0  0  0  0  0  0  0  0  0
   -7.5332    2.7010  -10.6223 C   0  0  0  0  0  0  0  0  0  0  0  0
   -7.6778    6.3388  -11.3502 C   0  0  0  0  0  0  0  0  0  0  0  0
   -6.6353    7.1038  -10.7854 C   0  0  0  0  0  0  0  0  0  0  0  0
   -8.5217    7.1664  -12.1217 C   0  0  0  0  0  0  0  0  0  0  0  0
   -6.9938    1.6602  -10.3182 O   0  0  0  0  0  0  0  0  0  0  0  0
   -9.6389    1.8734  -11.8523 C   0  0  0  0  0  0  0  0  0  0  0  0
  -10.7271    2.2566  -12.6231 C   0  0  0  0  0  0  0  0  0  0  0  0
  -10.9116    3.5887  -12.9658 C   0  0  0  0  0  0  0  0  0  0  0  0
  -10.0243    4.5734  -12.5533 C   0  0  0  0  0  0  0  0  0  0  0  0
    6.5430    2.5039   13.0338 C   0  0  0  0  0  0  0  0  0  0  0  0
    7.1578    2.8282   14.2358 C   0  0  0  0  0  0  0  0  0  0  0  0
    7.1400    1.9578   15.3166 C   0  0  0  0  0  0  0  0  0  0  0  0
    6.5140    0.7229   15.2177 C   0  0  0  0  0  0  0  0  0  0  0  0
   -5.8244    7.8001  -10.3650 N   0  0  0  0  0  0  0  0  0  0  0  0
   -9.1596    7.8987  -12.7340 N   0  0  0  0  0  0  0  0  0  0  0  0
    5.4719   -0.9804    4.9621 H   0  0  0  0  0  0  0  0  0  0  0  0
   -1.5181   -4.4359    1.9050 H   0  0  0  0  0  0  0  0  0  0  0  0
   -3.5431   -3.8869    3.1711 H   0  0  0  0  0  0  0  0  0  0  0  0
   -4.5055   -2.7047    5.1061 H   0  0  0  0  0  0  0  0  0  0  0  0
   -3.7028   -1.2749    5.7717 H   0  0  0  0  0  0  0  0  0  0  0  0
   -4.3379    0.0227    3.7347 H   0  0  0  0  0  0  0  0  0  0  0  0
   -5.7648   -0.6343    4.5441 H   0  0  0  0  0  0  0  0  0  0  0  0
   -5.1443   -1.4012    3.0779 H   0  0  0  0  0  0  0  0  0  0  0  0
   -1.5906   -0.4724    4.8187 H   0  0  0  0  0  0  0  0  0  0  0  0
    0.4231   -0.9989    3.5363 H   0  0  0  0  0  0  0  0  0  0  0  0
    0.7896   -4.8856    3.8269 H   0  0  0  0  0  0  0  0  0  0  0  0
    1.1996   -7.3024    3.7433 H   0  0  0  0  0  0  0  0  0  0  0  0
    1.5137   -9.2349    0.6127 H   0  0  0  0  0  0  0  0  0  0  0  0
    1.2292   -9.3410    2.3561 H   0  0  0  0  0  0  0  0  0  0  0  0
    3.5054  -10.1530    1.7902 H   0  0  0  0  0  0  0  0  0  0  0  0
    3.6046   -8.6899    2.7760 H   0  0  0  0  0  0  0  0  0  0  0  0
    3.8865   -8.6002    1.0378 H   0  0  0  0  0  0  0  0  0  0  0  0
    1.7810   -7.0561   -0.4741 H   0  0  0  0  0  0  0  0  0  0  0  0
    1.3821   -4.6423   -0.3941 H   0  0  0  0  0  0  0  0  0  0  0  0
    3.0134   -0.3107   -1.0701 H   0  0  0  0  0  0  0  0  0  0  0  0
    1.3670    1.0540   -5.4930 H   0  0  0  0  0  0  0  0  0  0  0  0
    2.5841    0.1500   -7.4212 H   0  0  0  0  0  0  0  0  0  0  0  0
    3.4725   -1.8839   -8.5327 H   0  0  0  0  0  0  0  0  0  0  0  0
    3.9724   -3.2782   -7.5645 H   0  0  0  0  0  0  0  0  0  0  0  0
    5.9515   -2.0364   -8.4078 H   0  0  0  0  0  0  0  0  0  0  0  0
    5.8763   -1.9490   -6.6446 H   0  0  0  0  0  0  0  0  0  0  0  0
    5.3794   -0.5638   -7.6165 H   0  0  0  0  0  0  0  0  0  0  0  0
    3.5624   -3.3355   -5.1673 H   0  0  0  0  0  0  0  0  0  0  0  0
    2.3350   -2.4445   -3.2457 H   0  0  0  0  0  0  0  0  0  0  0  0
   -0.6863    1.9720   -2.2764 H   0  0  0  0  0  0  0  0  0  0  0  0
   -0.0803    4.2871   -1.7648 H   0  0  0  0  0  0  0  0  0  0  0  0
    1.5264    6.1025   -1.9785 H   0  0  0  0  0  0  0  0  0  0  0  0
    3.1903    5.7800   -2.4869 H   0  0  0  0  0  0  0  0  0  0  0  0
    2.0430    5.1742    0.2816 H   0  0  0  0  0  0  0  0  0  0  0  0
    3.1161    6.5210   -0.1149 H   0  0  0  0  0  0  0  0  0  0  0  0
    3.7014    4.8575   -0.2256 H   0  0  0  0  0  0  0  0  0  0  0  0
    3.9903    3.4383   -2.7089 H   0  0  0  0  0  0  0  0  0  0  0  0
    3.3857    1.1239   -3.2430 H   0  0  0  0  0  0  0  0  0  0  0  0
   -1.1931   -2.9084   -0.2253 H   0  0  0  0  0  0  0  0  0  0  0  0
   -4.6990   -0.1823   -5.0532 H   0  0  0  0  0  0  0  0  0  0  0  0
   -2.1574    2.9244   -7.5363 H   0  0  0  0  0  0  0  0  0  0  0  0
   -3.3358    4.3452   -9.1124 H   0  0  0  0  0  0  0  0  0  0  0  0
    2.7227   -3.6600    7.7113 H   0  0  0  0  0  0  0  0  0  0  0  0
    2.9975   -3.4646   10.1132 H   0  0  0  0  0  0  0  0  0  0  0  0
    4.2737   -2.6662   12.0613 H   0  0  0  0  0  0  0  0  0  0  0  0
   -5.4980    5.3962   -9.7858 H   0  0  0  0  0  0  0  0  0  0  0  0
   -9.4738    0.8434  -11.5760 H   0  0  0  0  0  0  0  0  0  0  0  0
  -11.4359    1.5152  -12.9602 H   0  0  0  0  0  0  0  0  0  0  0  0
  -11.7624    3.8696  -13.5684 H   0  0  0  0  0  0  0  0  0  0  0  0
  -10.1914    5.5991  -12.8383 H   0  0  0  0  0  0  0  0  0  0  0  0
    6.5751    3.1934   12.2057 H   0  0  0  0  0  0  0  0  0  0  0  0
    7.6584    3.7804   14.3289 H   0  0  0  0  0  0  0  0  0  0  0  0
    7.6195    2.2442   16.2405 H   0  0  0  0  0  0  0  0  0  0  0  0
    6.4928    0.0311   16.0456 H   0  0  0  0  0  0  0  0  0  0  0  0
  1  2  2  0  0  0  0
  2  3  1  0  0  0  0
  3  4  2  0  0  0  0
  4  5  1  0  0  0  0
  1  5  1  0  0  0  0
  4  6  1  0  0  0  0
  6  7  1  0  0  0  0
  7  8  1  0  0  0  0
  8  9  2  0  0  0  0
  9 10  1  0  0  0  0
 10 11  2  0  0  0  0
 11 12  1  0  0  0  0
 12 13  1  0  0  0  0
 11 14  1  0  0  0  0
 14 15  2  0  0  0  0
  8 15  1  0  0  0  0
  7 16  1  0  0  0  0
 16 17  2  0  0  0  0
 17 18  1  0  0  0  0
 18 19  2  0  0  0  0
 19 20  1  0  0  0  0
 20 21  1  0  0  0  0
 19 22  1  0  0  0  0
 22 23  2  0  0  0  0
 16 23  1  0  0  0  0
  7 24  1  0  0  0  0
 24 25  2  0  0  0  0
 25 26  1  0  0  0  0
  6 26  2  0  0  0  0
 26 27  1  0  0  0  0
  3 27  1  0  0  0  0
 25 28  1  0  0  0  0
 28 29  2  0  0  0  0
 29 30  1  0  0  0  0
 30 31  1  0  0  0  0
 31 32  2  0  0  0  0
 32 33  1  0  0  0  0
 33 34  2  0  0  0  0
 34 35  1  0  0  0  0
 35 36  1  0  0  0  0
 34 37  1  0  0  0  0
 37 38  2  0  0  0  0
 31 38  1  0  0  0  0
 30 39  1  0  0  0  0
 39 40  2  0  0  0  0
 40 41  1  0  0  0  0
 41 42  2  0  0  0  0
 42 43  1  0  0  0  0
 43 44  1  0  0  0  0
 42 45  1  0  0  0  0
 45 46  2  0  0  0  0
 39 46  1  0  0  0  0
 30 47  1  0  0  0  0
 47 48  2  0  0  0  0
 48 49  1  0  0  0  0
 29 49  1  0  0  0  0
 49 50  2  0  0  0  0
 24 50  1  0  0  0  0
 48 51  1  0  0  0  0
 51 52  1  0  0  0  0
 52 53  2  0  0  0  0
 47 53  1  0  0  0  0
 53 54  1  0  0  0  0
 54 55  1  0  0  0  0
 55 56  2  0  0  0  0
 52 56  1  0  0  0  0
 57 58  2  0  0  0  0
 58 59  1  0  0  0  0
 59 60  2  0  0  0  0
 60 61  1  0  0  0  0
 61 62  1  0  0  0  0
 62 57  1  0  0  0  0
 61 63  2  0  0  0  0
 63 64  1  0  0  0  0
 64 65  1  0  0  0  0
 65 62  2  0  0  0  0
 66 67  2  0  0  0  0
 67 68  1  0  0  0  0
 68 69  2  0  0  0  0
 69 70  1  0  0  0  0
 70 71  1  0  0  0  0
 71 66  1  0  0  0  0
 70 72  2  0  0  0  0
 72 73  1  0  0  0  0
 73 74  1  0  0  0  0
 74 71  2  0  0  0  0
 57 55  1  0  0  0  0
  1 66  1  0  0  0  0
 75 76  2  0  0  0  0
 76 77  1  0  0  0  0
 77 78  1  0  0  0  0
 78 79  2  0  0  0  0
 79 80  1  0  0  0  0
 80 76  1  0  0  0  0
 77 82  2  0  0  0  0
 81 83  1  0  0  0  0
 81 84  1  0  0  0  0
 84 85  3  0  0  0  0
 83 86  3  0  0  0  0
 87 88  2  0  0  0  0
 88 89  1  0  0  0  0
 89 90  1  0  0  0  0
 90 91  2  0  0  0  0
 91 92  1  0  0  0  0
 92 88  1  0  0  0  0
 89 93  2  0  0  0  0
 69 75  1  0  0  0  0
 87 60  1  0  0  0  0
 93 94  1  0  0  0  0
 93 95  1  0  0  0  0
 92 96  2  0  0  0  0
 91 97  1  0  0  0  0
 97 98  2  0  0  0  0
 98 99  1  0  0  0  0
 99100  2  0  0  0  0
100 90  1  0  0  0  0
 81 80  2  0  0  0  0
 79101  1  0  0  0  0
101102  2  0  0  0  0
102103  1  0  0  0  0
103104  2  0  0  0  0
104 78  1  0  0  0  0
 94105  3  0  0  0  0
 95106  3  0  0  0  0
  2107  1  0  0  0  0
  9108  1  0  0  0  0
 10109  1  0  0  0  0
 12110  1  0  0  0  0
 12111  1  0  0  0  0
 13112  1  0  0  0  0
 13113  1  0  0  0  0
 13114  1  0  0  0  0
 14115  1  0  0  0  0
 15116  1  0  0  0  0
 17117  1  0  0  0  0
 18118  1  0  0  0  0
 20119  1  0  0  0  0
 20120  1  0  0  0  0
 21121  1  0  0  0  0
 21122  1  0  0  0  0
 21123  1  0  0  0  0
 22124  1  0  0  0  0
 23125  1  0  0  0  0
 28126  1  0  0  0  0
 32127  1  0  0  0  0
 33128  1  0  0  0  0
 35129  1  0  0  0  0
 35130  1  0  0  0  0
 36131  1  0  0  0  0
 36132  1  0  0  0  0
 36133  1  0  0  0  0
 37134  1  0  0  0  0
 38135  1  0  0  0  0
 40136  1  0  0  0  0
 41137  1  0  0  0  0
 43138  1  0  0  0  0
 43139  1  0  0  0  0
 44140  1  0  0  0  0
 44141  1  0  0  0  0
 44142  1  0  0  0  0
 45143  1  0  0  0  0
 46144  1  0  0  0  0
 50145  1  0  0  0  0
 56146  1  0  0  0  0
 58147  1  0  0  0  0
 59148  1  0  0  0  0
 67149  1  0  0  0  0
 68150  1  0  0  0  0
 75151  1  0  0  0  0
 87152  1  0  0  0  0
 97153  1  0  0  0  0
 98154  1  0  0  0  0
 99155  1  0  0  0  0
100156  1  0  0  0  0
101157  1  0  0  0  0
102158  1  0  0  0  0
103159  1  0  0  0  0
104160  1  0  0  0  0
M  END
