IT-OH.sdf
  xtb     12202113283D
 energy: -229.278021932053 gnorm: 0.000268857286 xtb: 6.4.1 (unknown)
139153  0     0  0            999 V2000
    6.8659    2.8057    6.3021 C   0  0  0  0  0  0  0  0  0  0  0  0
    5.6506    2.7274    6.2746 O   0  0  0  0  0  0  0  0  0  0  0  0
    7.7128    2.7910    7.5087 C   0  0  0  0  0  0  0  0  0  0  0  0
    7.3332    2.6647    8.8301 C   0  0  0  0  0  0  0  0  0  0  0  0
    8.3258    2.6714    9.8002 C   0  0  0  0  0  0  0  0  0  0  0  0
    9.6588    2.8026    9.4398 C   0  0  0  0  0  0  0  0  0  0  0  0
   10.0435    2.9316    8.1111 C   0  0  0  0  0  0  0  0  0  0  0  0
    9.0609    2.9261    7.1337 C   0  0  0  0  0  0  0  0  0  0  0  0
    9.1366    3.0346    5.6760 C   0  0  0  0  0  0  0  0  0  0  0  0
   10.2925    3.2024    4.9582 C   0  0  0  0  0  0  0  0  0  0  0  0
   11.5782    3.2881    5.5332 C   0  0  0  0  0  0  0  0  0  0  0  0
   12.6537    3.3647    5.9278 N   0  0  0  0  0  0  0  0  0  0  0  0
   10.3880    3.3206    3.5558 C   0  0  0  0  0  0  0  0  0  0  0  0
   10.5606    3.4262    2.4247 N   0  0  0  0  0  0  0  0  0  0  0  0
    7.7840    2.9349    5.1630 C   0  0  0  0  0  0  0  0  0  0  0  0
    7.4292    2.9206    3.8379 C   0  0  0  0  0  0  0  0  0  0  0  0
    6.1738    2.7731    3.2314 C   0  0  0  0  0  0  0  0  0  0  0  0
    6.0391    2.6908    1.8423 C   0  0  0  0  0  0  0  0  0  0  0  0
    4.7318    2.4820    1.4540 C   0  0  0  0  0  0  0  0  0  0  0  0
    3.8283    2.4199    2.5379 C   0  0  0  0  0  0  0  0  0  0  0  0
    4.6229    2.6146    4.0515 S   0  0  0  0  0  0  0  0  0  0  0  0
    2.5266    2.1650    2.1129 C   0  0  0  0  0  0  0  0  0  0  0  0
    1.1853    1.9211    2.7499 C   0  0  0  0  0  0  0  0  0  0  0  0
    0.5720    3.1685    3.3624 C   0  0  0  0  0  0  0  0  0  0  0  0
   -0.4723    3.0500    4.2708 C   0  0  0  0  0  0  0  0  0  0  0  0
   -1.0733    4.1763    4.7987 C   0  0  0  0  0  0  0  0  0  0  0  0
   -0.6541    5.4484    4.4310 C   0  0  0  0  0  0  0  0  0  0  0  0
   -1.2782    6.6702    5.0409 C   0  0  0  0  0  0  0  0  0  0  0  0
   -0.5421    7.0626    6.3235 C   0  0  0  0  0  0  0  0  0  0  0  0
    0.3873    5.5607    3.5203 C   0  0  0  0  0  0  0  0  0  0  0  0
    0.9905    4.4367    2.9867 C   0  0  0  0  0  0  0  0  0  0  0  0
    1.3464    0.8134    3.7738 C   0  0  0  0  0  0  0  0  0  0  0  0
    1.8679    1.1240    5.0242 C   0  0  0  0  0  0  0  0  0  0  0  0
    2.0793    0.1318    5.9609 C   0  0  0  0  0  0  0  0  0  0  0  0
    1.7792   -1.1942    5.6749 C   0  0  0  0  0  0  0  0  0  0  0  0
    1.9551   -2.2629    6.7148 C   0  0  0  0  0  0  0  0  0  0  0  0
    0.6860   -2.3972    7.5591 C   0  0  0  0  0  0  0  0  0  0  0  0
    1.2690   -1.4994    4.4208 C   0  0  0  0  0  0  0  0  0  0  0  0
    1.0620   -0.5109    3.4752 C   0  0  0  0  0  0  0  0  0  0  0  0
    0.3567    1.5445    1.5338 C   0  0  0  0  0  0  0  0  0  0  0  0
    1.1242    1.6412    0.3485 C   0  0  0  0  0  0  0  0  0  0  0  0
    2.4472    2.0144    0.7381 C   0  0  0  0  0  0  0  0  0  0  0  0
    3.9551    2.2240   -0.0871 S   0  0  0  0  0  0  0  0  0  0  0  0
    0.5924    1.3330   -0.9017 C   0  0  0  0  0  0  0  0  0  0  0  0
   -0.7043    0.8785   -0.9381 C   0  0  0  0  0  0  0  0  0  0  0  0
   -1.5158    0.4311   -2.1414 C   0  0  0  0  0  0  0  0  0  0  0  0
   -1.7792    1.6670   -2.9873 C   0  0  0  0  0  0  0  0  0  0  0  0
   -2.9394    2.4132   -2.8431 C   0  0  0  0  0  0  0  0  0  0  0  0
   -3.1419    3.5478   -3.6076 C   0  0  0  0  0  0  0  0  0  0  0  0
   -2.1920    3.9687   -4.5275 C   0  0  0  0  0  0  0  0  0  0  0  0
   -2.3988    5.2227   -5.3270 C   0  0  0  0  0  0  0  0  0  0  0  0
   -1.8533    6.4355   -4.5704 C   0  0  0  0  0  0  0  0  0  0  0  0
   -1.0258    3.2251   -4.6577 C   0  0  0  0  0  0  0  0  0  0  0  0
   -0.8198    2.0893   -3.8989 C   0  0  0  0  0  0  0  0  0  0  0  0
   -0.9441   -0.7013   -2.9689 C   0  0  0  0  0  0  0  0  0  0  0  0
    0.0075   -1.5758   -2.4688 C   0  0  0  0  0  0  0  0  0  0  0  0
    0.3998   -2.6765   -3.2123 C   0  0  0  0  0  0  0  0  0  0  0  0
   -0.1548   -2.9326   -4.4580 C   0  0  0  0  0  0  0  0  0  0  0  0
    0.1996   -4.1650   -5.2388 C   0  0  0  0  0  0  0  0  0  0  0  0
   -0.9259   -5.1965   -5.1354 C   0  0  0  0  0  0  0  0  0  0  0  0
   -1.1023   -2.0468   -4.9569 C   0  0  0  0  0  0  0  0  0  0  0  0
   -1.4937   -0.9469   -4.2228 C   0  0  0  0  0  0  0  0  0  0  0  0
   -2.7507   -0.0957   -1.4633 C   0  0  0  0  0  0  0  0  0  0  0  0
   -2.7144    0.1659   -0.1049 C   0  0  0  0  0  0  0  0  0  0  0  0
   -1.4698    0.7733    0.2502 C   0  0  0  0  0  0  0  0  0  0  0  0
   -0.9538    1.1301    1.4930 C   0  0  0  0  0  0  0  0  0  0  0  0
   -4.0734   -0.4617    0.7702 S   0  0  0  0  0  0  0  0  0  0  0  0
   -4.6673   -1.1728   -0.7104 C   0  0  0  0  0  0  0  0  0  0  0  0
   -3.8441   -0.8816   -1.8199 C   0  0  0  0  0  0  0  0  0  0  0  0
   -4.3378   -1.7242   -3.2333 S   0  0  0  0  0  0  0  0  0  0  0  0
   -5.6721   -2.4513   -2.3455 C   0  0  0  0  0  0  0  0  0  0  0  0
   -5.7109   -2.0243   -1.0152 C   0  0  0  0  0  0  0  0  0  0  0  0
   -6.5823   -3.3930   -2.8510 C   0  0  0  0  0  0  0  0  0  0  0  0
   -6.5641   -4.0937   -4.0289 C   0  0  0  0  0  0  0  0  0  0  0  0
   -7.5163   -5.1119   -4.4179 C   0  0  0  0  0  0  0  0  0  0  0  0
   -8.7394   -5.3624   -3.8517 C   0  0  0  0  0  0  0  0  0  0  0  0
   -9.6324   -6.3607   -4.2936 C   0  0  0  0  0  0  0  0  0  0  0  0
  -10.4061   -7.1535   -4.5959 N   0  0  0  0  0  0  0  0  0  0  0  0
   -9.3006   -4.6488   -2.7717 C   0  0  0  0  0  0  0  0  0  0  0  0
   -9.8326   -4.1164   -1.9038 N   0  0  0  0  0  0  0  0  0  0  0  0
   -6.9594   -5.8149   -5.5746 C   0  0  0  0  0  0  0  0  0  0  0  0
   -7.4211   -6.9133   -6.2780 C   0  0  0  0  0  0  0  0  0  0  0  0
   -6.6576   -7.3803   -7.3416 C   0  0  0  0  0  0  0  0  0  0  0  0
   -5.4667   -6.7774   -7.6980 C   0  0  0  0  0  0  0  0  0  0  0  0
   -4.9839   -5.6674   -6.9977 C   0  0  0  0  0  0  0  0  0  0  0  0
   -5.7494   -5.1947   -5.9348 C   0  0  0  0  0  0  0  0  0  0  0  0
   -5.4887   -4.0599   -5.0359 C   0  0  0  0  0  0  0  0  0  0  0  0
   -4.5759   -3.2604   -5.1132 O   0  0  0  0  0  0  0  0  0  0  0  0
   -3.8237   -5.0667   -7.3101 O   0  0  0  0  0  0  0  0  0  0  0  0
    6.2896    2.5634    9.0858 H   0  0  0  0  0  0  0  0  0  0  0  0
    8.0606    2.5732   10.8421 H   0  0  0  0  0  0  0  0  0  0  0  0
   10.4189    2.8046   10.2066 H   0  0  0  0  0  0  0  0  0  0  0  0
   11.0875    3.0307    7.8636 H   0  0  0  0  0  0  0  0  0  0  0  0
    8.2350    3.0072    3.1188 H   0  0  0  0  0  0  0  0  0  0  0  0
    6.8772    2.7653    1.1728 H   0  0  0  0  0  0  0  0  0  0  0  0
   -0.8084    2.0698    4.5764 H   0  0  0  0  0  0  0  0  0  0  0  0
   -1.8833    4.0658    5.5058 H   0  0  0  0  0  0  0  0  0  0  0  0
   -1.2350    7.5005    4.3330 H   0  0  0  0  0  0  0  0  0  0  0  0
   -2.3267    6.4735    5.2736 H   0  0  0  0  0  0  0  0  0  0  0  0
    0.5036    7.2728    6.1101 H   0  0  0  0  0  0  0  0  0  0  0  0
   -0.9921    7.9489    6.7649 H   0  0  0  0  0  0  0  0  0  0  0  0
   -0.5863    6.2523    7.0478 H   0  0  0  0  0  0  0  0  0  0  0  0
    0.7297    6.5407    3.2196 H   0  0  0  0  0  0  0  0  0  0  0  0
    1.7938    4.5527    2.2738 H   0  0  0  0  0  0  0  0  0  0  0  0
    2.1064    2.1490    5.2666 H   0  0  0  0  0  0  0  0  0  0  0  0
    2.4899    0.3926    6.9253 H   0  0  0  0  0  0  0  0  0  0  0  0
    2.7951   -2.0112    7.3651 H   0  0  0  0  0  0  0  0  0  0  0  0
    2.1693   -3.2190    6.2328 H   0  0  0  0  0  0  0  0  0  0  0  0
    0.8095   -3.1711    8.3132 H   0  0  0  0  0  0  0  0  0  0  0  0
    0.4636   -1.4569    8.0587 H   0  0  0  0  0  0  0  0  0  0  0  0
   -0.1613   -2.6581    6.9289 H   0  0  0  0  0  0  0  0  0  0  0  0
    1.0347   -2.5256    4.1750 H   0  0  0  0  0  0  0  0  0  0  0  0
    0.6748   -0.7764    2.5022 H   0  0  0  0  0  0  0  0  0  0  0  0
    1.1959    1.4139   -1.7923 H   0  0  0  0  0  0  0  0  0  0  0  0
   -3.6966    2.1073   -2.1361 H   0  0  0  0  0  0  0  0  0  0  0  0
   -4.0565    4.1114   -3.4893 H   0  0  0  0  0  0  0  0  0  0  0  0
   -3.4639    5.3679   -5.5185 H   0  0  0  0  0  0  0  0  0  0  0  0
   -1.8872    5.1381   -6.2878 H   0  0  0  0  0  0  0  0  0  0  0  0
   -2.3606    6.5442   -3.6143 H   0  0  0  0  0  0  0  0  0  0  0  0
   -2.0029    7.3441   -5.1490 H   0  0  0  0  0  0  0  0  0  0  0  0
   -0.7892    6.3152   -4.3801 H   0  0  0  0  0  0  0  0  0  0  0  0
   -0.2720    3.5357   -5.3671 H   0  0  0  0  0  0  0  0  0  0  0  0
    0.0853    1.5141   -4.0284 H   0  0  0  0  0  0  0  0  0  0  0  0
    0.4392   -1.4049   -1.4927 H   0  0  0  0  0  0  0  0  0  0  0  0
    1.1411   -3.3516   -2.8077 H   0  0  0  0  0  0  0  0  0  0  0  0
    0.3494   -3.9032   -6.2888 H   0  0  0  0  0  0  0  0  0  0  0  0
    1.1280   -4.5965   -4.8587 H   0  0  0  0  0  0  0  0  0  0  0  0
   -0.6818   -6.0857   -5.7134 H   0  0  0  0  0  0  0  0  0  0  0  0
   -1.8581   -4.7780   -5.5076 H   0  0  0  0  0  0  0  0  0  0  0  0
   -1.0734   -5.4885   -4.0977 H   0  0  0  0  0  0  0  0  0  0  0  0
   -1.5546   -2.2306   -5.9195 H   0  0  0  0  0  0  0  0  0  0  0  0
   -2.2373   -0.2736   -4.6226 H   0  0  0  0  0  0  0  0  0  0  0  0
   -1.5539    1.0436    2.3855 H   0  0  0  0  0  0  0  0  0  0  0  0
   -6.4546   -2.3638   -0.3170 H   0  0  0  0  0  0  0  0  0  0  0  0
   -7.3782   -3.6313   -2.1547 H   0  0  0  0  0  0  0  0  0  0  0  0
   -8.3409   -7.4089   -6.0186 H   0  0  0  0  0  0  0  0  0  0  0  0
   -7.0019   -8.2371   -7.9005 H   0  0  0  0  0  0  0  0  0  0  0  0
   -4.8932   -7.1658   -8.5292 H   0  0  0  0  0  0  0  0  0  0  0  0
   -3.4055   -5.5010   -8.0648 H   0  0  0  0  0  0  0  0  0  0  0  0
  1  2  2  0  0  0  0
  1  3  1  0  0  0  0
  3  4  2  0  0  0  0
  4  5  1  0  0  0  0
  5  6  2  0  0  0  0
  6  7  1  0  0  0  0
  7  8  2  0  0  0  0
  3  8  1  0  0  0  0
  8  9  1  0  0  0  0
  9 10  2  0  0  0  0
 10 11  1  0  0  0  0
 11 12  3  0  0  0  0
 10 13  1  0  0  0  0
 13 14  3  0  0  0  0
  9 15  1  0  0  0  0
  1 15  1  0  0  0  0
 15 16  2  0  0  0  0
 16 17  1  0  0  0  0
 17 18  2  0  0  0  0
 18 19  1  0  0  0  0
 19 20  2  0  0  0  0
 20 21  1  0  0  0  0
 17 21  1  0  0  0  0
 20 22  1  0  0  0  0
 22 23  1  0  0  0  0
 23 24  1  0  0  0  0
 24 25  2  0  0  0  0
 25 26  1  0  0  0  0
 26 27  2  0  0  0  0
 27 28  1  0  0  0  0
 28 29  1  0  0  0  0
 27 30  1  0  0  0  0
 30 31  2  0  0  0  0
 24 31  1  0  0  0  0
 23 32  1  0  0  0  0
 32 33  2  0  0  0  0
 33 34  1  0  0  0  0
 34 35  2  0  0  0  0
 35 36  1  0  0  0  0
 36 37  1  0  0  0  0
 35 38  1  0  0  0  0
 38 39  2  0  0  0  0
 32 39  1  0  0  0  0
 23 40  1  0  0  0  0
 40 41  2  0  0  0  0
 41 42  1  0  0  0  0
 22 42  2  0  0  0  0
 42 43  1  0  0  0  0
 19 43  1  0  0  0  0
 41 44  1  0  0  0  0
 44 45  2  0  0  0  0
 45 46  1  0  0  0  0
 46 47  1  0  0  0  0
 47 48  2  0  0  0  0
 48 49  1  0  0  0  0
 49 50  2  0  0  0  0
 50 51  1  0  0  0  0
 51 52  1  0  0  0  0
 50 53  1  0  0  0  0
 53 54  2  0  0  0  0
 47 54  1  0  0  0  0
 46 55  1  0  0  0  0
 55 56  2  0  0  0  0
 56 57  1  0  0  0  0
 57 58  2  0  0  0  0
 58 59  1  0  0  0  0
 59 60  1  0  0  0  0
 58 61  1  0  0  0  0
 61 62  2  0  0  0  0
 55 62  1  0  0  0  0
 46 63  1  0  0  0  0
 63 64  2  0  0  0  0
 64 65  1  0  0  0  0
 45 65  1  0  0  0  0
 65 66  2  0  0  0  0
 40 66  1  0  0  0  0
 64 67  1  0  0  0  0
 67 68  1  0  0  0  0
 68 69  2  0  0  0  0
 63 69  1  0  0  0  0
 69 70  1  0  0  0  0
 70 71  1  0  0  0  0
 71 72  2  0  0  0  0
 68 72  1  0  0  0  0
 71 73  1  0  0  0  0
 73 74  2  0  0  0  0
 74 75  1  0  0  0  0
 75 76  2  0  0  0  0
 76 77  1  0  0  0  0
 77 78  3  0  0  0  0
 76 79  1  0  0  0  0
 79 80  3  0  0  0  0
 75 81  1  0  0  0  0
 81 82  2  0  0  0  0
 82 83  1  0  0  0  0
 83 84  2  0  0  0  0
 84 85  1  0  0  0  0
 85 86  2  0  0  0  0
 81 86  1  0  0  0  0
 86 87  1  0  0  0  0
 74 87  1  0  0  0  0
 87 88  2  0  0  0  0
 85 89  1  0  0  0  0
  4 90  1  0  0  0  0
  5 91  1  0  0  0  0
  6 92  1  0  0  0  0
  7 93  1  0  0  0  0
 16 94  1  0  0  0  0
 18 95  1  0  0  0  0
 25 96  1  0  0  0  0
 26 97  1  0  0  0  0
 28 98  1  0  0  0  0
 28 99  1  0  0  0  0
 29100  1  0  0  0  0
 29101  1  0  0  0  0
 29102  1  0  0  0  0
 30103  1  0  0  0  0
 31104  1  0  0  0  0
 33105  1  0  0  0  0
 34106  1  0  0  0  0
 36107  1  0  0  0  0
 36108  1  0  0  0  0
 37109  1  0  0  0  0
 37110  1  0  0  0  0
 37111  1  0  0  0  0
 38112  1  0  0  0  0
 39113  1  0  0  0  0
 44114  1  0  0  0  0
 48115  1  0  0  0  0
 49116  1  0  0  0  0
 51117  1  0  0  0  0
 51118  1  0  0  0  0
 52119  1  0  0  0  0
 52120  1  0  0  0  0
 52121  1  0  0  0  0
 53122  1  0  0  0  0
 54123  1  0  0  0  0
 56124  1  0  0  0  0
 57125  1  0  0  0  0
 59126  1  0  0  0  0
 59127  1  0  0  0  0
 60128  1  0  0  0  0
 60129  1  0  0  0  0
 60130  1  0  0  0  0
 61131  1  0  0  0  0
 62132  1  0  0  0  0
 66133  1  0  0  0  0
 72134  1  0  0  0  0
 73135  1  0  0  0  0
 82136  1  0  0  0  0
 83137  1  0  0  0  0
 84138  1  0  0  0  0
 89139  1  0  0  0  0
M  END
