ITBTR-C.sdf
  xtb     12202113453D
 energy: -267.472312697966 gnorm: 0.000192587385 xtb: 6.4.1 (unknown)
158174  0     0  0            999 V2000
    1.3414    4.9028   -4.7404 C   0  0  0  0  0  0  0  0  0  0  0  0
    2.3928    4.4044   -3.9923 C   0  0  0  0  0  0  0  0  0  0  0  0
    1.9896    4.0268   -2.7156 C   0  0  0  0  0  0  0  0  0  0  0  0
    0.6274    4.2612   -2.4601 C   0  0  0  0  0  0  0  0  0  0  0  0
   -0.1573    4.9555   -3.8299 S   0  0  0  0  0  0  0  0  0  0  0  0
    0.2246    3.7449   -1.2305 C   0  0  0  0  0  0  0  0  0  0  0  0
   -1.0489    3.6341   -0.4358 C   0  0  0  0  0  0  0  0  0  0  0  0
   -2.2147    3.0488   -1.2048 C   0  0  0  0  0  0  0  0  0  0  0  0
   -3.5179    3.3111   -0.8017 C   0  0  0  0  0  0  0  0  0  0  0  0
   -4.5862    2.7581   -1.4812 C   0  0  0  0  0  0  0  0  0  0  0  0
   -4.3835    1.9302   -2.5778 C   0  0  0  0  0  0  0  0  0  0  0  0
   -5.5474    1.3041   -3.2902 C   0  0  0  0  0  0  0  0  0  0  0  0
   -5.9388   -0.0135   -2.6178 C   0  0  0  0  0  0  0  0  0  0  0  0
   -3.0789    1.6571   -2.9651 C   0  0  0  0  0  0  0  0  0  0  0  0
   -2.0062    2.2041   -2.2855 C   0  0  0  0  0  0  0  0  0  0  0  0
   -1.3619    5.0319    0.0736 C   0  0  0  0  0  0  0  0  0  0  0  0
   -1.1211    5.4138    1.3844 C   0  0  0  0  0  0  0  0  0  0  0  0
   -1.3793    6.7113    1.7909 C   0  0  0  0  0  0  0  0  0  0  0  0
   -1.8707    7.6560    0.9012 C   0  0  0  0  0  0  0  0  0  0  0  0
   -2.1897    9.0507    1.3568 C   0  0  0  0  0  0  0  0  0  0  0  0
   -3.6420    9.1392    1.8300 C   0  0  0  0  0  0  0  0  0  0  0  0
   -2.1033    7.2675   -0.4128 C   0  0  0  0  0  0  0  0  0  0  0  0
   -1.8501    5.9742   -0.8245 C   0  0  0  0  0  0  0  0  0  0  0  0
   -0.6145    2.6700    0.6547 C   0  0  0  0  0  0  0  0  0  0  0  0
    0.7764    2.4171    0.5790 C   0  0  0  0  0  0  0  0  0  0  0  0
    1.2650    3.1169   -0.5681 C   0  0  0  0  0  0  0  0  0  0  0  0
    2.7791    3.1891   -1.4077 S   0  0  0  0  0  0  0  0  0  0  0  0
    1.4048    1.5066    1.4245 C   0  0  0  0  0  0  0  0  0  0  0  0
    0.6039    0.7978    2.2889 C   0  0  0  0  0  0  0  0  0  0  0  0
    0.9998   -0.3442    3.2108 C   0  0  0  0  0  0  0  0  0  0  0  0
    1.6651   -1.5174    2.5177 C   0  0  0  0  0  0  0  0  0  0  0  0
    1.5431   -1.7254    1.1517 C   0  0  0  0  0  0  0  0  0  0  0  0
    2.1091   -2.8415    0.5621 C   0  0  0  0  0  0  0  0  0  0  0  0
    2.7921   -3.7831    1.3195 C   0  0  0  0  0  0  0  0  0  0  0  0
    3.4451   -4.9689    0.6705 C   0  0  0  0  0  0  0  0  0  0  0  0
    4.8913   -4.6403    0.2937 C   0  0  0  0  0  0  0  0  0  0  0  0
    2.8950   -3.5783    2.6896 C   0  0  0  0  0  0  0  0  0  0  0  0
    2.3371   -2.4631    3.2834 C   0  0  0  0  0  0  0  0  0  0  0  0
    1.8700    0.2282    4.3164 C   0  0  0  0  0  0  0  0  0  0  0  0
    1.3302    0.6233    5.5318 C   0  0  0  0  0  0  0  0  0  0  0  0
    2.1363    1.1741    6.5112 C   0  0  0  0  0  0  0  0  0  0  0  0
    3.4969    1.3500    6.3014 C   0  0  0  0  0  0  0  0  0  0  0  0
    4.3609    1.9871    7.3511 C   0  0  0  0  0  0  0  0  0  0  0  0
    4.3821    3.5069    7.1756 C   0  0  0  0  0  0  0  0  0  0  0  0
    4.0300    0.9639    5.0781 C   0  0  0  0  0  0  0  0  0  0  0  0
    3.2297    0.4108    4.0973 C   0  0  0  0  0  0  0  0  0  0  0  0
   -0.3529   -0.7968    3.6896 C   0  0  0  0  0  0  0  0  0  0  0  0
   -1.3458    0.0448    3.2178 C   0  0  0  0  0  0  0  0  0  0  0  0
   -0.7900    1.0350    2.3491 C   0  0  0  0  0  0  0  0  0  0  0  0
   -1.4080    1.9949    1.5514 C   0  0  0  0  0  0  0  0  0  0  0  0
   -2.9502   -0.4455    3.6496 S   0  0  0  0  0  0  0  0  0  0  0  0
   -2.2899   -1.8579    4.4240 C   0  0  0  0  0  0  0  0  0  0  0  0
   -0.8860   -1.8946    4.3604 C   0  0  0  0  0  0  0  0  0  0  0  0
   -0.2721   -3.3599    5.0222 S   0  0  0  0  0  0  0  0  0  0  0  0
   -1.9086   -3.9287    5.3447 C   0  0  0  0  0  0  0  0  0  0  0  0
   -2.8605   -2.9940    4.9927 C   0  0  0  0  0  0  0  0  0  0  0  0
   -2.1251   -5.2679    5.7876 C   0  0  0  0  0  0  0  0  0  0  0  0
   -1.0886   -6.1951    5.8570 C   0  0  0  0  0  0  0  0  0  0  0  0
   -1.2880   -7.5410    6.1284 C   0  0  0  0  0  0  0  0  0  0  0  0
   -2.5472   -8.0792    6.3782 C   0  0  0  0  0  0  0  0  0  0  0  0
   -3.6226   -7.1484    6.4123 C   0  0  0  0  0  0  0  0  0  0  0  0
   -3.4224   -5.7572    6.1065 C   0  0  0  0  0  0  0  0  0  0  0  0
   -4.8961   -7.4221    6.6808 N   0  0  0  0  0  0  0  0  0  0  0  0
   -5.7561   -6.0695    6.5721 S   0  0  0  0  0  0  0  0  0  0  0  0
   -4.5620   -5.0708    6.1679 N   0  0  0  0  0  0  0  0  0  0  0  0
    1.3395    5.2298   -6.1294 C   0  0  0  0  0  0  0  0  0  0  0  0
    2.4827    5.2441   -6.9264 C   0  0  0  0  0  0  0  0  0  0  0  0
    2.4324    5.4149   -8.3021 C   0  0  0  0  0  0  0  0  0  0  0  0
    1.2423    5.5628   -9.0173 C   0  0  0  0  0  0  0  0  0  0  0  0
    0.0627    5.6299   -8.2324 C   0  0  0  0  0  0  0  0  0  0  0  0
    0.1166    5.4809   -6.8051 C   0  0  0  0  0  0  0  0  0  0  0  0
   -1.1812    5.8391   -8.6521 N   0  0  0  0  0  0  0  0  0  0  0  0
   -2.1840    5.8435   -7.3924 S   0  0  0  0  0  0  0  0  0  0  0  0
   -1.0877    5.5821   -6.2488 N   0  0  0  0  0  0  0  0  0  0  0  0
    1.2708    5.5908  -10.4406 C   0  0  0  0  0  0  0  0  0  0  0  0
    0.2683    5.4980  -11.3484 C   0  0  0  0  0  0  0  0  0  0  0  0
    0.5982    5.4307  -12.7774 C   0  0  0  0  0  0  0  0  0  0  0  0
   -0.5390    5.2124  -13.5383 N   0  0  0  0  0  0  0  0  0  0  0  0
   -1.6982    5.1157  -12.8397 C   0  0  0  0  0  0  0  0  0  0  0  0
   -1.4530    5.3429  -11.1127 S   0  0  0  0  0  0  0  0  0  0  0  0
   -2.9661    4.8934  -13.3149 C   0  0  0  0  0  0  0  0  0  0  0  0
   -0.4044    5.0371  -14.9730 C   0  0  0  0  0  0  0  0  0  0  0  0
   -0.3368    3.5619  -15.3504 C   0  0  0  0  0  0  0  0  0  0  0  0
    1.7059    5.5370  -13.2546 O   0  0  0  0  0  0  0  0  0  0  0  0
   -3.3455    4.7017  -14.6538 C   0  0  0  0  0  0  0  0  0  0  0  0
   -4.0367    4.8336  -12.3981 C   0  0  0  0  0  0  0  0  0  0  0  0
   -4.9141    4.7780  -11.6609 N   0  0  0  0  0  0  0  0  0  0  0  0
   -3.7202    4.5326  -15.7267 N   0  0  0  0  0  0  0  0  0  0  0  0
   -2.8410   -9.4623    6.5568 C   0  0  0  0  0  0  0  0  0  0  0  0
   -2.0604  -10.5415    6.3106 C   0  0  0  0  0  0  0  0  0  0  0  0
   -2.5689  -11.9038    6.4718 C   0  0  0  0  0  0  0  0  0  0  0  0
   -1.6207  -12.8360    6.0613 N   0  0  0  0  0  0  0  0  0  0  0  0
   -0.4443  -12.3321    5.6131 C   0  0  0  0  0  0  0  0  0  0  0  0
   -0.4210  -10.5808    5.6963 S   0  0  0  0  0  0  0  0  0  0  0  0
    0.6587  -13.0030    5.1493 C   0  0  0  0  0  0  0  0  0  0  0  0
   -1.9749  -14.2437    6.0692 C   0  0  0  0  0  0  0  0  0  0  0  0
   -2.4528  -14.7072    4.6981 C   0  0  0  0  0  0  0  0  0  0  0  0
   -3.6580  -12.2146    6.8946 O   0  0  0  0  0  0  0  0  0  0  0  0
    0.8057  -14.3949    5.0251 C   0  0  0  0  0  0  0  0  0  0  0  0
    1.7873  -12.2647    4.7350 C   0  0  0  0  0  0  0  0  0  0  0  0
    2.7058  -11.6684    4.3936 N   0  0  0  0  0  0  0  0  0  0  0  0
    0.9907  -15.5207    4.8920 N   0  0  0  0  0  0  0  0  0  0  0  0
    3.3918    4.2802   -4.3665 H   0  0  0  0  0  0  0  0  0  0  0  0
   -3.6971    3.9619    0.0421 H   0  0  0  0  0  0  0  0  0  0  0  0
   -5.5940    2.9775   -1.1582 H   0  0  0  0  0  0  0  0  0  0  0  0
   -5.2850    1.1126   -4.3324 H   0  0  0  0  0  0  0  0  0  0  0  0
   -6.4014    1.9840   -3.2721 H   0  0  0  0  0  0  0  0  0  0  0  0
   -6.2168    0.1589   -1.5803 H   0  0  0  0  0  0  0  0  0  0  0  0
   -5.1035   -0.7101   -2.6357 H   0  0  0  0  0  0  0  0  0  0  0  0
   -6.7818   -0.4678   -3.1329 H   0  0  0  0  0  0  0  0  0  0  0  0
   -2.8982    1.0098   -3.8115 H   0  0  0  0  0  0  0  0  0  0  0  0
   -0.9998    1.9711   -2.6020 H   0  0  0  0  0  0  0  0  0  0  0  0
   -0.7315    4.6990    2.0945 H   0  0  0  0  0  0  0  0  0  0  0  0
   -1.1894    6.9928    2.8170 H   0  0  0  0  0  0  0  0  0  0  0  0
   -2.0363    9.7525    0.5346 H   0  0  0  0  0  0  0  0  0  0  0  0
   -1.5263    9.3338    2.1766 H   0  0  0  0  0  0  0  0  0  0  0  0
   -4.3197    8.8718    1.0223 H   0  0  0  0  0  0  0  0  0  0  0  0
   -3.8745   10.1493    2.1589 H   0  0  0  0  0  0  0  0  0  0  0  0
   -3.8118    8.4559    2.6592 H   0  0  0  0  0  0  0  0  0  0  0  0
   -2.4824    7.9879   -1.1233 H   0  0  0  0  0  0  0  0  0  0  0  0
   -2.0351    5.6881   -1.8500 H   0  0  0  0  0  0  0  0  0  0  0  0
    2.4653    1.3237    1.3472 H   0  0  0  0  0  0  0  0  0  0  0  0
    1.0040   -1.0146    0.5423 H   0  0  0  0  0  0  0  0  0  0  0  0
    2.0107   -2.9848   -0.5047 H   0  0  0  0  0  0  0  0  0  0  0  0
    3.4369   -5.8179    1.3567 H   0  0  0  0  0  0  0  0  0  0  0  0
    2.8938   -5.2501   -0.2289 H   0  0  0  0  0  0  0  0  0  0  0  0
    5.4603   -4.3686    1.1800 H   0  0  0  0  0  0  0  0  0  0  0  0
    4.9207   -3.8041   -0.4015 H   0  0  0  0  0  0  0  0  0  0  0  0
    5.3666   -5.4989   -0.1744 H   0  0  0  0  0  0  0  0  0  0  0  0
    3.4138   -4.3032    3.3001 H   0  0  0  0  0  0  0  0  0  0  0  0
    2.4273   -2.3207    4.3507 H   0  0  0  0  0  0  0  0  0  0  0  0
    0.2741    0.4977    5.7216 H   0  0  0  0  0  0  0  0  0  0  0  0
    1.6997    1.4681    7.4552 H   0  0  0  0  0  0  0  0  0  0  0  0
    3.9763    1.7453    8.3440 H   0  0  0  0  0  0  0  0  0  0  0  0
    5.3798    1.6021    7.2760 H   0  0  0  0  0  0  0  0  0  0  0  0
    3.3758    3.9115    7.2597 H   0  0  0  0  0  0  0  0  0  0  0  0
    5.0074    3.9691    7.9358 H   0  0  0  0  0  0  0  0  0  0  0  0
    4.7745    3.7691    6.1956 H   0  0  0  0  0  0  0  0  0  0  0  0
    5.0869    1.0933    4.8927 H   0  0  0  0  0  0  0  0  0  0  0  0
    3.6671    0.1026    3.1590 H   0  0  0  0  0  0  0  0  0  0  0  0
   -2.4743    2.1541    1.6007 H   0  0  0  0  0  0  0  0  0  0  0  0
   -3.9133   -3.1635    5.1184 H   0  0  0  0  0  0  0  0  0  0  0  0
   -0.0843   -5.8546    5.6510 H   0  0  0  0  0  0  0  0  0  0  0  0
   -0.4238   -8.1865    6.1403 H   0  0  0  0  0  0  0  0  0  0  0  0
    3.4453    5.0982   -6.4625 H   0  0  0  0  0  0  0  0  0  0  0  0
    3.3589    5.3929   -8.8570 H   0  0  0  0  0  0  0  0  0  0  0  0
    2.2592    5.6373  -10.8873 H   0  0  0  0  0  0  0  0  0  0  0  0
    0.5312    5.5319  -15.2475 H   0  0  0  0  0  0  0  0  0  0  0  0
   -1.2375    5.5304  -15.4758 H   0  0  0  0  0  0  0  0  0  0  0  0
    0.5065    3.0865  -14.8545 H   0  0  0  0  0  0  0  0  0  0  0  0
   -1.2519    3.0444  -15.0721 H   0  0  0  0  0  0  0  0  0  0  0  0
   -0.2075    3.4715  -16.4246 H   0  0  0  0  0  0  0  0  0  0  0  0
   -3.8506   -9.6875    6.8816 H   0  0  0  0  0  0  0  0  0  0  0  0
   -1.1172  -14.8299    6.4028 H   0  0  0  0  0  0  0  0  0  0  0  0
   -2.7866  -14.3405    6.7955 H   0  0  0  0  0  0  0  0  0  0  0  0
   -3.3174  -14.1255    4.3861 H   0  0  0  0  0  0  0  0  0  0  0  0
   -1.6670  -14.6054    3.9531 H   0  0  0  0  0  0  0  0  0  0  0  0
   -2.7366  -15.7537    4.7526 H   0  0  0  0  0  0  0  0  0  0  0  0
  1  2  2  0  0  0  0
  2  3  1  0  0  0  0
  3  4  2  0  0  0  0
  4  5  1  0  0  0  0
  1  5  1  0  0  0  0
  4  6  1  0  0  0  0
  6  7  1  0  0  0  0
  7  8  1  0  0  0  0
  8  9  2  0  0  0  0
  9 10  1  0  0  0  0
 10 11  2  0  0  0  0
 11 12  1  0  0  0  0
 12 13  1  0  0  0  0
 11 14  1  0  0  0  0
 14 15  2  0  0  0  0
  8 15  1  0  0  0  0
  7 16  1  0  0  0  0
 16 17  2  0  0  0  0
 17 18  1  0  0  0  0
 18 19  2  0  0  0  0
 19 20  1  0  0  0  0
 20 21  1  0  0  0  0
 19 22  1  0  0  0  0
 22 23  2  0  0  0  0
 16 23  1  0  0  0  0
  7 24  1  0  0  0  0
 24 25  2  0  0  0  0
 25 26  1  0  0  0  0
  6 26  2  0  0  0  0
 26 27  1  0  0  0  0
  3 27  1  0  0  0  0
 25 28  1  0  0  0  0
 28 29  2  0  0  0  0
 29 30  1  0  0  0  0
 30 31  1  0  0  0  0
 31 32  2  0  0  0  0
 32 33  1  0  0  0  0
 33 34  2  0  0  0  0
 34 35  1  0  0  0  0
 35 36  1  0  0  0  0
 34 37  1  0  0  0  0
 37 38  2  0  0  0  0
 31 38  1  0  0  0  0
 30 39  1  0  0  0  0
 39 40  2  0  0  0  0
 40 41  1  0  0  0  0
 41 42  2  0  0  0  0
 42 43  1  0  0  0  0
 43 44  1  0  0  0  0
 42 45  1  0  0  0  0
 45 46  2  0  0  0  0
 39 46  1  0  0  0  0
 30 47  1  0  0  0  0
 47 48  2  0  0  0  0
 48 49  1  0  0  0  0
 29 49  1  0  0  0  0
 49 50  2  0  0  0  0
 24 50  1  0  0  0  0
 48 51  1  0  0  0  0
 51 52  1  0  0  0  0
 52 53  2  0  0  0  0
 47 53  1  0  0  0  0
 53 54  1  0  0  0  0
 54 55  1  0  0  0  0
 55 56  2  0  0  0  0
 52 56  1  0  0  0  0
 57 58  2  0  0  0  0
 58 59  1  0  0  0  0
 59 60  2  0  0  0  0
 60 61  1  0  0  0  0
 61 62  1  0  0  0  0
 62 57  1  0  0  0  0
 61 63  2  0  0  0  0
 63 64  1  0  0  0  0
 64 65  1  0  0  0  0
 65 62  2  0  0  0  0
 66 67  2  0  0  0  0
 67 68  1  0  0  0  0
 68 69  2  0  0  0  0
 69 70  1  0  0  0  0
 70 71  1  0  0  0  0
 71 66  1  0  0  0  0
 70 72  2  0  0  0  0
 72 73  1  0  0  0  0
 73 74  1  0  0  0  0
 74 71  2  0  0  0  0
 57 55  1  0  0  0  0
  1 66  1  0  0  0  0
 75 76  2  0  0  0  0
 76 77  1  0  0  0  0
 77 78  1  0  0  0  0
 78 79  1  0  0  0  0
 79 80  1  0  0  0  0
 80 76  1  0  0  0  0
 79 81  2  0  0  0  0
 78 82  1  0  0  0  0
 82 83  1  0  0  0  0
 77 84  2  0  0  0  0
 81 85  1  0  0  0  0
 81 86  1  0  0  0  0
 86 87  3  0  0  0  0
 85 88  3  0  0  0  0
 89 90  2  0  0  0  0
 90 91  1  0  0  0  0
 91 92  1  0  0  0  0
 92 93  1  0  0  0  0
 93 94  1  0  0  0  0
 94 90  1  0  0  0  0
 93 95  2  0  0  0  0
 92 96  1  0  0  0  0
 96 97  1  0  0  0  0
 91 98  2  0  0  0  0
 95 99  1  0  0  0  0
 95100  1  0  0  0  0
100101  3  0  0  0  0
 99102  3  0  0  0  0
 69 75  1  0  0  0  0
 89 60  1  0  0  0  0
  2103  1  0  0  0  0
  9104  1  0  0  0  0
 10105  1  0  0  0  0
 12106  1  0  0  0  0
 12107  1  0  0  0  0
 13108  1  0  0  0  0
 13109  1  0  0  0  0
 13110  1  0  0  0  0
 14111  1  0  0  0  0
 15112  1  0  0  0  0
 17113  1  0  0  0  0
 18114  1  0  0  0  0
 20115  1  0  0  0  0
 20116  1  0  0  0  0
 21117  1  0  0  0  0
 21118  1  0  0  0  0
 21119  1  0  0  0  0
 22120  1  0  0  0  0
 23121  1  0  0  0  0
 28122  1  0  0  0  0
 32123  1  0  0  0  0
 33124  1  0  0  0  0
 35125  1  0  0  0  0
 35126  1  0  0  0  0
 36127  1  0  0  0  0
 36128  1  0  0  0  0
 36129  1  0  0  0  0
 37130  1  0  0  0  0
 38131  1  0  0  0  0
 40132  1  0  0  0  0
 41133  1  0  0  0  0
 43134  1  0  0  0  0
 43135  1  0  0  0  0
 44136  1  0  0  0  0
 44137  1  0  0  0  0
 44138  1  0  0  0  0
 45139  1  0  0  0  0
 46140  1  0  0  0  0
 50141  1  0  0  0  0
 56142  1  0  0  0  0
 58143  1  0  0  0  0
 59144  1  0  0  0  0
 67145  1  0  0  0  0
 68146  1  0  0  0  0
 75147  1  0  0  0  0
 82148  1  0  0  0  0
 82149  1  0  0  0  0
 83150  1  0  0  0  0
 83151  1  0  0  0  0
 83152  1  0  0  0  0
 89153  1  0  0  0  0
 96154  1  0  0  0  0
 96155  1  0  0  0  0
 97156  1  0  0  0  0
 97157  1  0  0  0  0
 97158  1  0  0  0  0
M  END
