ITCC-Br.sdf
  xtb     12202113533D
 energy: -228.218383864099 gnorm: 0.000954232760 xtb: 6.4.1 (unknown)
132146  0     0  0            999 V2000
    8.2945    1.6034    5.3525 C   0  0  0  0  0  0  0  0  0  0  0  0
    7.2128    2.1491    5.4165 O   0  0  0  0  0  0  0  0  0  0  0  0
    9.4387    1.8333    6.2319 C   0  0  0  0  0  0  0  0  0  0  0  0
   10.5236    1.0489    5.8723 C   0  0  0  0  0  0  0  0  0  0  0  0
   10.1554    0.2452    4.7206 C   0  0  0  0  0  0  0  0  0  0  0  0
   11.0023   -0.6446    4.1136 C   0  0  0  0  0  0  0  0  0  0  0  0
   12.3212   -0.8397    4.5782 C   0  0  0  0  0  0  0  0  0  0  0  0
   13.3972   -1.0146    4.9352 N   0  0  0  0  0  0  0  0  0  0  0  0
   10.7216   -1.4624    3.0003 C   0  0  0  0  0  0  0  0  0  0  0  0
   10.5824   -2.1679    2.1045 N   0  0  0  0  0  0  0  0  0  0  0  0
    8.7751    0.5754    4.3914 C   0  0  0  0  0  0  0  0  0  0  0  0
    8.0975   -0.0117    3.3557 C   0  0  0  0  0  0  0  0  0  0  0  0
    6.7785    0.1266    2.8903 C   0  0  0  0  0  0  0  0  0  0  0  0
    5.7036    0.8964    3.3119 C   0  0  0  0  0  0  0  0  0  0  0  0
    4.5698    0.6641    2.5505 C   0  0  0  0  0  0  0  0  0  0  0  0
    4.7426   -0.2885    1.5218 C   0  0  0  0  0  0  0  0  0  0  0  0
    6.3474   -0.8940    1.5061 S   0  0  0  0  0  0  0  0  0  0  0  0
    3.5760   -0.4959    0.7921 C   0  0  0  0  0  0  0  0  0  0  0  0
    3.1105   -1.3838   -0.3305 C   0  0  0  0  0  0  0  0  0  0  0  0
    3.7832   -1.1003   -1.6602 C   0  0  0  0  0  0  0  0  0  0  0  0
    4.3826    0.1249   -1.9140 C   0  0  0  0  0  0  0  0  0  0  0  0
    4.9549    0.3830   -3.1460 C   0  0  0  0  0  0  0  0  0  0  0  0
    4.9366   -0.5695   -4.1556 C   0  0  0  0  0  0  0  0  0  0  0  0
    5.5169   -0.2689   -5.5070 C   0  0  0  0  0  0  0  0  0  0  0  0
    4.4566    0.3583   -6.4146 C   0  0  0  0  0  0  0  0  0  0  0  0
    4.3234   -1.7894   -3.9000 C   0  0  0  0  0  0  0  0  0  0  0  0
    3.7529   -2.0538   -2.6698 C   0  0  0  0  0  0  0  0  0  0  0  0
    3.3236   -2.8182    0.1217 C   0  0  0  0  0  0  0  0  0  0  0  0
    4.5955   -3.3712    0.0313 C   0  0  0  0  0  0  0  0  0  0  0  0
    4.8396   -4.6474    0.4994 C   0  0  0  0  0  0  0  0  0  0  0  0
    3.8244   -5.4018    1.0745 C   0  0  0  0  0  0  0  0  0  0  0  0
    4.0803   -6.8048    1.5431 C   0  0  0  0  0  0  0  0  0  0  0  0
    3.8132   -7.8019    0.4136 C   0  0  0  0  0  0  0  0  0  0  0  0
    2.5575   -4.8421    1.1657 C   0  0  0  0  0  0  0  0  0  0  0  0
    2.3077   -3.5627    0.7027 C   0  0  0  0  0  0  0  0  0  0  0  0
    1.6508   -0.9756   -0.4291 C   0  0  0  0  0  0  0  0  0  0  0  0
    1.3352    0.0151    0.5314 C   0  0  0  0  0  0  0  0  0  0  0  0
    2.5301    0.2778    1.2700 C   0  0  0  0  0  0  0  0  0  0  0  0
    2.9465    1.2933    2.6062 S   0  0  0  0  0  0  0  0  0  0  0  0
    0.0540    0.5469    0.6497 C   0  0  0  0  0  0  0  0  0  0  0  0
   -0.9075    0.0630   -0.2058 C   0  0  0  0  0  0  0  0  0  0  0  0
   -2.3734    0.4501   -0.2836 C   0  0  0  0  0  0  0  0  0  0  0  0
   -3.1836    0.0503    0.9380 C   0  0  0  0  0  0  0  0  0  0  0  0
   -4.4795    0.5344    1.0735 C   0  0  0  0  0  0  0  0  0  0  0  0
   -5.2596    0.1541    2.1475 C   0  0  0  0  0  0  0  0  0  0  0  0
   -4.7696   -0.7178    3.1123 C   0  0  0  0  0  0  0  0  0  0  0  0
   -5.6340   -1.1577    4.2584 C   0  0  0  0  0  0  0  0  0  0  0  0
   -6.4725   -2.3734    3.8587 C   0  0  0  0  0  0  0  0  0  0  0  0
   -3.4804   -1.2091    2.9628 C   0  0  0  0  0  0  0  0  0  0  0  0
   -2.6950   -0.8355    1.8867 C   0  0  0  0  0  0  0  0  0  0  0  0
   -2.4713    1.9390   -0.5592 C   0  0  0  0  0  0  0  0  0  0  0  0
   -2.5143    2.4270   -1.8572 C   0  0  0  0  0  0  0  0  0  0  0  0
   -2.5670    3.7885   -2.0924 C   0  0  0  0  0  0  0  0  0  0  0  0
   -2.5649    4.6954   -1.0417 C   0  0  0  0  0  0  0  0  0  0  0  0
   -2.6733    6.1705   -1.2983 C   0  0  0  0  0  0  0  0  0  0  0  0
   -4.1419    6.5992   -1.3245 C   0  0  0  0  0  0  0  0  0  0  0  0
   -2.5093    4.2015    0.2553 C   0  0  0  0  0  0  0  0  0  0  0  0
   -2.4603    2.8420    0.4962 C   0  0  0  0  0  0  0  0  0  0  0  0
   -2.8316   -0.4091   -1.4305 C   0  0  0  0  0  0  0  0  0  0  0  0
   -1.7874   -1.1841   -1.9077 C   0  0  0  0  0  0  0  0  0  0  0  0
   -0.5869   -0.9109   -1.1822 C   0  0  0  0  0  0  0  0  0  0  0  0
    0.6967   -1.4366   -1.3056 C   0  0  0  0  0  0  0  0  0  0  0  0
   -2.2229   -2.2396   -3.2091 S   0  0  0  0  0  0  0  0  0  0  0  0
   -3.8569   -1.6362   -3.1168 C   0  0  0  0  0  0  0  0  0  0  0  0
   -4.0223   -0.6621   -2.1072 C   0  0  0  0  0  0  0  0  0  0  0  0
   -5.6390   -0.0825   -2.0289 S   0  0  0  0  0  0  0  0  0  0  0  0
   -6.0977   -1.1426   -3.3578 C   0  0  0  0  0  0  0  0  0  0  0  0
   -5.0172   -1.9019   -3.8154 C   0  0  0  0  0  0  0  0  0  0  0  0
   -7.3716   -1.2541   -3.9335 C   0  0  0  0  0  0  0  0  0  0  0  0
   -8.5494   -0.6205   -3.6344 C   0  0  0  0  0  0  0  0  0  0  0  0
   -9.8084   -0.8310   -4.3276 C   0  0  0  0  0  0  0  0  0  0  0  0
  -10.0821   -1.6506   -5.3908 C   0  0  0  0  0  0  0  0  0  0  0  0
   -9.1631   -2.4873   -6.0546 C   0  0  0  0  0  0  0  0  0  0  0  0
   -8.4733   -3.1898   -6.6459 N   0  0  0  0  0  0  0  0  0  0  0  0
  -11.3770   -1.7321   -5.9463 C   0  0  0  0  0  0  0  0  0  0  0  0
  -12.4223   -1.8140   -6.4118 N   0  0  0  0  0  0  0  0  0  0  0  0
  -10.7911    0.0215   -3.6798 C   0  0  0  0  0  0  0  0  0  0  0  0
  -10.1711    0.7176   -2.6518 C   0  0  0  0  0  0  0  0  0  0  0  0
   -8.7561    0.3705   -2.5595 C   0  0  0  0  0  0  0  0  0  0  0  0
   -7.9376    0.8023   -1.7701 O   0  0  0  0  0  0  0  0  0  0  0  0
    9.7533    2.8270    7.5867 S   0  0  0  0  0  0  0  0  0  0  0  0
   11.3634    2.1725    7.6649 C   0  0  0  0  0  0  0  0  0  0  0  0
   11.6430    1.2424    6.7016 C   0  0  0  0  0  0  0  0  0  0  0  0
  -11.2376    1.7595   -1.8154 S   0  0  0  0  0  0  0  0  0  0  0  0
  -12.5273    1.2478   -2.8654 C   0  0  0  0  0  0  0  0  0  0  0  0
  -12.1575    0.3265   -3.8069 C   0  0  0  0  0  0  0  0  0  0  0  0
  -14.2446    1.9602   -2.6420 Br  0  0  0  0  0  0  0  0  0  0  0  0
   12.5407    2.7585    8.9980 Br  0  0  0  0  0  0  0  0  0  0  0  0
    8.6661   -0.7329    2.7799 H   0  0  0  0  0  0  0  0  0  0  0  0
    5.7632    1.5826    4.1360 H   0  0  0  0  0  0  0  0  0  0  0  0
    4.4063    0.8850   -1.1464 H   0  0  0  0  0  0  0  0  0  0  0  0
    5.4248    1.3398   -3.3236 H   0  0  0  0  0  0  0  0  0  0  0  0
    6.3566    0.4213   -5.4044 H   0  0  0  0  0  0  0  0  0  0  0  0
    5.8843   -1.1889   -5.9656 H   0  0  0  0  0  0  0  0  0  0  0  0
    3.6164   -0.3209   -6.5404 H   0  0  0  0  0  0  0  0  0  0  0  0
    4.8757    0.5782   -7.3936 H   0  0  0  0  0  0  0  0  0  0  0  0
    4.0853    1.2835   -5.9794 H   0  0  0  0  0  0  0  0  0  0  0  0
    4.2957   -2.5443   -4.6728 H   0  0  0  0  0  0  0  0  0  0  0  0
    3.2929   -3.0142   -2.4869 H   0  0  0  0  0  0  0  0  0  0  0  0
    5.3971   -2.7992   -0.4132 H   0  0  0  0  0  0  0  0  0  0  0  0
    5.8349   -5.0602    0.4226 H   0  0  0  0  0  0  0  0  0  0  0  0
    3.4304   -7.0373    2.3892 H   0  0  0  0  0  0  0  0  0  0  0  0
    5.1171   -6.9018    1.8707 H   0  0  0  0  0  0  0  0  0  0  0  0
    4.4618   -7.5947   -0.4345 H   0  0  0  0  0  0  0  0  0  0  0  0
    3.9980   -8.8185    0.7523 H   0  0  0  0  0  0  0  0  0  0  0  0
    2.7802   -7.7288    0.0805 H   0  0  0  0  0  0  0  0  0  0  0  0
    1.7541   -5.4107    1.6121 H   0  0  0  0  0  0  0  0  0  0  0  0
    1.3155   -3.1455    0.7954 H   0  0  0  0  0  0  0  0  0  0  0  0
   -0.1671    1.2988    1.3911 H   0  0  0  0  0  0  0  0  0  0  0  0
   -4.8772    1.2174    0.3374 H   0  0  0  0  0  0  0  0  0  0  0  0
   -6.2635    0.5425    2.2370 H   0  0  0  0  0  0  0  0  0  0  0  0
   -6.2995   -0.3439    4.5529 H   0  0  0  0  0  0  0  0  0  0  0  0
   -5.0097   -1.4169    5.1158 H   0  0  0  0  0  0  0  0  0  0  0  0
   -5.8267   -3.2013    3.5746 H   0  0  0  0  0  0  0  0  0  0  0  0
   -7.1013   -2.6913    4.6871 H   0  0  0  0  0  0  0  0  0  0  0  0
   -7.1095   -2.1306    3.0112 H   0  0  0  0  0  0  0  0  0  0  0  0
   -3.0813   -1.8935    3.6981 H   0  0  0  0  0  0  0  0  0  0  0  0
   -1.6959   -1.2353    1.7922 H   0  0  0  0  0  0  0  0  0  0  0  0
   -2.5085    1.7427   -2.6932 H   0  0  0  0  0  0  0  0  0  0  0  0
   -2.6070    4.1508   -3.1098 H   0  0  0  0  0  0  0  0  0  0  0  0
   -2.1512    6.7226   -0.5143 H   0  0  0  0  0  0  0  0  0  0  0  0
   -2.2097    6.4153   -2.2560 H   0  0  0  0  0  0  0  0  0  0  0  0
   -4.2235    7.6673   -1.5120 H   0  0  0  0  0  0  0  0  0  0  0  0
   -4.6181    6.3755   -0.3725 H   0  0  0  0  0  0  0  0  0  0  0  0
   -4.6773    6.0664   -2.1071 H   0  0  0  0  0  0  0  0  0  0  0  0
   -2.5034    4.8902    1.0881 H   0  0  0  0  0  0  0  0  0  0  0  0
   -2.4276    2.4784    1.5131 H   0  0  0  0  0  0  0  0  0  0  0  0
    0.9204   -2.1811   -2.0538 H   0  0  0  0  0  0  0  0  0  0  0  0
   -5.1039   -2.6075   -4.6220 H   0  0  0  0  0  0  0  0  0  0  0  0
   -7.4047   -1.9668   -4.7493 H   0  0  0  0  0  0  0  0  0  0  0  0
   12.5911    0.7452    6.6141 H   0  0  0  0  0  0  0  0  0  0  0  0
  -12.8350   -0.0894   -4.5294 H   0  0  0  0  0  0  0  0  0  0  0  0
  1  2  2  0  0  0  0
  1  3  1  0  0  0  0
  3  4  2  0  0  0  0
  4  5  1  0  0  0  0
  5  6  2  0  0  0  0
  6  7  1  0  0  0  0
  7  8  3  0  0  0  0
  6  9  1  0  0  0  0
  9 10  3  0  0  0  0
  5 11  1  0  0  0  0
  1 11  1  0  0  0  0
 11 12  2  0  0  0  0
 12 13  1  0  0  0  0
 13 14  2  0  0  0  0
 14 15  1  0  0  0  0
 15 16  2  0  0  0  0
 16 17  1  0  0  0  0
 13 17  1  0  0  0  0
 16 18  1  0  0  0  0
 18 19  1  0  0  0  0
 19 20  1  0  0  0  0
 20 21  2  0  0  0  0
 21 22  1  0  0  0  0
 22 23  2  0  0  0  0
 23 24  1  0  0  0  0
 24 25  1  0  0  0  0
 23 26  1  0  0  0  0
 26 27  2  0  0  0  0
 20 27  1  0  0  0  0
 19 28  1  0  0  0  0
 28 29  2  0  0  0  0
 29 30  1  0  0  0  0
 30 31  2  0  0  0  0
 31 32  1  0  0  0  0
 32 33  1  0  0  0  0
 31 34  1  0  0  0  0
 34 35  2  0  0  0  0
 28 35  1  0  0  0  0
 19 36  1  0  0  0  0
 36 37  2  0  0  0  0
 37 38  1  0  0  0  0
 18 38  2  0  0  0  0
 38 39  1  0  0  0  0
 15 39  1  0  0  0  0
 37 40  1  0  0  0  0
 40 41  2  0  0  0  0
 41 42  1  0  0  0  0
 42 43  1  0  0  0  0
 43 44  2  0  0  0  0
 44 45  1  0  0  0  0
 45 46  2  0  0  0  0
 46 47  1  0  0  0  0
 47 48  1  0  0  0  0
 46 49  1  0  0  0  0
 49 50  2  0  0  0  0
 43 50  1  0  0  0  0
 42 51  1  0  0  0  0
 51 52  2  0  0  0  0
 52 53  1  0  0  0  0
 53 54  2  0  0  0  0
 54 55  1  0  0  0  0
 55 56  1  0  0  0  0
 54 57  1  0  0  0  0
 57 58  2  0  0  0  0
 51 58  1  0  0  0  0
 42 59  1  0  0  0  0
 59 60  2  0  0  0  0
 60 61  1  0  0  0  0
 41 61  1  0  0  0  0
 61 62  2  0  0  0  0
 36 62  1  0  0  0  0
 60 63  1  0  0  0  0
 63 64  1  0  0  0  0
 64 65  2  0  0  0  0
 59 65  1  0  0  0  0
 65 66  1  0  0  0  0
 66 67  1  0  0  0  0
 67 68  2  0  0  0  0
 64 68  1  0  0  0  0
 67 69  1  0  0  0  0
 69 70  2  0  0  0  0
 70 71  1  0  0  0  0
 71 72  2  0  0  0  0
 72 73  1  0  0  0  0
 73 74  3  0  0  0  0
 72 75  1  0  0  0  0
 75 76  3  0  0  0  0
 71 77  1  0  0  0  0
 77 78  2  0  0  0  0
 78 79  1  0  0  0  0
 70 79  1  0  0  0  0
 79 80  2  0  0  0  0
  3 81  1  0  0  0  0
 81 82  1  0  0  0  0
 82 83  2  0  0  0  0
 83  4  1  0  0  0  0
 78 84  1  0  0  0  0
 84 85  1  0  0  0  0
 85 86  2  0  0  0  0
 86 77  1  0  0  0  0
 85 87  1  0  0  0  0
 82 88  1  0  0  0  0
 12 89  1  0  0  0  0
 14 90  1  0  0  0  0
 21 91  1  0  0  0  0
 22 92  1  0  0  0  0
 24 93  1  0  0  0  0
 24 94  1  0  0  0  0
 25 95  1  0  0  0  0
 25 96  1  0  0  0  0
 25 97  1  0  0  0  0
 26 98  1  0  0  0  0
 27 99  1  0  0  0  0
 29100  1  0  0  0  0
 30101  1  0  0  0  0
 32102  1  0  0  0  0
 32103  1  0  0  0  0
 33104  1  0  0  0  0
 33105  1  0  0  0  0
 33106  1  0  0  0  0
 34107  1  0  0  0  0
 35108  1  0  0  0  0
 40109  1  0  0  0  0
 44110  1  0  0  0  0
 45111  1  0  0  0  0
 47112  1  0  0  0  0
 47113  1  0  0  0  0
 48114  1  0  0  0  0
 48115  1  0  0  0  0
 48116  1  0  0  0  0
 49117  1  0  0  0  0
 50118  1  0  0  0  0
 52119  1  0  0  0  0
 53120  1  0  0  0  0
 55121  1  0  0  0  0
 55122  1  0  0  0  0
 56123  1  0  0  0  0
 56124  1  0  0  0  0
 56125  1  0  0  0  0
 57126  1  0  0  0  0
 58127  1  0  0  0  0
 62128  1  0  0  0  0
 68129  1  0  0  0  0
 69130  1  0  0  0  0
 83131  1  0  0  0  0
 86132  1  0  0  0  0
M  END
