ITN-C9.sdf
  xtb     12202114363D
 energy: -244.391076014414 gnorm: 0.000189118182 xtb: 6.4.1 (unknown)
150166  0     0  0            999 V2000
   -2.8553    1.8618   -8.8885 C   0  0  0  0  0  0  0  0  0  0  0  0
   -1.8129    2.1991   -8.3651 O   0  0  0  0  0  0  0  0  0  0  0  0
   -3.0263    1.4991  -10.3073 C   0  0  0  0  0  0  0  0  0  0  0  0
   -2.0694    1.3780  -11.2727 C   0  0  0  0  0  0  0  0  0  0  0  0
   -2.4519    0.9838  -12.5746 C   0  0  0  0  0  0  0  0  0  0  0  0
   -3.8259    0.7263  -12.8489 C   0  0  0  0  0  0  0  0  0  0  0  0
   -4.7956    0.8705  -11.8296 C   0  0  0  0  0  0  0  0  0  0  0  0
   -4.4017    1.2525  -10.5749 C   0  0  0  0  0  0  0  0  0  0  0  0
   -5.1516    1.4646   -9.3431 C   0  0  0  0  0  0  0  0  0  0  0  0
   -6.5184    1.5020   -9.2430 C   0  0  0  0  0  0  0  0  0  0  0  0
   -7.2438    1.8184   -8.0751 C   0  0  0  0  0  0  0  0  0  0  0  0
   -7.9063    2.0889   -7.1764 N   0  0  0  0  0  0  0  0  0  0  0  0
   -7.3915    1.2766  -10.3271 C   0  0  0  0  0  0  0  0  0  0  0  0
   -8.1538    1.0970  -11.1669 N   0  0  0  0  0  0  0  0  0  0  0  0
   -4.1953    1.7043   -8.2748 C   0  0  0  0  0  0  0  0  0  0  0  0
   -4.5099    1.5903   -6.9474 C   0  0  0  0  0  0  0  0  0  0  0  0
   -3.7149    1.7419   -5.7958 C   0  0  0  0  0  0  0  0  0  0  0  0
   -2.4588    2.2911   -5.5920 C   0  0  0  0  0  0  0  0  0  0  0  0
   -2.0491    2.1708   -4.2721 C   0  0  0  0  0  0  0  0  0  0  0  0
   -2.9810    1.5269   -3.4305 C   0  0  0  0  0  0  0  0  0  0  0  0
   -4.4045    1.1069   -4.2925 S   0  0  0  0  0  0  0  0  0  0  0  0
   -2.4966    1.3574   -2.1369 C   0  0  0  0  0  0  0  0  0  0  0  0
   -2.9390    0.6797   -0.8685 C   0  0  0  0  0  0  0  0  0  0  0  0
   -3.3546   -0.7378   -1.2100 C   0  0  0  0  0  0  0  0  0  0  0  0
   -2.4690   -1.8016   -1.1205 C   0  0  0  0  0  0  0  0  0  0  0  0
   -2.8678   -3.0743   -1.4881 C   0  0  0  0  0  0  0  0  0  0  0  0
   -4.1500   -3.3133   -1.9628 C   0  0  0  0  0  0  0  0  0  0  0  0
   -4.5660   -4.6876   -2.4014 C   0  0  0  0  0  0  0  0  0  0  0  0
   -4.2858   -4.8787   -3.8933 C   0  0  0  0  0  0  0  0  0  0  0  0
   -5.0245   -2.2394   -2.0718 C   0  0  0  0  0  0  0  0  0  0  0  0
   -4.6340   -0.9673   -1.7023 C   0  0  0  0  0  0  0  0  0  0  0  0
   -4.0415    1.4312   -0.1401 C   0  0  0  0  0  0  0  0  0  0  0  0
   -4.7614    0.7958    0.8639 C   0  0  0  0  0  0  0  0  0  0  0  0
   -5.7434    1.4747    1.5591 C   0  0  0  0  0  0  0  0  0  0  0  0
   -6.0325    2.8030    1.2733 C   0  0  0  0  0  0  0  0  0  0  0  0
   -7.0732    3.5506    2.0554 C   0  0  0  0  0  0  0  0  0  0  0  0
   -6.4417    4.2283    3.2733 C   0  0  0  0  0  0  0  0  0  0  0  0
   -5.3025    3.4358    0.2768 C   0  0  0  0  0  0  0  0  0  0  0  0
   -4.3164    2.7619   -0.4201 C   0  0  0  0  0  0  0  0  0  0  0  0
   -1.6763    0.7951   -0.0313 C   0  0  0  0  0  0  0  0  0  0  0  0
   -0.6939    1.5616   -0.7029 C   0  0  0  0  0  0  0  0  0  0  0  0
   -1.2160    1.8678   -1.9981 C   0  0  0  0  0  0  0  0  0  0  0  0
   -0.5810    2.5929   -3.4349 S   0  0  0  0  0  0  0  0  0  0  0  0
    0.5443    1.8385   -0.1290 C   0  0  0  0  0  0  0  0  0  0  0  0
    0.8026    1.2837    1.1020 C   0  0  0  0  0  0  0  0  0  0  0  0
    2.0850    1.3556    1.9125 C   0  0  0  0  0  0  0  0  0  0  0  0
    2.2795    2.6889    2.6187 C   0  0  0  0  0  0  0  0  0  0  0  0
    3.4789    2.9253    3.2804 C   0  0  0  0  0  0  0  0  0  0  0  0
    3.6752    4.1016    3.9761 C   0  0  0  0  0  0  0  0  0  0  0  0
    2.6810    5.0711    4.0312 C   0  0  0  0  0  0  0  0  0  0  0  0
    2.8812    6.3291    4.8258 C   0  0  0  0  0  0  0  0  0  0  0  0
    2.4695    6.1105    6.2832 C   0  0  0  0  0  0  0  0  0  0  0  0
    1.4828    4.8247    3.3761 C   0  0  0  0  0  0  0  0  0  0  0  0
    1.2785    3.6464    2.6795 C   0  0  0  0  0  0  0  0  0  0  0  0
    3.2673    1.0132    1.0302 C   0  0  0  0  0  0  0  0  0  0  0  0
    3.6932   -0.2983    0.8772 C   0  0  0  0  0  0  0  0  0  0  0  0
    4.7508   -0.5982    0.0384 C   0  0  0  0  0  0  0  0  0  0  0  0
    5.3981    0.3985   -0.6788 C   0  0  0  0  0  0  0  0  0  0  0  0
    6.5765    0.0788   -1.5521 C   0  0  0  0  0  0  0  0  0  0  0  0
    7.8774    0.1971   -0.7553 C   0  0  0  0  0  0  0  0  0  0  0  0
    4.9582    1.7079   -0.5329 C   0  0  0  0  0  0  0  0  0  0  0  0
    3.9060    2.0137    0.3083 C   0  0  0  0  0  0  0  0  0  0  0  0
    1.7936    0.3406    2.9850 C   0  0  0  0  0  0  0  0  0  0  0  0
    0.4853   -0.1059    2.8900 C   0  0  0  0  0  0  0  0  0  0  0  0
   -0.1522    0.4560    1.7402 C   0  0  0  0  0  0  0  0  0  0  0  0
   -1.4162    0.2379    1.1988 C   0  0  0  0  0  0  0  0  0  0  0  0
    0.0523   -1.2922    4.0727 S   0  0  0  0  0  0  0  0  0  0  0  0
    1.6744   -1.2265    4.7030 C   0  0  0  0  0  0  0  0  0  0  0  0
    2.4742   -0.2806    4.0280 C   0  0  0  0  0  0  0  0  0  0  0  0
    4.0720   -0.2631    4.6570 S   0  0  0  0  0  0  0  0  0  0  0  0
    3.6770   -1.5788    5.7743 C   0  0  0  0  0  0  0  0  0  0  0  0
    2.3462   -1.9515    5.6772 C   0  0  0  0  0  0  0  0  0  0  0  0
    4.7358   -2.0498    6.5743 C   0  0  0  0  0  0  0  0  0  0  0  0
    4.8681   -3.2229    7.2663 C   0  0  0  0  0  0  0  0  0  0  0  0
    6.0534   -3.5719    8.0306 C   0  0  0  0  0  0  0  0  0  0  0  0
    6.9782   -2.6996    8.5437 C   0  0  0  0  0  0  0  0  0  0  0  0
    6.9135   -1.2945    8.4369 C   0  0  0  0  0  0  0  0  0  0  0  0
    6.9162   -0.1461    8.4131 N   0  0  0  0  0  0  0  0  0  0  0  0
    8.0980   -3.0994    9.3015 C   0  0  0  0  0  0  0  0  0  0  0  0
    9.0291   -3.3642    9.9191 N   0  0  0  0  0  0  0  0  0  0  0  0
    6.0450   -5.0149    8.2340 C   0  0  0  0  0  0  0  0  0  0  0  0
    6.9744   -5.8668    8.7683 C   0  0  0  0  0  0  0  0  0  0  0  0
    6.6977   -7.2527    8.8209 C   0  0  0  0  0  0  0  0  0  0  0  0
    5.4593   -7.7568    8.3291 C   0  0  0  0  0  0  0  0  0  0  0  0
    4.5152   -6.8582    7.7831 C   0  0  0  0  0  0  0  0  0  0  0  0
    4.8141   -5.5276    7.7370 C   0  0  0  0  0  0  0  0  0  0  0  0
    4.0034   -4.4247    7.1883 C   0  0  0  0  0  0  0  0  0  0  0  0
    2.8762   -4.5228    6.7488 O   0  0  0  0  0  0  0  0  0  0  0  0
    5.2129   -9.1422    8.3923 C   0  0  0  0  0  0  0  0  0  0  0  0
    6.1465   -9.9959    8.9143 C   0  0  0  0  0  0  0  0  0  0  0  0
    7.3665   -9.5008    9.3979 C   0  0  0  0  0  0  0  0  0  0  0  0
    7.6361   -8.1600    9.3529 C   0  0  0  0  0  0  0  0  0  0  0  0
   -1.5086    0.8293  -13.6092 C   0  0  0  0  0  0  0  0  0  0  0  0
   -1.9001    0.4353  -14.8600 C   0  0  0  0  0  0  0  0  0  0  0  0
   -3.2526    0.1809  -15.1311 C   0  0  0  0  0  0  0  0  0  0  0  0
   -4.1943    0.3235  -14.1485 C   0  0  0  0  0  0  0  0  0  0  0  0
   -1.0322    1.5738  -11.0443 H   0  0  0  0  0  0  0  0  0  0  0  0
   -5.8269    0.6623  -12.0667 H   0  0  0  0  0  0  0  0  0  0  0  0
   -5.5202    1.2651   -6.7236 H   0  0  0  0  0  0  0  0  0  0  0  0
   -1.8778    2.7341   -6.3788 H   0  0  0  0  0  0  0  0  0  0  0  0
   -1.4633   -1.6398   -0.7605 H   0  0  0  0  0  0  0  0  0  0  0  0
   -2.1688   -3.8942   -1.4033 H   0  0  0  0  0  0  0  0  0  0  0  0
   -4.0173   -5.4407   -1.8324 H   0  0  0  0  0  0  0  0  0  0  0  0
   -5.6327   -4.8279   -2.2156 H   0  0  0  0  0  0  0  0  0  0  0  0
   -3.2246   -4.7542   -4.0978 H   0  0  0  0  0  0  0  0  0  0  0  0
   -4.8346   -4.1438   -4.4781 H   0  0  0  0  0  0  0  0  0  0  0  0
   -4.5874   -5.8733   -4.2132 H   0  0  0  0  0  0  0  0  0  0  0  0
   -6.0243   -2.4003   -2.4483 H   0  0  0  0  0  0  0  0  0  0  0  0
   -5.3297   -0.1452   -1.7887 H   0  0  0  0  0  0  0  0  0  0  0  0
   -4.5636   -0.2416    1.0910 H   0  0  0  0  0  0  0  0  0  0  0  0
   -6.2981    0.9630    2.3327 H   0  0  0  0  0  0  0  0  0  0  0  0
   -7.5376    4.3093    1.4224 H   0  0  0  0  0  0  0  0  0  0  0  0
   -7.8511    2.8617    2.3902 H   0  0  0  0  0  0  0  0  0  0  0  0
   -5.6713    4.9291    2.9593 H   0  0  0  0  0  0  0  0  0  0  0  0
   -7.1949    4.7707    3.8400 H   0  0  0  0  0  0  0  0  0  0  0  0
   -5.9838    3.4868    3.9242 H   0  0  0  0  0  0  0  0  0  0  0  0
   -5.5097    4.4691    0.0378 H   0  0  0  0  0  0  0  0  0  0  0  0
   -3.7635    3.2794   -1.1905 H   0  0  0  0  0  0  0  0  0  0  0  0
    1.2756    2.4372   -0.6497 H   0  0  0  0  0  0  0  0  0  0  0  0
    4.2644    2.1842    3.2432 H   0  0  0  0  0  0  0  0  0  0  0  0
    4.6140    4.2695    4.4835 H   0  0  0  0  0  0  0  0  0  0  0  0
    3.9313    6.6258    4.7903 H   0  0  0  0  0  0  0  0  0  0  0  0
    2.2824    7.1364    4.3995 H   0  0  0  0  0  0  0  0  0  0  0  0
    1.4212    5.8259    6.3416 H   0  0  0  0  0  0  0  0  0  0  0  0
    3.0645    5.3170    6.7294 H   0  0  0  0  0  0  0  0  0  0  0  0
    2.6154    7.0207    6.8603 H   0  0  0  0  0  0  0  0  0  0  0  0
    0.6948    5.5637    3.4088 H   0  0  0  0  0  0  0  0  0  0  0  0
    0.3350    3.4778    2.1810 H   0  0  0  0  0  0  0  0  0  0  0  0
    3.1980   -1.0940    1.4150 H   0  0  0  0  0  0  0  0  0  0  0  0
    5.0743   -1.6244   -0.0630 H   0  0  0  0  0  0  0  0  0  0  0  0
    6.6086    0.7691   -2.3974 H   0  0  0  0  0  0  0  0  0  0  0  0
    6.4843   -0.9366   -1.9428 H   0  0  0  0  0  0  0  0  0  0  0  0
    7.9929    1.2068   -0.3677 H   0  0  0  0  0  0  0  0  0  0  0  0
    7.8697   -0.4925    0.0859 H   0  0  0  0  0  0  0  0  0  0  0  0
    8.7326   -0.0332   -1.3861 H   0  0  0  0  0  0  0  0  0  0  0  0
    5.4449    2.4985   -1.0860 H   0  0  0  0  0  0  0  0  0  0  0  0
    3.5838    3.0397    0.4146 H   0  0  0  0  0  0  0  0  0  0  0  0
   -2.1376   -0.3787    1.7120 H   0  0  0  0  0  0  0  0  0  0  0  0
    1.9066   -2.7240    6.2788 H   0  0  0  0  0  0  0  0  0  0  0  0
    5.6006   -1.3950    6.5689 H   0  0  0  0  0  0  0  0  0  0  0  0
    7.9234   -5.5158    9.1418 H   0  0  0  0  0  0  0  0  0  0  0  0
    3.5728   -7.2224    7.4014 H   0  0  0  0  0  0  0  0  0  0  0  0
    4.2717   -9.5176    8.0176 H   0  0  0  0  0  0  0  0  0  0  0  0
    5.9503  -11.0569    8.9566 H   0  0  0  0  0  0  0  0  0  0  0  0
    8.0925  -10.1877    9.8066 H   0  0  0  0  0  0  0  0  0  0  0  0
    8.5737   -7.7739    9.7253 H   0  0  0  0  0  0  0  0  0  0  0  0
   -0.4683    1.0263  -13.3941 H   0  0  0  0  0  0  0  0  0  0  0  0
   -1.1700    0.3170  -15.6467 H   0  0  0  0  0  0  0  0  0  0  0  0
   -3.5451   -0.1293  -16.1231 H   0  0  0  0  0  0  0  0  0  0  0  0
   -5.2372    0.1298  -14.3527 H   0  0  0  0  0  0  0  0  0  0  0  0
  1  2  2  0  0  0  0
  1  3  1  0  0  0  0
  3  4  2  0  0  0  0
  4  5  1  0  0  0  0
  5  6  2  0  0  0  0
  6  7  1  0  0  0  0
  7  8  2  0  0  0  0
  3  8  1  0  0  0  0
  8  9  1  0  0  0  0
  9 10  2  0  0  0  0
 10 11  1  0  0  0  0
 11 12  3  0  0  0  0
 10 13  1  0  0  0  0
 13 14  3  0  0  0  0
  9 15  1  0  0  0  0
  1 15  1  0  0  0  0
 15 16  2  0  0  0  0
 16 17  1  0  0  0  0
 17 18  2  0  0  0  0
 18 19  1  0  0  0  0
 19 20  2  0  0  0  0
 20 21  1  0  0  0  0
 17 21  1  0  0  0  0
 20 22  1  0  0  0  0
 22 23  1  0  0  0  0
 23 24  1  0  0  0  0
 24 25  2  0  0  0  0
 25 26  1  0  0  0  0
 26 27  2  0  0  0  0
 27 28  1  0  0  0  0
 28 29  1  0  0  0  0
 27 30  1  0  0  0  0
 30 31  2  0  0  0  0
 24 31  1  0  0  0  0
 23 32  1  0  0  0  0
 32 33  2  0  0  0  0
 33 34  1  0  0  0  0
 34 35  2  0  0  0  0
 35 36  1  0  0  0  0
 36 37  1  0  0  0  0
 35 38  1  0  0  0  0
 38 39  2  0  0  0  0
 32 39  1  0  0  0  0
 23 40  1  0  0  0  0
 40 41  2  0  0  0  0
 41 42  1  0  0  0  0
 22 42  2  0  0  0  0
 42 43  1  0  0  0  0
 19 43  1  0  0  0  0
 41 44  1  0  0  0  0
 44 45  2  0  0  0  0
 45 46  1  0  0  0  0
 46 47  1  0  0  0  0
 47 48  2  0  0  0  0
 48 49  1  0  0  0  0
 49 50  2  0  0  0  0
 50 51  1  0  0  0  0
 51 52  1  0  0  0  0
 50 53  1  0  0  0  0
 53 54  2  0  0  0  0
 47 54  1  0  0  0  0
 46 55  1  0  0  0  0
 55 56  2  0  0  0  0
 56 57  1  0  0  0  0
 57 58  2  0  0  0  0
 58 59  1  0  0  0  0
 59 60  1  0  0  0  0
 58 61  1  0  0  0  0
 61 62  2  0  0  0  0
 55 62  1  0  0  0  0
 46 63  1  0  0  0  0
 63 64  2  0  0  0  0
 64 65  1  0  0  0  0
 45 65  1  0  0  0  0
 65 66  2  0  0  0  0
 40 66  1  0  0  0  0
 64 67  1  0  0  0  0
 67 68  1  0  0  0  0
 68 69  2  0  0  0  0
 63 69  1  0  0  0  0
 69 70  1  0  0  0  0
 70 71  1  0  0  0  0
 71 72  2  0  0  0  0
 68 72  1  0  0  0  0
 71 73  1  0  0  0  0
 73 74  2  0  0  0  0
 74 75  1  0  0  0  0
 75 76  2  0  0  0  0
 76 77  1  0  0  0  0
 77 78  3  0  0  0  0
 76 79  1  0  0  0  0
 79 80  3  0  0  0  0
 75 81  1  0  0  0  0
 81 82  2  0  0  0  0
 82 83  1  0  0  0  0
 83 84  2  0  0  0  0
 84 85  1  0  0  0  0
 85 86  2  0  0  0  0
 81 86  1  0  0  0  0
 86 87  1  0  0  0  0
 74 87  1  0  0  0  0
 87 88  2  0  0  0  0
 84 89  1  0  0  0  0
 89 90  2  0  0  0  0
 90 91  1  0  0  0  0
 91 92  2  0  0  0  0
 92 83  1  0  0  0  0
  5 93  1  0  0  0  0
 93 94  2  0  0  0  0
 94 95  1  0  0  0  0
 95 96  2  0  0  0  0
 96  6  1  0  0  0  0
  4 97  1  0  0  0  0
  7 98  1  0  0  0  0
 16 99  1  0  0  0  0
 18100  1  0  0  0  0
 25101  1  0  0  0  0
 26102  1  0  0  0  0
 28103  1  0  0  0  0
 28104  1  0  0  0  0
 29105  1  0  0  0  0
 29106  1  0  0  0  0
 29107  1  0  0  0  0
 30108  1  0  0  0  0
 31109  1  0  0  0  0
 33110  1  0  0  0  0
 34111  1  0  0  0  0
 36112  1  0  0  0  0
 36113  1  0  0  0  0
 37114  1  0  0  0  0
 37115  1  0  0  0  0
 37116  1  0  0  0  0
 38117  1  0  0  0  0
 39118  1  0  0  0  0
 44119  1  0  0  0  0
 48120  1  0  0  0  0
 49121  1  0  0  0  0
 51122  1  0  0  0  0
 51123  1  0  0  0  0
 52124  1  0  0  0  0
 52125  1  0  0  0  0
 52126  1  0  0  0  0
 53127  1  0  0  0  0
 54128  1  0  0  0  0
 56129  1  0  0  0  0
 57130  1  0  0  0  0
 59131  1  0  0  0  0
 59132  1  0  0  0  0
 60133  1  0  0  0  0
 60134  1  0  0  0  0
 60135  1  0  0  0  0
 61136  1  0  0  0  0
 62137  1  0  0  0  0
 66138  1  0  0  0  0
 72139  1  0  0  0  0
 73140  1  0  0  0  0
 82141  1  0  0  0  0
 85142  1  0  0  0  0
 89143  1  0  0  0  0
 90144  1  0  0  0  0
 91145  1  0  0  0  0
 92146  1  0  0  0  0
 93147  1  0  0  0  0
 94148  1  0  0  0  0
 95149  1  0  0  0  0
 96150  1  0  0  0  0
M  END
