SCF done       -220.954214100607          0.000262516951
 OpenBabel12282109493D

132144  0  0  0  0  0  0  0  0999 V2000
   -0.0543    0.5121    1.7678 C   0  0  0  0  0  0  0  0  0  0  0  0
    0.1230    1.0807    3.0655 C   0  0  0  0  0  0  0  0  0  0  0  0
   -0.7453    2.1151    3.4967 C   0  0  0  0  0  0  0  0  0  0  0  0
   -0.5527    2.8206    4.7224 C   0  0  0  0  0  0  0  0  0  0  0  0
    0.5025    2.5395    5.6156 C   0  0  0  0  0  0  0  0  0  0  0  0
    1.2984    1.4629    5.2049 C   0  0  0  0  0  0  0  0  0  0  0  0
    1.1356    0.7466    3.9878 C   0  0  0  0  0  0  0  0  0  0  0  0
    2.6340    0.8511    6.1333 S   0  0  0  0  0  0  0  0  0  0  0  0
    2.9395   -0.3626    4.9416 C   0  0  0  0  0  0  0  0  0  0  0  0
    2.1006   -0.3039    3.8900 C   0  0  0  0  0  0  0  0  0  0  0  0
    0.7672    3.2576    6.8088 C   0  0  0  0  0  0  0  0  0  0  0  0
    0.1917    4.3855    7.2994 C   0  0  0  0  0  0  0  0  0  0  0  0
    0.6840    4.9631    8.5515 C   0  0  0  0  0  0  0  0  0  0  0  0
    0.0242    6.1494    8.8457 N   0  0  0  0  0  0  0  0  0  0  0  0
   -0.9103    6.5331    7.9437 C   0  0  0  0  0  0  0  0  0  0  0  0
   -1.0820    5.3759    6.6329 S   0  0  0  0  0  0  0  0  0  0  0  0
   -1.7084    7.6520    7.9520 C   0  0  0  0  0  0  0  0  0  0  0  0
    0.4115    6.8996   10.0258 C   0  0  0  0  0  0  0  0  0  0  0  0
    1.4138    7.9966    9.6872 C   0  0  0  0  0  0  0  0  0  0  0  0
    1.5478    4.4954    9.2601 O   0  0  0  0  0  0  0  0  0  0  0  0
   -2.6125    7.8287    6.8857 C   0  0  0  0  0  0  0  0  0  0  0  0
   -1.7265    8.6720    8.9158 C   0  0  0  0  0  0  0  0  0  0  0  0
   -1.7868    9.5388    9.6680 N   0  0  0  0  0  0  0  0  0  0  0  0
   -3.3403    7.9657    6.0083 N   0  0  0  0  0  0  0  0  0  0  0  0
   -1.8309    2.6521    2.9104 N   0  0  0  0  0  0  0  0  0  0  0  0
   -2.2331    3.5778    3.7302 N   0  0  0  0  0  0  0  0  0  0  0  0
   -1.5283    3.7282    4.8152 N   0  0  0  0  0  0  0  0  0  0  0  0
    1.2025   -0.3794    0.9205 S   0  0  0  0  0  0  0  0  0  0  0  0
    0.2158   -0.4876   -0.4758 C   0  0  0  0  0  0  0  0  0  0  0  0
   -1.0266    0.1008   -0.2907 C   0  0  0  0  0  0  0  0  0  0  0  0
   -1.1746    0.6737    0.9651 C   0  0  0  0  0  0  0  0  0  0  0  0
    0.3667   -0.9542   -1.8175 C   0  0  0  0  0  0  0  0  0  0  0  0
   -0.8328   -0.6314   -2.4952 C   0  0  0  0  0  0  0  0  0  0  0  0
   -1.8406    0.0012   -1.5510 C   0  0  0  0  0  0  0  0  0  0  0  0
    1.4384   -1.5658   -2.4644 C   0  0  0  0  0  0  0  0  0  0  0  0
    1.2999   -1.8298   -3.8070 C   0  0  0  0  0  0  0  0  0  0  0  0
    0.1095   -1.4835   -4.4877 C   0  0  0  0  0  0  0  0  0  0  0  0
   -0.9723   -0.8963   -3.8366 C   0  0  0  0  0  0  0  0  0  0  0  0
    2.3171   -2.4353   -4.7614 C   0  0  0  0  0  0  0  0  0  0  0  0
    1.5509   -2.4043   -6.0564 C   0  0  0  0  0  0  0  0  0  0  0  0
    0.2999   -1.8403   -5.8566 C   0  0  0  0  0  0  0  0  0  0  0  0
    1.7706   -2.7731   -7.3780 C   0  0  0  0  0  0  0  0  0  0  0  0
    0.6976   -2.4758   -8.2044 C   0  0  0  0  0  0  0  0  0  0  0  0
   -0.6189   -1.7472   -7.2985 S   0  0  0  0  0  0  0  0  0  0  0  0
   -3.0203   -0.9841   -1.3914 C   0  0  0  0  0  0  0  0  0  0  0  0
   -2.3121    1.3783   -2.0408 C   0  0  0  0  0  0  0  0  0  0  0  0
    3.5502   -1.5060   -4.8020 C   0  0  0  0  0  0  0  0  0  0  0  0
    2.6986   -3.8675   -4.3547 C   0  0  0  0  0  0  0  0  0  0  0  0
    0.6813   -2.6061   -9.6270 C   0  0  0  0  0  0  0  0  0  0  0  0
    1.9028   -2.7455  -10.3288 C   0  0  0  0  0  0  0  0  0  0  0  0
    1.9704   -2.7241  -11.7536 C   0  0  0  0  0  0  0  0  0  0  0  0
    0.8348   -2.5370  -12.5752 C   0  0  0  0  0  0  0  0  0  0  0  0
   -0.3691   -2.5208  -11.8670 C   0  0  0  0  0  0  0  0  0  0  0  0
   -0.4624   -2.5657  -10.4455 C   0  0  0  0  0  0  0  0  0  0  0  0
   -1.9452   -2.5704  -12.5993 S   0  0  0  0  0  0  0  0  0  0  0  0
   -2.7034   -2.6350  -11.0477 C   0  0  0  0  0  0  0  0  0  0  0  0
   -1.8277   -2.6173  -10.0260 C   0  0  0  0  0  0  0  0  0  0  0  0
    1.0433   -2.3987  -13.9778 C   0  0  0  0  0  0  0  0  0  0  0  0
    0.3452   -1.6988  -14.9046 C   0  0  0  0  0  0  0  0  0  0  0  0
    0.7711   -1.6758  -16.3032 C   0  0  0  0  0  0  0  0  0  0  0  0
   -0.0158   -0.8008  -17.0444 N   0  0  0  0  0  0  0  0  0  0  0  0
   -0.9867   -0.1495  -16.3567 C   0  0  0  0  0  0  0  0  0  0  0  0
   -1.0092   -0.6169  -14.6666 S   0  0  0  0  0  0  0  0  0  0  0  0
   -1.8823    0.7841  -16.8136 C   0  0  0  0  0  0  0  0  0  0  0  0
    0.2134   -0.6891  -18.4730 C   0  0  0  0  0  0  0  0  0  0  0  0
   -0.7627   -1.5501  -19.2658 C   0  0  0  0  0  0  0  0  0  0  0  0
    1.6827   -2.3104  -16.7828 O   0  0  0  0  0  0  0  0  0  0  0  0
   -2.8132    1.3436  -15.9133 C   0  0  0  0  0  0  0  0  0  0  0  0
   -1.9874    1.2773  -18.1249 C   0  0  0  0  0  0  0  0  0  0  0  0
   -2.1307    1.7207  -19.1750 N   0  0  0  0  0  0  0  0  0  0  0  0
   -3.5756    1.8037  -15.1900 N   0  0  0  0  0  0  0  0  0  0  0  0
    3.1636   -2.8772   -9.8818 N   0  0  0  0  0  0  0  0  0  0  0  0
    3.8901   -2.9325  -10.9615 N   0  0  0  0  0  0  0  0  0  0  0  0
    3.2605   -2.8400  -12.0982 N   0  0  0  0  0  0  0  0  0  0  0  0
   -3.3768    4.3999    3.4525 C   0  0  0  0  0  0  0  0  0  0  0  0
   -2.9539    5.8390    3.1824 C   0  0  0  0  0  0  0  0  0  0  0  0
    5.3187   -3.0560  -10.8991 C   0  0  0  0  0  0  0  0  0  0  0  0
    5.9468   -1.7437  -10.4414 C   0  0  0  0  0  0  0  0  0  0  0  0
   -4.0317   -0.6037   -0.3184 C   0  0  0  0  0  0  0  0  0  0  0  0
   -1.1537    2.3355   -2.2965 C   0  0  0  0  0  0  0  0  0  0  0  0
    4.5857   -1.8495   -5.8651 C   0  0  0  0  0  0  0  0  0  0  0  0
    1.4837   -4.7759   -4.2043 C   0  0  0  0  0  0  0  0  0  0  0  0
    3.7385   -1.0579    5.1084 H   0  0  0  0  0  0  0  0  0  0  0  0
    2.1462   -1.0033    3.0774 H   0  0  0  0  0  0  0  0  0  0  0  0
    1.5710    2.8688    7.4266 H   0  0  0  0  0  0  0  0  0  0  0  0
   -0.4810    7.3190   10.4934 H   0  0  0  0  0  0  0  0  0  0  0  0
    0.8716    6.1745   10.7028 H   0  0  0  0  0  0  0  0  0  0  0  0
    0.9826    8.7217    9.0009 H   0  0  0  0  0  0  0  0  0  0  0  0
    1.6991    8.5159   10.5970 H   0  0  0  0  0  0  0  0  0  0  0  0
    2.3041    7.5640    9.2362 H   0  0  0  0  0  0  0  0  0  0  0  0
   -2.0367    1.2130    1.3074 H   0  0  0  0  0  0  0  0  0  0  0  0
    2.3386   -1.8090   -1.9202 H   0  0  0  0  0  0  0  0  0  0  0  0
   -1.8704   -0.6488   -4.3818 H   0  0  0  0  0  0  0  0  0  0  0  0
    2.6543   -3.2470   -7.7600 H   0  0  0  0  0  0  0  0  0  0  0  0
   -3.5264   -1.0638   -2.3557 H   0  0  0  0  0  0  0  0  0  0  0  0
   -2.6063   -1.9676   -1.1534 H   0  0  0  0  0  0  0  0  0  0  0  0
   -2.8861    1.2465   -2.9601 H   0  0  0  0  0  0  0  0  0  0  0  0
   -2.9703    1.8132   -1.2881 H   0  0  0  0  0  0  0  0  0  0  0  0
    3.1960   -0.4859   -4.9723 H   0  0  0  0  0  0  0  0  0  0  0  0
    4.0223   -1.5307   -3.8176 H   0  0  0  0  0  0  0  0  0  0  0  0
    3.3612   -4.2847   -5.1140 H   0  0  0  0  0  0  0  0  0  0  0  0
    3.2441   -3.8297   -3.4096 H   0  0  0  0  0  0  0  0  0  0  0  0
   -3.7731   -2.6885  -11.0014 H   0  0  0  0  0  0  0  0  0  0  0  0
   -2.1349   -2.6817   -8.9995 H   0  0  0  0  0  0  0  0  0  0  0  0
    1.9521   -2.8601  -14.3500 H   0  0  0  0  0  0  0  0  0  0  0  0
    0.1402    0.3583  -18.7704 H   0  0  0  0  0  0  0  0  0  0  0  0
    1.2355   -1.0426  -18.6359 H   0  0  0  0  0  0  0  0  0  0  0  0
   -1.7886   -1.2253  -19.1092 H   0  0  0  0  0  0  0  0  0  0  0  0
   -0.5367   -1.4659  -20.3244 H   0  0  0  0  0  0  0  0  0  0  0  0
   -0.6697   -2.5924  -18.9690 H   0  0  0  0  0  0  0  0  0  0  0  0
   -3.8751    3.9626    2.5856 H   0  0  0  0  0  0  0  0  0  0  0  0
   -4.0394    4.3683    4.3209 H   0  0  0  0  0  0  0  0  0  0  0  0
   -2.2685    5.8847    2.3395 H   0  0  0  0  0  0  0  0  0  0  0  0
   -3.8295    6.4397    2.9577 H   0  0  0  0  0  0  0  0  0  0  0  0
   -2.4710    6.2578    4.0613 H   0  0  0  0  0  0  0  0  0  0  0  0
    5.5616   -3.8554  -10.1946 H   0  0  0  0  0  0  0  0  0  0  0  0
    5.6573   -3.3247  -11.9007 H   0  0  0  0  0  0  0  0  0  0  0  0
    5.5670   -1.4710   -9.4599 H   0  0  0  0  0  0  0  0  0  0  0  0
    7.0259   -1.8522  -10.3835 H   0  0  0  0  0  0  0  0  0  0  0  0
    5.7125   -0.9472  -11.1433 H   0  0  0  0  0  0  0  0  0  0  0  0
   -4.4992    0.3527   -0.5359 H   0  0  0  0  0  0  0  0  0  0  0  0
   -4.8137   -1.3586   -0.2747 H   0  0  0  0  0  0  0  0  0  0  0  0
   -3.5575   -0.5491    0.6577 H   0  0  0  0  0  0  0  0  0  0  0  0
   -0.4786    1.9335   -3.0489 H   0  0  0  0  0  0  0  0  0  0  0  0
   -1.5308    3.2928   -2.6486 H   0  0  0  0  0  0  0  0  0  0  0  0
   -0.5881    2.5051   -1.3830 H   0  0  0  0  0  0  0  0  0  0  0  0
    4.1563   -1.7763   -6.8603 H   0  0  0  0  0  0  0  0  0  0  0  0
    5.4153   -1.1485   -5.7992 H   0  0  0  0  0  0  0  0  0  0  0  0
    4.9801   -2.8522   -5.7245 H   0  0  0  0  0  0  0  0  0  0  0  0
    0.9360   -4.8426   -5.1417 H   0  0  0  0  0  0  0  0  0  0  0  0
    1.7984   -5.7771   -3.9195 H   0  0  0  0  0  0  0  0  0  0  0  0
    0.8095   -4.3959   -3.4398 H   0  0  0  0  0  0  0  0  0  0  0  0
  1  2  1  0  0  0  0
  2  3  1  0  0  0  0
  2  7  2  0  0  0  0
  3  4  1  0  0  0  0
  4 27  2  0  0  0  0
  4  5  1  0  0  0  0
  5 11  1  0  0  0  0
  6  5  2  0  0  0  0
  6  8  1  0  0  0  0
  7  6  1  0  0  0  0
  9 83  1  0  0  0  0
  9  8  1  0  0  0  0
 10  7  1  0  0  0  0
 10  9  2  0  0  0  0
 11 12  2  0  0  0  0
 11 85  1  0  0  0  0
 12 13  1  0  0  0  0
 13 14  1  0  0  0  0
 13 20  2  0  0  0  0
 14 18  1  0  0  0  0
 15 17  2  0  0  0  0
 15 14  1  0  0  0  0
 16 12  1  0  0  0  0
 16 15  1  0  0  0  0
 17 22  1  0  0  0  0
 18 86  1  0  0  0  0
 18 87  1  0  0  0  0
 19 18  1  0  0  0  0
 19 89  1  0  0  0  0
 21 17  1  0  0  0  0
 22 23  3  0  0  0  0
 24 21  3  0  0  0  0
 25  3  2  0  0  0  0
 25 26  1  0  0  0  0
 26 27  1  0  0  0  0
 28  1  1  0  0  0  0
 29 30  2  0  0  0  0
 29 28  1  0  0  0  0
 30 31  1  0  0  0  0
 31 91  1  0  0  0  0
 31  1  2  0  0  0  0
 32 29  1  0  0  0  0
 33 32  2  0  0  0  0
 33 34  1  0  0  0  0
 34 45  1  0  0  0  0
 34 30  1  0  0  0  0
 35 92  1  0  0  0  0
 35 32  1  0  0  0  0
 36 35  2  0  0  0  0
 37 38  2  0  0  0  0
 37 36  1  0  0  0  0
 38 33  1  0  0  0  0
 39 48  1  0  0  0  0
 39 36  1  0  0  0  0
 40 41  2  0  0  0  0
 40 39  1  0  0  0  0
 41 37  1  0  0  0  0
 42 40  1  0  0  0  0
 43 42  2  0  0  0  0
 43 44  1  0  0  0  0
 44 41  1  0  0  0  0
 45 96  1  0  0  0  0
 45 79  1  0  0  0  0
 46 34  1  0  0  0  0
 46 98  1  0  0  0  0
 47 39  1  0  0  0  0
 47100  1  0  0  0  0
 48 82  1  0  0  0  0
 48102  1  0  0  0  0
 49 43  1  0  0  0  0
 50 72  2  0  0  0  0
 50 49  1  0  0  0  0
 51 50  1  0  0  0  0
 52 53  2  0  0  0  0
 52 51  1  0  0  0  0
 53 54  1  0  0  0  0
 54 57  1  0  0  0  0
 54 49  2  0  0  0  0
 55 53  1  0  0  0  0
 55 56  1  0  0  0  0
 56103  1  0  0  0  0
 56 57  2  0  0  0  0
 57104  1  0  0  0  0
 58 52  1  0  0  0  0
 59 63  1  0  0  0  0
 59 58  2  0  0  0  0
 60 59  1  0  0  0  0
 61 62  1  0  0  0  0
 61 60  1  0  0  0  0
 62 63  1  0  0  0  0
 64 62  2  0  0  0  0
 64 68  1  0  0  0  0
 65 61  1  0  0  0  0
 66108  1  0  0  0  0
 66110  1  0  0  0  0
 66 65  1  0  0  0  0
 67 60  2  0  0  0  0
 68 71  3  0  0  0  0
 69 64  1  0  0  0  0
 70 69  3  0  0  0  0
 73 77  1  0  0  0  0
 73 72  1  0  0  0  0
 74 51  2  0  0  0  0
 74 73  1  0  0  0  0
 75 26  1  0  0  0  0
 75112  1  0  0  0  0
 76 75  1  0  0  0  0
 76115  1  0  0  0  0
 77 78  1  0  0  0  0
 77116  1  0  0  0  0
 78119  1  0  0  0  0
 78118  1  0  0  0  0
 79122  1  0  0  0  0
 79123  1  0  0  0  0
 80 46  1  0  0  0  0
 80126  1  0  0  0  0
 81128  1  0  0  0  0
 81129  1  0  0  0  0
 81 47  1  0  0  0  0
 82131  1  0  0  0  0
 82132  1  0  0  0  0
 84 10  1  0  0  0  0
 88 19  1  0  0  0  0
 90 19  1  0  0  0  0
 93 38  1  0  0  0  0
 94 42  1  0  0  0  0
 95 45  1  0  0  0  0
 97 46  1  0  0  0  0
 99 47  1  0  0  0  0
101 48  1  0  0  0  0
105 58  1  0  0  0  0
106 65  1  0  0  0  0
107 65  1  0  0  0  0
109 66  1  0  0  0  0
111 75  1  0  0  0  0
113 76  1  0  0  0  0
114 76  1  0  0  0  0
117 77  1  0  0  0  0
120 78  1  0  0  0  0
121 79  1  0  0  0  0
124 80  1  0  0  0  0
125 80  1  0  0  0  0
127 81  1  0  0  0  0
130 82  1  0  0  0  0
M  END
