SCF done       -200.445182100266          0.000775049534
 OpenBabel12282109493D

110124  0  0  1  0  0  0  0  0999 V2000
   18.2002   -0.3086    0.3582 C   0  0  0  0  0  0  0  0  0  0  0  0
   17.9345    0.5515    1.1828 O   0  0  0  0  0  0  0  0  0  0  0  0
   17.2328   -1.0170   -0.4945 C   0  0  0  0  0  0  0  0  0  0  0  0
   15.8549   -0.8211   -0.5390 C   0  0  0  0  0  0  0  0  0  0  0  0
   15.2048   -1.6302   -1.4394 C   0  0  0  0  0  0  0  0  0  0  0  0
   15.8775   -2.5623   -2.2406 C   0  0  0  0  0  0  0  0  0  0  0  0
   17.2375   -2.7625   -2.2082 C   0  0  0  0  0  0  0  0  0  0  0  0
   17.9184   -1.9537   -1.2942 C   0  0  0  0  0  0  0  0  0  0  0  0
   19.3445   -1.8805   -0.9782 C   0  0  0  0  0  0  0  0  0  0  0  0
   20.3148   -2.6955   -1.5045 C   0  0  0  0  0  0  0  0  0  0  0  0
   21.6881   -2.6523   -1.1868 C   0  0  0  0  0  0  0  0  0  0  0  0
   22.8192   -2.6851   -0.9843 N   0  0  0  0  0  0  0  0  0  0  0  0
   20.0734   -3.7253   -2.4378 C   0  0  0  0  0  0  0  0  0  0  0  0
   19.9574   -4.5819   -3.1939 N   0  0  0  0  0  0  0  0  0  0  0  0
   19.5223   -0.8367    0.0123 C   0  0  0  0  0  0  0  0  0  0  0  0
   20.7267   -0.3991    0.5029 C   0  0  0  0  0  0  0  0  0  0  0  0
   21.0233    0.5561    1.4822 C   0  0  0  0  0  0  0  0  0  0  0  0
   19.8196    1.4252    2.4330 S   0  0  0  0  0  0  0  0  0  0  0  0
   21.0697    2.2033    3.3273 C   0  0  0  0  0  0  0  0  0  0  0  0
   22.3478    1.8237    2.8834 C   0  0  0  0  0  0  0  0  0  0  0  0
   22.3364    0.8939    1.8516 C   0  0  0  0  0  0  0  0  0  0  0  0
   23.5824    0.3734    1.2128 C   0  0  0  0  0  0  0  0  0  0  0  0
   23.6542    2.5848    3.7736 S   0  0  0  0  0  0  0  0  0  0  0  0
   22.4769    3.3877    4.7544 C   0  0  0  0  0  0  0  0  0  0  0  0
   21.1527    3.1061    4.3909 C   0  0  0  0  0  0  0  0  0  0  0  0
   20.2906    3.7376    5.2470 N   0  0  0  0  0  0  0  0  0  0  0  0
   21.0461    4.4256    6.1733 C   0  0  0  0  0  0  0  0  0  0  0  0
   22.4258    4.1973    5.8972 C   0  0  0  0  0  0  0  0  0  0  0  0
   23.4353    4.6257    6.7896 C   0  0  0  0  0  0  0  0  0  0  0  0
   24.7459    4.4788    6.6821 N   0  0  0  0  0  0  0  0  0  0  0  0
   25.4400    5.0400    8.0321 S   0  0  0  0  0  0  0  0  0  0  0  0
   24.0940    5.4922    8.8093 N   0  0  0  0  0  0  0  0  0  0  0  0
   23.0527    5.2250    8.0376 C   0  0  0  0  0  0  0  0  0  0  0  0
   21.6863    5.4931    8.2788 C   0  0  0  0  0  0  0  0  0  0  0  0
   20.6923    5.2037    7.3024 C   0  0  0  0  0  0  0  0  0  0  0  0
   19.4716    5.6820    7.7475 N   0  0  0  0  0  0  0  0  0  0  0  0
   19.6716    6.2010    9.0020 C   0  0  0  0  0  0  0  0  0  0  0  0
   21.0209    6.0924    9.3600 C   0  0  0  0  0  0  0  0  0  0  0  0
   21.3656    6.6903   10.9439 S   0  0  0  0  0  0  0  0  0  0  0  0
   19.6701    7.0738   11.1515 C   0  0  0  0  0  0  0  0  0  0  0  0
   18.9026    6.7747   10.0153 C   0  0  0  0  0  0  0  0  0  0  0  0
   17.2539    7.2115   10.2398 S   0  0  0  0  0  0  0  0  0  0  0  0
   17.5904    7.7085   11.9007 C   0  0  0  0  0  0  0  0  0  0  0  0
   18.9393    7.6005   12.2240 C   0  0  0  0  0  0  0  0  0  0  0  0
   19.5837    8.1394   13.4605 C   0  0  0  0  0  0  0  0  0  0  0  0
   16.4957    8.2163   12.6346 C   0  0  0  0  0  0  0  0  0  0  0  0
   16.2552    8.0187   13.9677 C   0  0  1  0  0  0  0  0  0  0  0  0
   15.2438    8.6731   14.7669 C   0  0  0  0  0  0  0  0  0  0  0  0
   14.5687    9.8208   14.4395 C   0  0  0  0  0  0  0  0  0  0  0  0
   13.5998   10.4298   15.2629 C   0  0  0  0  0  0  0  0  0  0  0  0
   12.7974   10.9638   15.8864 N   0  0  0  0  0  0  0  0  0  0  0  0
   14.7760   10.5537   13.2521 C   0  0  0  0  0  0  0  0  0  0  0  0
   14.9135   11.2076   12.3181 N   0  0  0  0  0  0  0  0  0  0  0  0
   15.1326    7.9399   16.0251 C   0  0  0  0  0  0  0  0  0  0  0  0
   14.3086    8.1233   17.1230 C   0  0  0  0  0  0  0  0  0  0  0  0
   14.4295    7.2506   18.1992 C   0  0  0  0  0  0  0  0  0  0  0  0
   13.4108    7.4671   19.5650 Cl  0  0  0  0  0  0  0  0  0  0  0  0
   15.3587    6.2047   18.1845 C   0  0  0  0  0  0  0  0  0  0  0  0
   15.4827    5.1469   19.5318 Cl  0  0  0  0  0  0  0  0  0  0  0  0
   16.1829    6.0153   17.0820 C   0  0  0  0  0  0  0  0  0  0  0  0
   16.0629    6.8861   16.0190 C   0  0  0  0  0  0  0  0  0  0  0  0
   16.8036    6.8798   14.7383 C   0  0  0  0  0  0  0  0  0  0  0  0
   17.5930    6.0397   14.3659 O   0  0  0  0  0  0  0  0  0  0  0  0
   18.8944    3.3598    5.2834 C   0  0  0  0  0  0  0  0  0  0  0  0
   18.3617    6.1676    6.9543 C   0  0  0  0  0  0  0  0  0  0  0  0
   14.6056   -3.0311   -2.9014 C   0  0  2  0  0  0  0  0  0  0  0  0
   13.8561   -1.9927   -2.0081 C   0  0  1  0  0  0  0  0  0  0  0  0
   14.0061   -4.3808   -2.4347 C   0  0  1  0  0  0  0  0  0  0  0  0
   14.4624   -4.5842   -1.0112 C   0  0  0  0  0  0  0  0  0  0  0  0
   13.8261   -3.7020   -0.2521 C   0  0  0  0  0  0  0  0  0  0  0  0
   12.9276   -2.8865   -1.1489 C   0  0  2  0  0  0  0  0  0  0  0  0
   12.5506   -3.9491   -2.1935 C   0  0  0  0  0  0  0  0  0  0  0  0
   23.8912    1.1308   -0.0815 C   0  0  0  0  0  0  0  0  0  0  0  0
   18.0979    3.9717    4.1309 C   0  0  0  0  0  0  0  0  0  0  0  0
   18.4666    7.6750    6.7230 C   0  0  0  0  0  0  0  0  0  0  0  0
   20.3926    7.0818   14.2111 C   0  0  0  0  0  0  0  0  0  0  0  0
   15.3784   -0.0885    0.0936 H   0  0  0  0  0  0  0  0  0  0  0  0
   17.7379   -3.4803   -2.8362 H   0  0  0  0  0  0  0  0  0  0  0  0
   21.6077   -0.8559    0.0734 H   0  0  0  0  0  0  0  0  0  0  0  0
   24.4081    0.5133    1.9132 H   0  0  0  0  0  0  0  0  0  0  0  0
   23.4950   -0.6929    0.9970 H   0  0  0  0  0  0  0  0  0  0  0  0
   20.2567    8.9476   13.1552 H   0  0  0  0  0  0  0  0  0  0  0  0
   18.8236    8.5626   14.1177 H   0  0  0  0  0  0  0  0  0  0  0  0
   15.7553    8.7527   12.0517 H   0  0  0  0  0  0  0  0  0  0  0  0
   13.5765    8.9132   17.1653 H   0  0  0  0  0  0  0  0  0  0  0  0
   16.9000    5.2100   17.0563 H   0  0  0  0  0  0  0  0  0  0  0  0
   18.4811    3.6310    6.2555 H   0  0  0  0  0  0  0  0  0  0  0  0
   18.8447    2.2690    5.1936 H   0  0  0  0  0  0  0  0  0  0  0  0
   18.3614    5.6711    5.9910 H   0  0  0  0  0  0  0  0  0  0  0  0
   17.4331    5.9369    7.4856 H   0  0  0  0  0  0  0  0  0  0  0  0
   14.5551   -2.9058   -3.9812 H   0  0  0  0  0  0  0  0  0  0  0  0
   13.3154   -1.1892   -2.5046 H   0  0  0  0  0  0  0  0  0  0  0  0
   14.1768   -5.2097   -3.1162 H   0  0  0  0  0  0  0  0  0  0  0  0
   15.2202   -5.2879   -0.7203 H   0  0  0  0  0  0  0  0  0  0  0  0
   13.9461   -3.5212    0.8001 H   0  0  0  0  0  0  0  0  0  0  0  0
   12.1155   -2.3548   -0.6598 H   0  0  0  0  0  0  0  0  0  0  0  0
   12.0681   -3.5360   -3.0783 H   0  0  0  0  0  0  0  0  0  0  0  0
   11.9375   -4.7480   -1.7791 H   0  0  0  0  0  0  0  0  0  0  0  0
   24.0208    2.1912    0.1226 H   0  0  0  0  0  0  0  0  0  0  0  0
   24.8058    0.7462   -0.5238 H   0  0  0  0  0  0  0  0  0  0  0  0
   23.0834    1.0123   -0.8001 H   0  0  0  0  0  0  0  0  0  0  0  0
   18.2691    5.0428    4.0451 H   0  0  0  0  0  0  0  0  0  0  0  0
   18.3843    3.5091    3.1908 H   0  0  0  0  0  0  0  0  0  0  0  0
   17.0374    3.7956    4.2863 H   0  0  0  0  0  0  0  0  0  0  0  0
   19.4048    7.9155    6.2271 H   0  0  0  0  0  0  0  0  0  0  0  0
   17.6442    8.0032    6.0936 H   0  0  0  0  0  0  0  0  0  0  0  0
   18.4190    8.2200    7.6616 H   0  0  0  0  0  0  0  0  0  0  0  0
   21.2138    6.7196   13.5987 H   0  0  0  0  0  0  0  0  0  0  0  0
   20.8017    7.5125   15.1214 H   0  0  0  0  0  0  0  0  0  0  0  0
   19.7550    6.2428   14.4734 H   0  0  0  0  0  0  0  0  0  0  0  0
  1  2  2  0  0  0  0
  3  1  1  0  0  0  0
  4  3  1  0  0  0  0
  4 77  1  0  0  0  0
  5  4  2  0  0  0  0
  6  7  2  0  0  0  0
  6  5  1  0  0  0  0
  7  8  1  0  0  0  0
  8  9  1  0  0  0  0
  8  3  2  0  0  0  0
  9 15  1  0  0  0  0
 10 11  1  0  0  0  0
 10  9  2  0  0  0  0
 11 12  3  0  0  0  0
 13 10  1  0  0  0  0
 14 13  3  0  0  0  0
 15  1  1  0  0  0  0
 15 16  2  0  0  0  0
 16 17  1  0  0  0  0
 17 21  2  0  0  0  0
 17 18  1  0  0  0  0
 18 19  1  0  0  0  0
 19 25  1  0  0  0  0
 20 19  2  0  0  0  0
 20 23  1  0  0  0  0
 21 20  1  0  0  0  0
 22 21  1  0  0  0  0
 22 80  1  0  0  0  0
 23 24  1  0  0  0  0
 24 28  1  0  0  0  0
 25 24  2  0  0  0  0
 25 26  1  0  0  0  0
 26 64  1  0  0  0  0
 26 27  1  0  0  0  0
 27 35  1  0  0  0  0
 28 27  2  0  0  0  0
 28 29  1  0  0  0  0
 29 33  1  0  0  0  0
 30 29  2  0  0  0  0
 30 31  1  0  0  0  0
 31 32  1  0  0  0  0
 33 34  1  0  0  0  0
 33 32  2  0  0  0  0
 34 38  1  0  0  0  0
 35 36  1  0  0  0  0
 35 34  2  0  0  0  0
 36 37  1  0  0  0  0
 37 38  2  0  0  0  0
 37 41  1  0  0  0  0
 38 39  1  0  0  0  0
 39 40  1  0  0  0  0
 40 44  1  0  0  0  0
 41 42  1  0  0  0  0
 41 40  2  0  0  0  0
 42 43  1  0  0  0  0
 43 44  2  0  0  0  0
 43 46  1  0  0  0  0
 44 45  1  0  0  0  0
 45 83  1  0  0  0  0
 45 76  1  0  0  0  0
 47 46  1  6  0  0  0
 47 62  1  0  0  0  0
 47 48  1  0  0  0  0
 48 54  1  0  0  0  0
 49 48  2  0  0  0  0
 49 50  1  0  0  0  0
 50 51  3  0  0  0  0
 52 49  1  0  0  0  0
 53 52  3  0  0  0  0
 54 55  1  0  0  0  0
 55 85  1  0  0  0  0
 55 56  2  0  0  0  0
 56 57  1  0  0  0  0
 58 56  1  0  0  0  0
 58 59  1  0  0  0  0
 60 58  2  0  0  0  0
 61 54  2  0  0  0  0
 61 60  1  0  0  0  0
 62 61  1  0  0  0  0
 63 62  2  0  0  0  0
 64 87  1  0  0  0  0
 65 90  1  0  0  0  0
 65 36  1  0  0  0  0
 66 68  1  1  0  0  0
 66  6  1  0  0  0  0
 67 66  1  6  0  0  0
 67  5  1  0  0  0  0
 68 93  1  6  0  0  0
 68 72  1  0  0  0  0
 68 69  1  0  0  0  0
 69 94  1  0  0  0  0
 69 70  2  0  0  0  0
 70 95  1  0  0  0  0
 71 67  1  6  0  0  0
 71 96  1  0  0  0  0
 71 70  1  0  0  0  0
 72 98  1  0  0  0  0
 72 71  1  0  0  0  0
 73 99  1  0  0  0  0
 73 22  1  0  0  0  0
 74104  1  0  0  0  0
 74 64  1  0  0  0  0
 75 65  1  0  0  0  0
 75107  1  0  0  0  0
 76110  1  0  0  0  0
 76109  1  0  0  0  0
 78  7  1  0  0  0  0
 79 16  1  0  0  0  0
 81 22  1  0  0  0  0
 82 45  1  0  0  0  0
 84 46  1  0  0  0  0
 86 60  1  0  0  0  0
 88 64  1  0  0  0  0
 89 65  1  0  0  0  0
 91 66  1  0  0  0  0
 92 67  1  0  0  0  0
 97 72  1  0  0  0  0
100 73  1  0  0  0  0
101 73  1  0  0  0  0
102 74  1  0  0  0  0
103 74  1  0  0  0  0
105 75  1  0  0  0  0
106 75  1  0  0  0  0
108 76  1  0  0  0  0
M  RAD  2  46   2  47   2
M  END
