SCF done       -286.496787989678          0.000937244946
 OpenBabel12282109493D

162178  0  0  0  0  0  0  0  0999 V2000
    0.0122    0.5260    1.9134 C   0  0  0  0  0  0  0  0  0  0  0  0
   -0.3302    1.5623    2.7529 C   0  0  0  0  0  0  0  0  0  0  0  0
    0.1121    1.6410    4.1331 C   0  0  0  0  0  0  0  0  0  0  0  0
   -0.2139    2.9778    4.6309 C   0  0  0  0  0  0  0  0  0  0  0  0
   -0.9162    3.6656    3.6301 C   0  0  0  0  0  0  0  0  0  0  0  0
   -1.0547    2.8046    2.4335 C   0  0  0  0  0  0  0  0  0  0  0  0
   -1.6507    3.1166    1.4208 O   0  0  0  0  0  0  0  0  0  0  0  0
    0.6816    0.6473    4.8870 C   0  0  0  0  0  0  0  0  0  0  0  0
    1.0882    0.8114    6.2284 C   0  0  0  0  0  0  0  0  0  0  0  0
    1.4431    0.8766    7.3182 N   0  0  0  0  0  0  0  0  0  0  0  0
    0.9151   -0.6827    4.4757 C   0  0  0  0  0  0  0  0  0  0  0  0
    1.1258   -1.7878    4.2437 N   0  0  0  0  0  0  0  0  0  0  0  0
    0.0487    3.6010    5.8409 C   0  0  0  0  0  0  0  0  0  0  0  0
   -0.4038    4.9006    6.0154 C   0  0  0  0  0  0  0  0  0  0  0  0
   -1.1069    5.5733    5.0163 C   0  0  0  0  0  0  0  0  0  0  0  0
   -1.3721    4.9570    3.8044 C   0  0  0  0  0  0  0  0  0  0  0  0
    3.0895   -1.1858  -17.8753 C   0  0  0  0  0  0  0  0  0  0  0  0
    2.8427   -0.2480  -18.8532 C   0  0  0  0  0  0  0  0  0  0  0  0
    3.5444   -0.1419  -20.1137 C   0  0  0  0  0  0  0  0  0  0  0  0
    3.0093    1.0275  -20.8157 C   0  0  0  0  0  0  0  0  0  0  0  0
    2.0033    1.6068  -20.0249 C   0  0  0  0  0  0  0  0  0  0  0  0
    1.8532    0.8272  -18.7770 C   0  0  0  0  0  0  0  0  0  0  0  0
    3.3341    1.5929  -22.0384 C   0  0  0  0  0  0  0  0  0  0  0  0
    2.6413    2.7274  -22.4364 C   0  0  0  0  0  0  0  0  0  0  0  0
    1.6440    3.2941  -21.6435 C   0  0  0  0  0  0  0  0  0  0  0  0
    1.3121    2.7340  -20.4202 C   0  0  0  0  0  0  0  0  0  0  0  0
    1.0572    1.0542  -17.8846 O   0  0  0  0  0  0  0  0  0  0  0  0
    4.5329   -0.9616  -20.5975 C   0  0  0  0  0  0  0  0  0  0  0  0
    5.1679   -0.7840  -21.8447 C   0  0  0  0  0  0  0  0  0  0  0  0
    5.0620   -2.0932  -19.9435 C   0  0  0  0  0  0  0  0  0  0  0  0
    5.5445   -3.0301  -19.4853 N   0  0  0  0  0  0  0  0  0  0  0  0
    5.7321   -0.6977  -22.8408 N   0  0  0  0  0  0  0  0  0  0  0  0
   -0.2806    0.2834    0.5668 C   0  0  0  0  0  0  0  0  0  0  0  0
    0.5738   -1.0928   -0.1696 S   0  0  0  0  0  0  0  0  0  0  0  0
   -0.1564   -0.7528   -1.6825 C   0  0  0  0  0  0  0  0  0  0  0  0
   -1.0433    0.3569   -1.6005 C   0  0  0  0  0  0  0  0  0  0  0  0
   -1.1124    0.9297   -0.3426 C   0  0  0  0  0  0  0  0  0  0  0  0
   -0.1685   -1.1655   -3.0077 C   0  0  0  0  0  0  0  0  0  0  0  0
   -1.0634   -0.3052   -3.7066 C   0  0  0  0  0  0  0  0  0  0  0  0
   -1.5837    0.6114   -2.8349 N   0  0  0  0  0  0  0  0  0  0  0  0
    0.5970   -2.3409   -4.0261 S   0  0  0  0  0  0  0  0  0  0  0  0
   -0.2668   -1.6755   -5.3698 C   0  0  0  0  0  0  0  0  0  0  0  0
   -1.1145   -0.6192   -5.0695 C   0  0  0  0  0  0  0  0  0  0  0  0
   -0.2314   -1.9215   -6.7762 C   0  0  0  0  0  0  0  0  0  0  0  0
   -1.1001   -0.9863   -7.3792 C   0  0  0  0  0  0  0  0  0  0  0  0
   -1.8409   -0.1759   -6.3205 C   0  0  0  0  0  0  0  0  0  0  0  0
    0.5629   -2.7867   -7.5244 C   0  0  0  0  0  0  0  0  0  0  0  0
    0.5160   -2.6579   -8.8920 C   0  0  0  0  0  0  0  0  0  0  0  0
   -0.2862   -1.6593   -9.4898 C   0  0  0  0  0  0  0  0  0  0  0  0
   -1.1294   -0.8392   -8.7451 C   0  0  0  0  0  0  0  0  0  0  0  0
    1.3377   -3.3943   -9.9468 C   0  0  0  0  0  0  0  0  0  0  0  0
    1.0509   -2.5441  -11.1637 C   0  0  0  0  0  0  0  0  0  0  0  0
    0.0669   -1.6108  -10.8730 C   0  0  0  0  0  0  0  0  0  0  0  0
    1.4938   -2.4121  -12.4819 C   0  0  0  0  0  0  0  0  0  0  0  0
    0.8164   -1.3652  -13.1639 C   0  0  0  0  0  0  0  0  0  0  0  0
   -0.3625   -0.5600  -12.1791 S   0  0  0  0  0  0  0  0  0  0  0  0
    2.3970   -2.9995  -13.3282 N   0  0  0  0  0  0  0  0  0  0  0  0
    2.3406   -2.3140  -14.5178 C   0  0  0  0  0  0  0  0  0  0  0  0
    1.3486   -1.2953  -14.4469 C   0  0  0  0  0  0  0  0  0  0  0  0
    2.9874   -2.3509  -15.7345 C   0  0  0  0  0  0  0  0  0  0  0  0
    2.5239   -1.3573  -16.6102 C   0  0  0  0  0  0  0  0  0  0  0  0
    1.2323   -0.3829  -15.8983 S   0  0  0  0  0  0  0  0  0  0  0  0
   -3.2857   -0.6580   -6.3311 C   0  0  0  0  0  0  0  0  0  0  0  0
   -1.6891    1.3127   -6.5655 C   0  0  0  0  0  0  0  0  0  0  0  0
    2.8152   -3.3473   -9.5934 C   0  0  0  0  0  0  0  0  0  0  0  0
    0.7891   -4.8058  -10.1030 C   0  0  0  0  0  0  0  0  0  0  0  0
   -2.7458    2.2078   -6.4321 C   0  0  0  0  0  0  0  0  0  0  0  0
   -2.5354    3.5541   -6.6673 C   0  0  0  0  0  0  0  0  0  0  0  0
   -1.2910    4.0348   -7.0346 C   0  0  0  0  0  0  0  0  0  0  0  0
   -0.2242    3.1496   -7.1590 C   0  0  0  0  0  0  0  0  0  0  0  0
   -0.4382    1.7933   -6.9128 C   0  0  0  0  0  0  0  0  0  0  0  0
   -3.7680   -1.4692   -5.3120 C   0  0  0  0  0  0  0  0  0  0  0  0
   -5.0754   -1.9438   -5.3364 C   0  0  0  0  0  0  0  0  0  0  0  0
   -5.9043   -1.5974   -6.4038 C   0  0  0  0  0  0  0  0  0  0  0  0
   -5.4196   -0.8033   -7.4215 C   0  0  0  0  0  0  0  0  0  0  0  0
   -4.1162   -0.3361   -7.3956 C   0  0  0  0  0  0  0  0  0  0  0  0
    3.6099   -4.4853   -9.5726 C   0  0  0  0  0  0  0  0  0  0  0  0
    4.9601   -4.3961   -9.2495 C   0  0  0  0  0  0  0  0  0  0  0  0
    5.5124   -3.1471   -8.9609 C   0  0  0  0  0  0  0  0  0  0  0  0
    4.7219   -2.0176   -8.9933 C   0  0  0  0  0  0  0  0  0  0  0  0
    3.3768   -2.1098   -9.3080 C   0  0  0  0  0  0  0  0  0  0  0  0
    0.8454   -5.6964   -9.0388 C   0  0  0  0  0  0  0  0  0  0  0  0
    0.3597   -6.9849   -9.1860 C   0  0  0  0  0  0  0  0  0  0  0  0
   -0.1889   -7.3986  -10.3812 C   0  0  0  0  0  0  0  0  0  0  0  0
   -0.2678   -6.5104  -11.4544 C   0  0  0  0  0  0  0  0  0  0  0  0
    0.2252   -5.2185  -11.3038 C   0  0  0  0  0  0  0  0  0  0  0  0
   -1.5268    6.8275    5.2290 F   0  0  0  0  0  0  0  0  0  0  0  0
    1.0023    4.3906  -22.0671 F   0  0  0  0  0  0  0  0  0  0  0  0
   -2.5253    1.6696   -3.1056 C   0  0  0  0  0  0  0  0  0  0  0  0
   -3.9692    1.2099   -2.9191 C   0  0  0  0  0  0  0  0  0  0  0  0
    3.3887   -3.9892  -12.9908 C   0  0  0  0  0  0  0  0  0  0  0  0
    4.7336   -3.3461  -12.6623 C   0  0  0  0  0  0  0  0  0  0  0  0
    1.0508    3.4804   -7.4890 O   0  0  0  0  0  0  0  0  0  0  0  0
    1.3554    4.7997   -7.8992 C   0  0  0  0  0  0  0  0  0  0  0  0
   -5.6421   -2.7173   -4.3738 O   0  0  0  0  0  0  0  0  0  0  0  0
   -4.8642   -3.1884   -3.2908 C   0  0  0  0  0  0  0  0  0  0  0  0
    5.8188   -5.4459   -9.1762 O   0  0  0  0  0  0  0  0  0  0  0  0
    5.3590   -6.7658   -9.3909 C   0  0  0  0  0  0  0  0  0  0  0  0
   -0.8461   -7.0004  -12.5817 O   0  0  0  0  0  0  0  0  0  0  0  0
   -0.9944   -6.1798  -13.7236 C   0  0  0  0  0  0  0  0  0  0  0  0
   -0.1547    5.5226    7.1741 F   0  0  0  0  0  0  0  0  0  0  0  0
    2.9429    3.2897  -23.6129 F   0  0  0  0  0  0  0  0  0  0  0  0
    0.8894    5.0935   -9.3220 C   0  0  0  0  0  0  0  0  0  0  0  0
   -3.9439   -4.3430   -3.6766 C   0  0  0  0  0  0  0  0  0  0  0  0
    5.2467   -7.1249  -10.8700 C   0  0  0  0  0  0  0  0  0  0  0  0
    0.2931   -6.0478  -14.5329 C   0  0  0  0  0  0  0  0  0  0  0  0
    0.6631   -0.2262    2.3435 H   0  0  0  0  0  0  0  0  0  0  0  0
    0.5887    3.1281    6.6443 H   0  0  0  0  0  0  0  0  0  0  0  0
   -1.9140    5.4722    3.0274 H   0  0  0  0  0  0  0  0  0  0  0  0
    3.8670   -1.9086  -18.0906 H   0  0  0  0  0  0  0  0  0  0  0  0
    4.0960    1.1965  -22.6889 H   0  0  0  0  0  0  0  0  0  0  0  0
    0.5423    3.1682  -19.8024 H   0  0  0  0  0  0  0  0  0  0  0  0
   -1.7107    1.7774   -0.0663 H   0  0  0  0  0  0  0  0  0  0  0  0
    1.2292   -3.4740   -7.0274 H   0  0  0  0  0  0  0  0  0  0  0  0
   -1.7236   -0.0830   -9.2332 H   0  0  0  0  0  0  0  0  0  0  0  0
    3.7701   -3.0339  -16.0122 H   0  0  0  0  0  0  0  0  0  0  0  0
   -3.7295    1.8590   -6.1579 H   0  0  0  0  0  0  0  0  0  0  0  0
   -3.3585    4.2459   -6.5665 H   0  0  0  0  0  0  0  0  0  0  0  0
   -1.1701    5.0910   -7.2139 H   0  0  0  0  0  0  0  0  0  0  0  0
    0.4022    1.1232   -7.0106 H   0  0  0  0  0  0  0  0  0  0  0  0
   -3.1139   -1.7336   -4.4976 H   0  0  0  0  0  0  0  0  0  0  0  0
   -6.9171   -1.9663   -6.4104 H   0  0  0  0  0  0  0  0  0  0  0  0
   -6.0630   -0.5443   -8.2487 H   0  0  0  0  0  0  0  0  0  0  0  0
   -3.7533    0.2855   -8.1982 H   0  0  0  0  0  0  0  0  0  0  0  0
    3.1656   -5.4412   -9.7989 H   0  0  0  0  0  0  0  0  0  0  0  0
    6.5598   -3.0938   -8.7117 H   0  0  0  0  0  0  0  0  0  0  0  0
    5.1550   -1.0547   -8.7685 H   0  0  0  0  0  0  0  0  0  0  0  0
    2.7611   -1.2228   -9.3288 H   0  0  0  0  0  0  0  0  0  0  0  0
    1.2765   -5.3930   -8.0989 H   0  0  0  0  0  0  0  0  0  0  0  0
    0.4113   -7.6728   -8.3554 H   0  0  0  0  0  0  0  0  0  0  0  0
   -0.5714   -8.3981  -10.5098 H   0  0  0  0  0  0  0  0  0  0  0  0
    0.1619   -4.5211  -12.1222 H   0  0  0  0  0  0  0  0  0  0  0  0
   -2.3691    2.0191   -4.1283 H   0  0  0  0  0  0  0  0  0  0  0  0
   -2.3055    2.4889   -2.4163 H   0  0  0  0  0  0  0  0  0  0  0  0
   -4.1202    0.8323   -1.9101 H   0  0  0  0  0  0  0  0  0  0  0  0
   -4.6421    2.0473   -3.0794 H   0  0  0  0  0  0  0  0  0  0  0  0
   -4.2171    0.4262   -3.6316 H   0  0  0  0  0  0  0  0  0  0  0  0
    3.0198   -4.5515  -12.1305 H   0  0  0  0  0  0  0  0  0  0  0  0
    3.4980   -4.6690  -13.8421 H   0  0  0  0  0  0  0  0  0  0  0  0
    4.6292   -2.6617  -11.8241 H   0  0  0  0  0  0  0  0  0  0  0  0
    5.4567   -4.1108  -12.3945 H   0  0  0  0  0  0  0  0  0  0  0  0
    5.1089   -2.7947  -13.5209 H   0  0  0  0  0  0  0  0  0  0  0  0
    0.9441    5.5309   -7.1927 H   0  0  0  0  0  0  0  0  0  0  0  0
    2.4465    4.8509   -7.8480 H   0  0  0  0  0  0  0  0  0  0  0  0
   -4.2934   -2.3682   -2.8363 H   0  0  0  0  0  0  0  0  0  0  0  0
   -5.6025   -3.5333   -2.5617 H   0  0  0  0  0  0  0  0  0  0  0  0
    6.1195   -7.3952   -8.9200 H   0  0  0  0  0  0  0  0  0  0  0  0
    4.4055   -6.9336   -8.8756 H   0  0  0  0  0  0  0  0  0  0  0  0
   -1.7541   -6.6882  -14.3237 H   0  0  0  0  0  0  0  0  0  0  0  0
   -1.3825   -5.1926  -13.4433 H   0  0  0  0  0  0  0  0  0  0  0  0
   -0.1933    5.0300   -9.3994 H   0  0  0  0  0  0  0  0  0  0  0  0
    1.2060    6.0916   -9.6118 H   0  0  0  0  0  0  0  0  0  0  0  0
    1.3247    4.3715  -10.0083 H   0  0  0  0  0  0  0  0  0  0  0  0
   -3.2197   -4.0362   -4.4277 H   0  0  0  0  0  0  0  0  0  0  0  0
   -3.4118   -4.6941   -2.7967 H   0  0  0  0  0  0  0  0  0  0  0  0
   -4.5323   -5.1610   -4.0841 H   0  0  0  0  0  0  0  0  0  0  0  0
    6.1992   -6.9490  -11.3639 H   0  0  0  0  0  0  0  0  0  0  0  0
    4.9878   -8.1753  -10.9692 H   0  0  0  0  0  0  0  0  0  0  0  0
    4.4846   -6.5286  -11.3656 H   0  0  0  0  0  0  0  0  0  0  0  0
    0.6392   -7.0322  -14.8375 H   0  0  0  0  0  0  0  0  0  0  0  0
    0.1069   -5.4480  -15.4196 H   0  0  0  0  0  0  0  0  0  0  0  0
    1.0760   -5.5743  -13.9463 H   0  0  0  0  0  0  0  0  0  0  0  0
  1107  1  0  0  0  0
  1  2  2  0  0  0  0
  2  3  1  0  0  0  0
  3  4  1  0  0  0  0
  3  8  2  0  0  0  0
  4 13  2  0  0  0  0
  5 16  2  0  0  0  0
  5  4  1  0  0  0  0
  6  2  1  0  0  0  0
  6  5  1  0  0  0  0
  7  6  2  0  0  0  0
  8  9  1  0  0  0  0
  9 10  3  0  0  0  0
 11  8  1  0  0  0  0
 12 11  3  0  0  0  0
 13 14  1  0  0  0  0
 13108  1  0  0  0  0
 14101  1  0  0  0  0
 15 87  1  0  0  0  0
 15 14  2  0  0  0  0
 16 15  1  0  0  0  0
 17 61  1  0  0  0  0
 18 22  1  0  0  0  0
 18 17  2  0  0  0  0
 19 18  1  0  0  0  0
 20 19  1  0  0  0  0
 20 21  2  0  0  0  0
 21 22  1  0  0  0  0
 22 27  2  0  0  0  0
 23 20  1  0  0  0  0
 24 23  2  0  0  0  0
 24 25  1  0  0  0  0
 25 26  2  0  0  0  0
 26 21  1  0  0  0  0
 26112  1  0  0  0  0
 28 19  2  0  0  0  0
 28 30  1  0  0  0  0
 29 28  1  0  0  0  0
 30 31  3  0  0  0  0
 32 29  3  0  0  0  0
 33  1  1  0  0  0  0
 34 33  1  0  0  0  0
 35 36  2  0  0  0  0
 35 34  1  0  0  0  0
 36 37  1  0  0  0  0
 37113  1  0  0  0  0
 37 33  2  0  0  0  0
 38 35  1  0  0  0  0
 39 38  2  0  0  0  0
 39 40  1  0  0  0  0
 40 36  1  0  0  0  0
 41 38  1  0  0  0  0
 42 43  2  0  0  0  0
 42 41  1  0  0  0  0
 43 39  1  0  0  0  0
 44 42  1  0  0  0  0
 45 44  1  0  0  0  0
 45 46  1  0  0  0  0
 46 43  1  0  0  0  0
 47114  1  0  0  0  0
 47 44  2  0  0  0  0
 48 47  1  0  0  0  0
 49 48  2  0  0  0  0
 49 50  1  0  0  0  0
 50 45  2  0  0  0  0
 51 65  1  0  0  0  0
 51 48  1  0  0  0  0
 52 53  2  0  0  0  0
 52 51  1  0  0  0  0
 53 49  1  0  0  0  0
 54 52  1  0  0  0  0
 55 54  2  0  0  0  0
 55 56  1  0  0  0  0
 56 53  1  0  0  0  0
 57 91  1  0  0  0  0
 57 54  1  0  0  0  0
 58 59  2  0  0  0  0
 58 57  1  0  0  0  0
 59 55  1  0  0  0  0
 60 58  1  0  0  0  0
 61 62  1  0  0  0  0
 61 60  2  0  0  0  0
 62 59  1  0  0  0  0
 63 46  1  0  0  0  0
 63 72  2  0  0  0  0
 64 67  1  0  0  0  0
 64 46  1  0  0  0  0
 65 77  2  0  0  0  0
 65 81  1  0  0  0  0
 66 51  1  0  0  0  0
 66 82  2  0  0  0  0
 67117  1  0  0  0  0
 68118  1  0  0  0  0
 68 67  2  0  0  0  0
 69 68  1  0  0  0  0
 70 69  2  0  0  0  0
 70 71  1  0  0  0  0
 71 64  2  0  0  0  0
 72121  1  0  0  0  0
 73 72  1  0  0  0  0
 73 95  1  0  0  0  0
 74 73  2  0  0  0  0
 75 76  2  0  0  0  0
 75 74  1  0  0  0  0
 76 63  1  0  0  0  0
 77 78  1  0  0  0  0
 78 97  1  0  0  0  0
 78 79  2  0  0  0  0
 79126  1  0  0  0  0
 80 79  1  0  0  0  0
 80127  1  0  0  0  0
 81 80  2  0  0  0  0
 82129  1  0  0  0  0
 83 82  1  0  0  0  0
 83130  1  0  0  0  0
 84 83  2  0  0  0  0
 85 86  2  0  0  0  0
 85 84  1  0  0  0  0
 86 66  1  0  0  0  0
 88 25  1  0  0  0  0
 89 90  1  0  0  0  0
 89 40  1  0  0  0  0
 89134  1  0  0  0  0
 90135  1  0  0  0  0
 91 92  1  0  0  0  0
 91138  1  0  0  0  0
 92141  1  0  0  0  0
 92140  1  0  0  0  0
 93 70  1  0  0  0  0
 94144  1  0  0  0  0
 94 93  1  0  0  0  0
 94143  1  0  0  0  0
 95 96  1  0  0  0  0
 96145  1  0  0  0  0
 96146  1  0  0  0  0
 98 97  1  0  0  0  0
 98147  1  0  0  0  0
 98148  1  0  0  0  0
 99 85  1  0  0  0  0
100150  1  0  0  0  0
100 99  1  0  0  0  0
102 24  1  0  0  0  0
103 94  1  0  0  0  0
104 96  1  0  0  0  0
104155  1  0  0  0  0
105 98  1  0  0  0  0
106162  1  0  0  0  0
106100  1  0  0  0  0
109 16  1  0  0  0  0
110 17  1  0  0  0  0
111 23  1  0  0  0  0
115 50  1  0  0  0  0
116 60  1  0  0  0  0
119 69  1  0  0  0  0
120 71  1  0  0  0  0
122 74  1  0  0  0  0
123 75  1  0  0  0  0
124 76  1  0  0  0  0
125 77  1  0  0  0  0
128 81  1  0  0  0  0
131 84  1  0  0  0  0
132 86  1  0  0  0  0
133 89  1  0  0  0  0
136 90  1  0  0  0  0
137 90  1  0  0  0  0
139 91  1  0  0  0  0
142 92  1  0  0  0  0
149100  1  0  0  0  0
151103  1  0  0  0  0
152103  1  0  0  0  0
153103  1  0  0  0  0
154104  1  0  0  0  0
156104  1  0  0  0  0
157105  1  0  0  0  0
158105  1  0  0  0  0
159105  1  0  0  0  0
160106  1  0  0  0  0
161106  1  0  0  0  0
M  END
