m-ITIC-OR-4Cl.sdf
  xtb     12202113593D
 energy: -257.661892637445 gnorm: 0.000878533810 xtb: 6.4.1 (unknown)
142156  0     0  0            999 V2000
    7.5126    4.5628   -4.5006 C   0  0  0  0  0  0  0  0  0  0  0  0
    7.1637    3.4376   -4.1953 O   0  0  0  0  0  0  0  0  0  0  0  0
    8.7951    4.9341   -5.1327 C   0  0  0  0  0  0  0  0  0  0  0  0
    9.8399    4.1146   -5.5060 C   0  0  0  0  0  0  0  0  0  0  0  0
   10.9552    4.6979   -6.0946 C   0  0  0  0  0  0  0  0  0  0  0  0
   11.0022    6.0810   -6.2965 C   0  0  0  0  0  0  0  0  0  0  0  0
    9.9458    6.9027   -5.9167 C   0  0  0  0  0  0  0  0  0  0  0  0
    8.8326    6.3251   -5.3293 C   0  0  0  0  0  0  0  0  0  0  0  0
    7.5854    6.9058   -4.8309 C   0  0  0  0  0  0  0  0  0  0  0  0
    7.2801    8.2427   -4.8473 C   0  0  0  0  0  0  0  0  0  0  0  0
    8.1358    9.2432   -5.3556 C   0  0  0  0  0  0  0  0  0  0  0  0
    8.7791   10.1080   -5.7504 N   0  0  0  0  0  0  0  0  0  0  0  0
    6.0900    8.8281   -4.3668 C   0  0  0  0  0  0  0  0  0  0  0  0
    5.1579    9.3900   -3.9990 N   0  0  0  0  0  0  0  0  0  0  0  0
    6.7721    5.8167   -4.3275 C   0  0  0  0  0  0  0  0  0  0  0  0
    5.5174    5.9424   -3.7814 C   0  0  0  0  0  0  0  0  0  0  0  0
    4.6459    4.9769   -3.2635 C   0  0  0  0  0  0  0  0  0  0  0  0
    3.3974    5.3271   -2.7365 C   0  0  0  0  0  0  0  0  0  0  0  0
    2.6994    4.2330   -2.2717 C   0  0  0  0  0  0  0  0  0  0  0  0
    3.3958    3.0130   -2.4334 C   0  0  0  0  0  0  0  0  0  0  0  0
    4.9326    3.2408   -3.1701 S   0  0  0  0  0  0  0  0  0  0  0  0
    2.6600    1.9309   -1.9582 C   0  0  0  0  0  0  0  0  0  0  0  0
    2.8428    0.4439   -1.8204 C   0  0  0  0  0  0  0  0  0  0  0  0
    4.0833    0.2012   -0.9792 C   0  0  0  0  0  0  0  0  0  0  0  0
    3.9996   -0.0699    0.3725 C   0  0  0  0  0  0  0  0  0  0  0  0
    5.1530   -0.2510    1.1396 C   0  0  0  0  0  0  0  0  0  0  0  0
    6.3977   -0.1407    0.5310 C   0  0  0  0  0  0  0  0  0  0  0  0
    6.4732    0.1475   -0.8222 C   0  0  0  0  0  0  0  0  0  0  0  0
    5.3333    0.3199   -1.5798 C   0  0  0  0  0  0  0  0  0  0  0  0
    2.9229   -0.2826   -3.1517 C   0  0  0  0  0  0  0  0  0  0  0  0
    3.4471   -1.5704   -3.2047 C   0  0  0  0  0  0  0  0  0  0  0  0
    3.4802   -2.2469   -4.4072 C   0  0  0  0  0  0  0  0  0  0  0  0
    2.9963   -1.6677   -5.5690 C   0  0  0  0  0  0  0  0  0  0  0  0
    2.4643   -0.3845   -5.5221 C   0  0  0  0  0  0  0  0  0  0  0  0
    2.4279    0.2966   -4.3040 C   0  0  0  0  0  0  0  0  0  0  0  0
    1.5382    0.0565   -1.1467 C   0  0  0  0  0  0  0  0  0  0  0  0
    0.7160    1.1910   -0.9439 C   0  0  0  0  0  0  0  0  0  0  0  0
    1.4363    2.3213   -1.4379 C   0  0  0  0  0  0  0  0  0  0  0  0
    1.1379    4.0236   -1.5223 S   0  0  0  0  0  0  0  0  0  0  0  0
   -0.5443    1.0949   -0.3584 C   0  0  0  0  0  0  0  0  0  0  0  0
   -0.9655   -0.1566    0.0243 C   0  0  0  0  0  0  0  0  0  0  0  0
   -2.2711   -0.5466    0.6947 C   0  0  0  0  0  0  0  0  0  0  0  0
   -2.4455    0.2554    1.9696 C   0  0  0  0  0  0  0  0  0  0  0  0
   -2.0099   -0.2394    3.1832 C   0  0  0  0  0  0  0  0  0  0  0  0
   -2.1525    0.5038    4.3568 C   0  0  0  0  0  0  0  0  0  0  0  0
   -2.7284    1.7672    4.2923 C   0  0  0  0  0  0  0  0  0  0  0  0
   -3.1497    2.2639    3.0698 C   0  0  0  0  0  0  0  0  0  0  0  0
   -3.0132    1.5244    1.9128 C   0  0  0  0  0  0  0  0  0  0  0  0
   -3.4876   -0.4206   -0.2097 C   0  0  0  0  0  0  0  0  0  0  0  0
   -3.3692   -0.2473   -1.5833 C   0  0  0  0  0  0  0  0  0  0  0  0
   -4.5088   -0.1976   -2.3637 C   0  0  0  0  0  0  0  0  0  0  0  0
   -5.7687   -0.3285   -1.8050 C   0  0  0  0  0  0  0  0  0  0  0  0
   -5.8925   -0.5145   -0.4313 C   0  0  0  0  0  0  0  0  0  0  0  0
   -4.7422   -0.5598    0.3560 C   0  0  0  0  0  0  0  0  0  0  0  0
   -2.0466   -2.0177    0.9174 C   0  0  0  0  0  0  0  0  0  0  0  0
   -0.8317   -2.4112    0.3799 C   0  0  0  0  0  0  0  0  0  0  0  0
   -0.1365   -1.2890   -0.1655 C   0  0  0  0  0  0  0  0  0  0  0  0
    1.1175   -1.1951   -0.7640 C   0  0  0  0  0  0  0  0  0  0  0  0
   -0.4933   -4.1000    0.5465 S   0  0  0  0  0  0  0  0  0  0  0  0
   -2.0191   -4.2965    1.3695 C   0  0  0  0  0  0  0  0  0  0  0  0
   -2.7397   -3.0851    1.4826 C   0  0  0  0  0  0  0  0  0  0  0  0
   -4.2281   -3.2937    2.3172 S   0  0  0  0  0  0  0  0  0  0  0  0
   -3.8860   -5.0103    2.5228 C   0  0  0  0  0  0  0  0  0  0  0  0
   -2.6618   -5.3704    1.9471 C   0  0  0  0  0  0  0  0  0  0  0  0
   -4.6858   -5.9515    3.1826 C   0  0  0  0  0  0  0  0  0  0  0  0
   -5.8893   -5.8073    3.8296 C   0  0  0  0  0  0  0  0  0  0  0  0
   -6.6170   -6.8625    4.5060 C   0  0  0  0  0  0  0  0  0  0  0  0
   -6.2768   -8.1874    4.6022 C   0  0  0  0  0  0  0  0  0  0  0  0
   -5.1320   -8.7924    4.0420 C   0  0  0  0  0  0  0  0  0  0  0  0
   -4.2344   -9.3700    3.6168 N   0  0  0  0  0  0  0  0  0  0  0  0
   -7.0453   -9.1540    5.2853 C   0  0  0  0  0  0  0  0  0  0  0  0
   -7.6144   -9.9903    5.8277 N   0  0  0  0  0  0  0  0  0  0  0  0
   -7.8191   -6.2618    5.0854 C   0  0  0  0  0  0  0  0  0  0  0  0
   -8.8463   -6.8038    5.8399 C   0  0  0  0  0  0  0  0  0  0  0  0
   -9.8775   -5.9698    6.2600 C   0  0  0  0  0  0  0  0  0  0  0  0
   -9.8907   -4.6099    5.9334 C   0  0  0  0  0  0  0  0  0  0  0  0
   -8.8620   -4.0623    5.1769 C   0  0  0  0  0  0  0  0  0  0  0  0
   -7.8416   -4.8937    4.7651 C   0  0  0  0  0  0  0  0  0  0  0  0
   -6.6437   -4.5570    3.9686 C   0  0  0  0  0  0  0  0  0  0  0  0
   -6.3615   -3.4589    3.5282 O   0  0  0  0  0  0  0  0  0  0  0  0
  -11.1534   -6.6342    7.1985 Cl  0  0  0  0  0  0  0  0  0  0  0  0
   12.3854    6.7901   -7.0271 Cl  0  0  0  0  0  0  0  0  0  0  0  0
  -11.1807   -3.6102    6.4686 Cl  0  0  0  0  0  0  0  0  0  0  0  0
   12.2780    3.7139   -6.5753 Cl  0  0  0  0  0  0  0  0  0  0  0  0
   -7.0611   -0.6602    0.2380 O   0  0  0  0  0  0  0  0  0  0  0  0
   -8.2755   -0.6914   -0.4841 C   0  0  0  0  0  0  0  0  0  0  0  0
   -9.3935   -0.9350    0.5175 C   0  0  0  0  0  0  0  0  0  0  0  0
   -1.7136   -0.1168    5.4840 O   0  0  0  0  0  0  0  0  0  0  0  0
   -1.7461    0.5633    6.7227 C   0  0  0  0  0  0  0  0  0  0  0  0
   -0.6118    1.5737    6.8689 C   0  0  0  0  0  0  0  0  0  0  0  0
    1.9557    0.2934   -6.5827 O   0  0  0  0  0  0  0  0  0  0  0  0
    1.9669   -0.3174   -7.8584 C   0  0  0  0  0  0  0  0  0  0  0  0
    1.3588    0.6663   -8.8457 C   0  0  0  0  0  0  0  0  0  0  0  0
    4.9277   -0.5456    2.4487 O   0  0  0  0  0  0  0  0  0  0  0  0
    6.0164   -0.6788    3.3402 C   0  0  0  0  0  0  0  0  0  0  0  0
    6.5986    0.6662    3.7655 C   0  0  0  0  0  0  0  0  0  0  0  0
    9.7888    3.0495   -5.3446 H   0  0  0  0  0  0  0  0  0  0  0  0
   10.0203    7.9636   -6.0895 H   0  0  0  0  0  0  0  0  0  0  0  0
    5.1117    6.9455   -3.7298 H   0  0  0  0  0  0  0  0  0  0  0  0
    3.0453    6.3426   -2.7062 H   0  0  0  0  0  0  0  0  0  0  0  0
    3.0469   -0.1549    0.8712 H   0  0  0  0  0  0  0  0  0  0  0  0
    7.3107   -0.2761    1.0885 H   0  0  0  0  0  0  0  0  0  0  0  0
    7.4420    0.2403   -1.2893 H   0  0  0  0  0  0  0  0  0  0  0  0
    5.4097    0.5400   -2.6331 H   0  0  0  0  0  0  0  0  0  0  0  0
    3.8401   -2.0309   -2.3115 H   0  0  0  0  0  0  0  0  0  0  0  0
    3.8908   -3.2449   -4.4483 H   0  0  0  0  0  0  0  0  0  0  0  0
    3.0394   -2.2216   -6.4931 H   0  0  0  0  0  0  0  0  0  0  0  0
    2.0040    1.2884   -4.2978 H   0  0  0  0  0  0  0  0  0  0  0  0
   -1.1551    1.9722   -0.2141 H   0  0  0  0  0  0  0  0  0  0  0  0
   -1.5559   -1.2146    3.2617 H   0  0  0  0  0  0  0  0  0  0  0  0
   -2.8616    2.3715    5.1754 H   0  0  0  0  0  0  0  0  0  0  0  0
   -3.5949    3.2470    3.0272 H   0  0  0  0  0  0  0  0  0  0  0  0
   -3.3619    1.9195    0.9711 H   0  0  0  0  0  0  0  0  0  0  0  0
   -2.3968   -0.1508   -2.0413 H   0  0  0  0  0  0  0  0  0  0  0  0
   -4.4176   -0.0563   -3.4305 H   0  0  0  0  0  0  0  0  0  0  0  0
   -6.6372   -0.2854   -2.4430 H   0  0  0  0  0  0  0  0  0  0  0  0
   -4.8615   -0.7036    1.4184 H   0  0  0  0  0  0  0  0  0  0  0  0
    1.7294   -2.0719   -0.9061 H   0  0  0  0  0  0  0  0  0  0  0  0
   -2.2833   -6.3765    1.9709 H   0  0  0  0  0  0  0  0  0  0  0  0
   -4.2564   -6.9463    3.1769 H   0  0  0  0  0  0  0  0  0  0  0  0
   -8.8723   -7.8458    6.1129 H   0  0  0  0  0  0  0  0  0  0  0  0
   -8.8569   -3.0153    4.9180 H   0  0  0  0  0  0  0  0  0  0  0  0
   -8.4321    0.2638   -1.0056 H   0  0  0  0  0  0  0  0  0  0  0  0
   -8.2514   -1.4983   -1.2300 H   0  0  0  0  0  0  0  0  0  0  0  0
  -10.3494   -0.9860    0.0039 H   0  0  0  0  0  0  0  0  0  0  0  0
   -9.4195   -0.1290    1.2454 H   0  0  0  0  0  0  0  0  0  0  0  0
   -9.2164   -1.8690    1.0437 H   0  0  0  0  0  0  0  0  0  0  0  0
   -2.7205    1.0431    6.8758 H   0  0  0  0  0  0  0  0  0  0  0  0
   -1.6339   -0.2288    7.4685 H   0  0  0  0  0  0  0  0  0  0  0  0
   -0.6875    2.3559    6.1175 H   0  0  0  0  0  0  0  0  0  0  0  0
    0.3448    1.0722    6.7454 H   0  0  0  0  0  0  0  0  0  0  0  0
   -0.6494    2.0263    7.8560 H   0  0  0  0  0  0  0  0  0  0  0  0
    1.3794   -1.2459   -7.8370 H   0  0  0  0  0  0  0  0  0  0  0  0
    2.9980   -0.5599   -8.1510 H   0  0  0  0  0  0  0  0  0  0  0  0
    0.3408    0.9058   -8.5511 H   0  0  0  0  0  0  0  0  0  0  0  0
    1.3503    0.2334   -9.8419 H   0  0  0  0  0  0  0  0  0  0  0  0
    1.9400    1.5842   -8.8595 H   0  0  0  0  0  0  0  0  0  0  0  0
    6.7934   -1.3226    2.9098 H   0  0  0  0  0  0  0  0  0  0  0  0
    5.5917   -1.1891    4.2094 H   0  0  0  0  0  0  0  0  0  0  0  0
    6.9984    1.2056    2.9102 H   0  0  0  0  0  0  0  0  0  0  0  0
    7.3947    0.5087    4.4879 H   0  0  0  0  0  0  0  0  0  0  0  0
    5.8221    1.2752    4.2216 H   0  0  0  0  0  0  0  0  0  0  0  0
  1  2  2  0  0  0  0
  1  3  1  0  0  0  0
  3  4  2  0  0  0  0
  4  5  1  0  0  0  0
  5  6  2  0  0  0  0
  6  7  1  0  0  0  0
  7  8  2  0  0  0  0
  3  8  1  0  0  0  0
  8  9  1  0  0  0  0
  9 10  2  0  0  0  0
 10 11  1  0  0  0  0
 11 12  3  0  0  0  0
 10 13  1  0  0  0  0
 13 14  3  0  0  0  0
  9 15  1  0  0  0  0
  1 15  1  0  0  0  0
 15 16  2  0  0  0  0
 16 17  1  0  0  0  0
 17 18  2  0  0  0  0
 18 19  1  0  0  0  0
 19 20  2  0  0  0  0
 20 21  1  0  0  0  0
 17 21  1  0  0  0  0
 20 22  1  0  0  0  0
 22 23  1  0  0  0  0
 23 24  1  0  0  0  0
 24 25  2  0  0  0  0
 25 26  1  0  0  0  0
 26 27  2  0  0  0  0
 27 28  1  0  0  0  0
 28 29  2  0  0  0  0
 24 29  1  0  0  0  0
 23 30  1  0  0  0  0
 30 31  2  0  0  0  0
 31 32  1  0  0  0  0
 32 33  2  0  0  0  0
 33 34  1  0  0  0  0
 34 35  2  0  0  0  0
 30 35  1  0  0  0  0
 23 36  1  0  0  0  0
 36 37  2  0  0  0  0
 37 38  1  0  0  0  0
 22 38  2  0  0  0  0
 38 39  1  0  0  0  0
 19 39  1  0  0  0  0
 37 40  1  0  0  0  0
 40 41  2  0  0  0  0
 41 42  1  0  0  0  0
 42 43  1  0  0  0  0
 43 44  2  0  0  0  0
 44 45  1  0  0  0  0
 45 46  2  0  0  0  0
 46 47  1  0  0  0  0
 47 48  2  0  0  0  0
 43 48  1  0  0  0  0
 42 49  1  0  0  0  0
 49 50  2  0  0  0  0
 50 51  1  0  0  0  0
 51 52  2  0  0  0  0
 52 53  1  0  0  0  0
 53 54  2  0  0  0  0
 49 54  1  0  0  0  0
 42 55  1  0  0  0  0
 55 56  2  0  0  0  0
 56 57  1  0  0  0  0
 41 57  1  0  0  0  0
 57 58  2  0  0  0  0
 36 58  1  0  0  0  0
 56 59  1  0  0  0  0
 59 60  1  0  0  0  0
 60 61  2  0  0  0  0
 55 61  1  0  0  0  0
 61 62  1  0  0  0  0
 62 63  1  0  0  0  0
 63 64  2  0  0  0  0
 60 64  1  0  0  0  0
 63 65  1  0  0  0  0
 65 66  2  0  0  0  0
 66 67  1  0  0  0  0
 67 68  2  0  0  0  0
 68 69  1  0  0  0  0
 69 70  3  0  0  0  0
 68 71  1  0  0  0  0
 71 72  3  0  0  0  0
 67 73  1  0  0  0  0
 73 74  2  0  0  0  0
 74 75  1  0  0  0  0
 75 76  2  0  0  0  0
 76 77  1  0  0  0  0
 77 78  2  0  0  0  0
 73 78  1  0  0  0  0
 78 79  1  0  0  0  0
 66 79  1  0  0  0  0
 79 80  2  0  0  0  0
 75 81  1  0  0  0  0
  6 82  1  0  0  0  0
 76 83  1  0  0  0  0
  5 84  1  0  0  0  0
 53 85  1  0  0  0  0
 85 86  1  0  0  0  0
 86 87  1  0  0  0  0
 45 88  1  0  0  0  0
 88 89  1  0  0  0  0
 89 90  1  0  0  0  0
 34 91  1  0  0  0  0
 91 92  1  0  0  0  0
 92 93  1  0  0  0  0
 26 94  1  0  0  0  0
 94 95  1  0  0  0  0
 95 96  1  0  0  0  0
  4 97  1  0  0  0  0
  7 98  1  0  0  0  0
 16 99  1  0  0  0  0
 18100  1  0  0  0  0
 25101  1  0  0  0  0
 27102  1  0  0  0  0
 28103  1  0  0  0  0
 29104  1  0  0  0  0
 31105  1  0  0  0  0
 32106  1  0  0  0  0
 33107  1  0  0  0  0
 35108  1  0  0  0  0
 40109  1  0  0  0  0
 44110  1  0  0  0  0
 46111  1  0  0  0  0
 47112  1  0  0  0  0
 48113  1  0  0  0  0
 50114  1  0  0  0  0
 51115  1  0  0  0  0
 52116  1  0  0  0  0
 54117  1  0  0  0  0
 58118  1  0  0  0  0
 64119  1  0  0  0  0
 65120  1  0  0  0  0
 74121  1  0  0  0  0
 77122  1  0  0  0  0
 86123  1  0  0  0  0
 86124  1  0  0  0  0
 87125  1  0  0  0  0
 87126  1  0  0  0  0
 87127  1  0  0  0  0
 89128  1  0  0  0  0
 89129  1  0  0  0  0
 90130  1  0  0  0  0
 90131  1  0  0  0  0
 90132  1  0  0  0  0
 92133  1  0  0  0  0
 92134  1  0  0  0  0
 93135  1  0  0  0  0
 93136  1  0  0  0  0
 93137  1  0  0  0  0
 95138  1  0  0  0  0
 95139  1  0  0  0  0
 96140  1  0  0  0  0
 96141  1  0  0  0  0
 96142  1  0  0  0  0
M  END
