N3_srivani.sdf
  xtb     12202113183D
 energy: -151.387621803316 gnorm: 0.000604292510 xtb: 6.4.1 (unknown)
 82 89  0     0  0            999 V2000
    4.2043   -1.2700    4.8785 C   0  0  0  0  0  0  0  0  0  0  0  0
    3.5377   -1.4228    3.2806 S   0  0  0  0  0  0  0  0  0  0  0  0
    2.0366   -0.7409    3.8031 C   0  0  0  0  0  0  0  0  0  0  0  0
    2.0656   -0.3933    5.1396 C   0  0  0  0  0  0  0  0  0  0  0  0
    3.2768   -0.6914    5.7410 C   0  0  0  0  0  0  0  0  0  0  0  0
    0.9803   -0.4968    2.8441 C   0  0  0  0  0  0  0  0  0  0  0  0
    1.3556    0.0153    1.5852 C   0  0  0  0  0  0  0  0  0  0  0  0
    0.4267    0.4240    0.6602 C   0  0  0  0  0  0  0  0  0  0  0  0
   -0.9511    0.3298    0.9522 C   0  0  0  0  0  0  0  0  0  0  0  0
   -1.3423   -0.2791    2.1685 C   0  0  0  0  0  0  0  0  0  0  0  0
   -0.3789   -0.7088    3.1048 C   0  0  0  0  0  0  0  0  0  0  0  0
   -1.9115    0.7946    0.0342 C   0  0  0  0  0  0  0  0  0  0  0  0
   -3.2701    0.5576    0.2630 C   0  0  0  0  0  0  0  0  0  0  0  0
   -3.6499   -0.0333    1.4823 C   0  0  0  0  0  0  0  0  0  0  0  0
   -2.7229   -0.4255    2.4202 C   0  0  0  0  0  0  0  0  0  0  0  0
    0.8735    0.9244   -0.6571 C   0  0  0  0  0  0  0  0  0  0  0  0
   -0.1088    1.4944   -1.4425 N   0  0  0  0  0  0  0  0  0  0  0  0
   -1.4433    1.6270   -1.0950 C   0  0  0  0  0  0  0  0  0  0  0  0
   -3.1888   -1.0218    3.6854 C   0  0  0  0  0  0  0  0  0  0  0  0
   -2.2005   -1.5119    4.5161 N   0  0  0  0  0  0  0  0  0  0  0  0
   -0.8335   -1.4847    4.2777 C   0  0  0  0  0  0  0  0  0  0  0  0
   -2.6411   -2.2184    5.7172 C   0  0  0  0  0  0  0  0  0  0  0  0
   -2.8416   -3.7025    5.4402 C   0  0  0  0  0  0  0  0  0  0  0  0
   -4.3622   -1.0964    3.9830 O   0  0  0  0  0  0  0  0  0  0  0  0
   -0.0852   -2.1036    5.0046 O   0  0  0  0  0  0  0  0  0  0  0  0
    2.0275    0.8678   -1.0219 O   0  0  0  0  0  0  0  0  0  0  0  0
    0.2900    2.0793   -2.7202 C   0  0  0  0  0  0  0  0  0  0  0  0
   -0.0460    1.1349   -3.8680 C   0  0  0  0  0  0  0  0  0  0  0  0
   -2.1560    2.4195   -1.6730 O   0  0  0  0  0  0  0  0  0  0  0  0
   -5.6418    0.9391   -2.7967 C   0  0  0  0  0  0  0  0  0  0  0  0
   -4.0245    0.4546   -2.3904 S   0  0  0  0  0  0  0  0  0  0  0  0
   -4.2945    0.8152   -0.7266 C   0  0  0  0  0  0  0  0  0  0  0  0
   -5.5810    1.2641   -0.4957 C   0  0  0  0  0  0  0  0  0  0  0  0
   -6.3328    1.3446   -1.6582 C   0  0  0  0  0  0  0  0  0  0  0  0
    5.4976   -1.6545    5.2909 C   0  0  0  0  0  0  0  0  0  0  0  0
    6.5245   -2.1801    4.5696 C   0  0  0  0  0  0  0  0  0  0  0  0
    6.5624   -2.4896    3.1500 C   0  0  0  0  0  0  0  0  0  0  0  0
    7.8025   -2.9818    2.7937 N   0  0  0  0  0  0  0  0  0  0  0  0
    8.7373   -3.0930    3.7727 C   0  0  0  0  0  0  0  0  0  0  0  0
    8.0705   -2.5574    5.3084 S   0  0  0  0  0  0  0  0  0  0  0  0
   10.2575   -3.6483    3.5760 S   0  0  0  0  0  0  0  0  0  0  0  0
    8.0876   -3.3232    1.4129 C   0  0  0  0  0  0  0  0  0  0  0  0
    8.7500   -2.1604    0.6854 C   0  0  0  0  0  0  0  0  0  0  0  0
    5.6540   -2.3549    2.3517 O   0  0  0  0  0  0  0  0  0  0  0  0
   -6.1990    0.9663   -4.0924 C   0  0  0  0  0  0  0  0  0  0  0  0
   -5.6221    0.6913   -5.2941 C   0  0  0  0  0  0  0  0  0  0  0  0
   -4.2566    0.2784   -5.5714 C   0  0  0  0  0  0  0  0  0  0  0  0
   -4.0482    0.1694   -6.9313 N   0  0  0  0  0  0  0  0  0  0  0  0
   -5.0981    0.4382   -7.7505 C   0  0  0  0  0  0  0  0  0  0  0  0
   -6.5116    0.8649   -6.7974 S   0  0  0  0  0  0  0  0  0  0  0  0
   -3.3829    0.0414   -4.7565 O   0  0  0  0  0  0  0  0  0  0  0  0
   -2.7385   -0.1846   -7.4449 C   0  0  0  0  0  0  0  0  0  0  0  0
   -1.9270    1.0602   -7.7792 C   0  0  0  0  0  0  0  0  0  0  0  0
   -5.0727    0.3692   -9.3793 S   0  0  0  0  0  0  0  0  0  0  0  0
    1.2417    0.0725    5.6487 H   0  0  0  0  0  0  0  0  0  0  0  0
    3.4971   -0.4973    6.7757 H   0  0  0  0  0  0  0  0  0  0  0  0
    2.4043    0.1049    1.3405 H   0  0  0  0  0  0  0  0  0  0  0  0
   -4.6950   -0.2038    1.6935 H   0  0  0  0  0  0  0  0  0  0  0  0
   -3.5794   -1.7596    6.0329 H   0  0  0  0  0  0  0  0  0  0  0  0
   -1.8755   -2.0769    6.4815 H   0  0  0  0  0  0  0  0  0  0  0  0
   -3.1752   -4.2007    6.3459 H   0  0  0  0  0  0  0  0  0  0  0  0
   -3.5932   -3.8425    4.6667 H   0  0  0  0  0  0  0  0  0  0  0  0
   -1.9061   -4.1525    5.1170 H   0  0  0  0  0  0  0  0  0  0  0  0
   -0.2442    3.0245   -2.8342 H   0  0  0  0  0  0  0  0  0  0  0  0
    1.3649    2.2595   -2.6729 H   0  0  0  0  0  0  0  0  0  0  0  0
    0.4750    0.1888   -3.7402 H   0  0  0  0  0  0  0  0  0  0  0  0
   -1.1166    0.9443   -3.9101 H   0  0  0  0  0  0  0  0  0  0  0  0
    0.2700    1.5807   -4.8072 H   0  0  0  0  0  0  0  0  0  0  0  0
   -5.9403    1.5596    0.4740 H   0  0  0  0  0  0  0  0  0  0  0  0
   -7.3495    1.6937   -1.6949 H   0  0  0  0  0  0  0  0  0  0  0  0
    5.6921   -1.4920    6.3452 H   0  0  0  0  0  0  0  0  0  0  0  0
    7.1289   -3.5667    0.9493 H   0  0  0  0  0  0  0  0  0  0  0  0
    8.7409   -4.1986    1.4100 H   0  0  0  0  0  0  0  0  0  0  0  0
    8.0994   -1.2890    0.6961 H   0  0  0  0  0  0  0  0  0  0  0  0
    8.9419   -2.4403   -0.3460 H   0  0  0  0  0  0  0  0  0  0  0  0
    9.6952   -1.9068    1.1595 H   0  0  0  0  0  0  0  0  0  0  0  0
   -7.2365    1.2802   -4.1243 H   0  0  0  0  0  0  0  0  0  0  0  0
   -2.8806   -0.8003   -8.3356 H   0  0  0  0  0  0  0  0  0  0  0  0
   -2.2436   -0.7635   -6.6616 H   0  0  0  0  0  0  0  0  0  0  0  0
   -0.9451    0.7674   -8.1386 H   0  0  0  0  0  0  0  0  0  0  0  0
   -1.8067    1.6801   -6.8937 H   0  0  0  0  0  0  0  0  0  0  0  0
   -2.4242    1.6381   -8.5545 H   0  0  0  0  0  0  0  0  0  0  0  0
  1  2  1  0  0  0  0
  2  3  1  0  0  0  0
  3  4  2  0  0  0  0
  4  5  1  0  0  0  0
  5  1  2  0  0  0  0
  3  6  1  0  0  0  0
  6  7  2  0  0  0  0
  7  8  1  0  0  0  0
  8  9  2  0  0  0  0
  9 10  1  0  0  0  0
 10 11  2  0  0  0  0
 11  6  1  0  0  0  0
  9 12  1  0  0  0  0
 12 13  2  0  0  0  0
 13 14  1  0  0  0  0
 14 15  2  0  0  0  0
 15 10  1  0  0  0  0
  8 16  1  0  0  0  0
 16 17  1  0  0  0  0
 17 18  1  0  0  0  0
 18 12  1  0  0  0  0
 15 19  1  0  0  0  0
 19 20  1  0  0  0  0
 20 21  1  0  0  0  0
 21 11  1  0  0  0  0
 20 22  1  0  0  0  0
 22 23  1  0  0  0  0
 19 24  2  0  0  0  0
 21 25  2  0  0  0  0
 16 26  2  0  0  0  0
 17 27  1  0  0  0  0
 27 28  1  0  0  0  0
 18 29  2  0  0  0  0
 30 31  1  0  0  0  0
 31 32  1  0  0  0  0
 32 33  2  0  0  0  0
 33 34  1  0  0  0  0
 34 30  2  0  0  0  0
 13 32  1  0  0  0  0
  1 35  1  0  0  0  0
 35 36  2  0  0  0  0
 36 37  1  0  0  0  0
 37 38  1  0  0  0  0
 38 39  1  0  0  0  0
 39 40  1  0  0  0  0
 40 36  1  0  0  0  0
 39 41  2  0  0  0  0
 38 42  1  0  0  0  0
 42 43  1  0  0  0  0
 37 44  2  0  0  0  0
 30 45  1  0  0  0  0
 45 46  2  0  0  0  0
 46 47  1  0  0  0  0
 47 48  1  0  0  0  0
 48 49  1  0  0  0  0
 49 50  1  0  0  0  0
 50 46  1  0  0  0  0
 47 51  2  0  0  0  0
 48 52  1  0  0  0  0
 52 53  1  0  0  0  0
 49 54  2  0  0  0  0
  4 55  1  0  0  0  0
  5 56  1  0  0  0  0
  7 57  1  0  0  0  0
 14 58  1  0  0  0  0
 22 59  1  0  0  0  0
 22 60  1  0  0  0  0
 23 61  1  0  0  0  0
 23 62  1  0  0  0  0
 23 63  1  0  0  0  0
 27 64  1  0  0  0  0
 27 65  1  0  0  0  0
 28 66  1  0  0  0  0
 28 67  1  0  0  0  0
 28 68  1  0  0  0  0
 33 69  1  0  0  0  0
 34 70  1  0  0  0  0
 35 71  1  0  0  0  0
 42 72  1  0  0  0  0
 42 73  1  0  0  0  0
 43 74  1  0  0  0  0
 43 75  1  0  0  0  0
 43 76  1  0  0  0  0
 45 77  1  0  0  0  0
 52 78  1  0  0  0  0
 52 79  1  0  0  0  0
 53 80  1  0  0  0  0
 53 81  1  0  0  0  0
 53 82  1  0  0  0  0
M  END
