NCBDT.sdf
  xtb     12202113253D
 energy: -246.317001558168 gnorm: 0.000856359351 xtb: 6.4.1 (unknown)
150164  0     0  0            999 V2000
    0.1939    0.4620   -1.1448 C   0  0  0  0  0  0  0  0  0  0  0  0
   -0.0795    1.7486   -0.5874 C   0  0  0  0  0  0  0  0  0  0  0  0
   -1.2770    1.9149    0.1297 C   0  0  0  0  0  0  0  0  0  0  0  0
   -2.0455    0.7833    0.3338 C   0  0  0  0  0  0  0  0  0  0  0  0
   -1.7428   -0.5155   -0.1768 C   0  0  0  0  0  0  0  0  0  0  0  0
   -0.6002   -0.6574   -0.9821 C   0  0  0  0  0  0  0  0  0  0  0  0
   -3.5015    0.8078    1.3140 S   0  0  0  0  0  0  0  0  0  0  0  0
   -3.6746   -0.8864    1.0689 C   0  0  0  0  0  0  0  0  0  0  0  0
   -2.6964   -1.4654    0.2758 C   0  0  0  0  0  0  0  0  0  0  0  0
   -4.6100   -1.8598    1.4800 C   0  0  0  0  0  0  0  0  0  0  0  0
   -4.2310   -3.0998    0.9521 C   0  0  0  0  0  0  0  0  0  0  0  0
   -2.9389   -2.9636    0.1647 C   0  0  0  0  0  0  0  0  0  0  0  0
   -1.8800   -3.7909    0.8769 C   0  0  0  0  0  0  0  0  0  0  0  0
   -3.2056   -3.3746   -1.2775 C   0  0  0  0  0  0  0  0  0  0  0  0
   -0.7624   -3.2133    1.4640 C   0  0  0  0  0  0  0  0  0  0  0  0
    0.1703   -3.9941    2.1237 C   0  0  0  0  0  0  0  0  0  0  0  0
    0.0128   -5.3684    2.2245 C   0  0  0  0  0  0  0  0  0  0  0  0
   -1.1178   -5.9408    1.6555 C   0  0  0  0  0  0  0  0  0  0  0  0
   -2.0521   -5.1670    0.9955 C   0  0  0  0  0  0  0  0  0  0  0  0
   -2.5194   -4.3912   -1.9254 C   0  0  0  0  0  0  0  0  0  0  0  0
   -2.8317   -4.7253   -3.2310 C   0  0  0  0  0  0  0  0  0  0  0  0
   -3.8295   -4.0572   -3.9259 C   0  0  0  0  0  0  0  0  0  0  0  0
   -4.5121   -3.0375   -3.2750 C   0  0  0  0  0  0  0  0  0  0  0  0
   -4.2049   -2.7004   -1.9713 C   0  0  0  0  0  0  0  0  0  0  0  0
    1.0053   -6.2073    2.9756 C   0  0  0  0  0  0  0  0  0  0  0  0
    0.5957   -6.3315    4.4445 C   0  0  0  0  0  0  0  0  0  0  0  0
   -4.1933   -4.4622   -5.3245 C   0  0  0  0  0  0  0  0  0  0  0  0
   -5.2266   -5.5904   -5.2990 C   0  0  0  0  0  0  0  0  0  0  0  0
   -6.0559   -1.9320    2.3785 S   0  0  0  0  0  0  0  0  0  0  0  0
   -6.1795   -3.6667    2.0480 C   0  0  0  0  0  0  0  0  0  0  0  0
   -5.1162   -4.1113    1.2628 C   0  0  0  0  0  0  0  0  0  0  0  0
   -7.2999   -4.3158    2.5845 C   0  0  0  0  0  0  0  0  0  0  0  0
   -7.6750   -5.6379    2.5955 C   0  0  0  0  0  0  0  0  0  0  0  0
   -6.9168   -6.8202    2.1356 C   0  0  0  0  0  0  0  0  0  0  0  0
   -7.6941   -7.9931    2.5857 C   0  0  0  0  0  0  0  0  0  0  0  0
   -8.8697   -7.5676    3.2244 C   0  0  0  0  0  0  0  0  0  0  0  0
   -8.9116   -6.1053    3.1963 C   0  0  0  0  0  0  0  0  0  0  0  0
   -5.8681   -6.8720    1.5235 O   0  0  0  0  0  0  0  0  0  0  0  0
   -9.9768   -5.3493    3.6121 C   0  0  0  0  0  0  0  0  0  0  0  0
  -11.1532   -5.8854    4.1786 C   0  0  0  0  0  0  0  0  0  0  0  0
  -10.0973   -3.9463    3.5127 C   0  0  0  0  0  0  0  0  0  0  0  0
  -12.1354   -6.2483    4.6490 N   0  0  0  0  0  0  0  0  0  0  0  0
  -10.2985   -2.8164    3.4566 N   0  0  0  0  0  0  0  0  0  0  0  0
   -7.3802   -9.3318    2.4457 C   0  0  0  0  0  0  0  0  0  0  0  0
   -8.2568  -10.2733    2.9600 C   0  0  0  0  0  0  0  0  0  0  0  0
   -9.4122   -9.8414    3.5944 C   0  0  0  0  0  0  0  0  0  0  0  0
   -9.7501   -8.5030    3.7425 C   0  0  0  0  0  0  0  0  0  0  0  0
    1.6982    0.4105   -2.0479 S   0  0  0  0  0  0  0  0  0  0  0  0
    1.9849    2.0545   -1.6285 C   0  0  0  0  0  0  0  0  0  0  0  0
    0.9840    2.6461   -0.8732 C   0  0  0  0  0  0  0  0  0  0  0  0
    3.0573    2.9521   -1.8284 C   0  0  0  0  0  0  0  0  0  0  0  0
    2.7604    4.1444   -1.1535 C   0  0  0  0  0  0  0  0  0  0  0  0
    1.3957    4.0622   -0.4920 C   0  0  0  0  0  0  0  0  0  0  0  0
    1.5585    4.1387    1.0217 C   0  0  0  0  0  0  0  0  0  0  0  0
    0.5513    5.1472   -1.1295 C   0  0  0  0  0  0  0  0  0  0  0  0
    2.4580    3.2613    1.6194 C   0  0  0  0  0  0  0  0  0  0  0  0
    2.6471    3.2613    2.9868 C   0  0  0  0  0  0  0  0  0  0  0  0
    1.9440    4.1381    3.8032 C   0  0  0  0  0  0  0  0  0  0  0  0
    1.0444    5.0084    3.2057 C   0  0  0  0  0  0  0  0  0  0  0  0
    0.8512    5.0125    1.8353 C   0  0  0  0  0  0  0  0  0  0  0  0
   -0.3932    4.8440   -2.1002 C   0  0  0  0  0  0  0  0  0  0  0  0
   -1.1164    5.8486   -2.7171 C   0  0  0  0  0  0  0  0  0  0  0  0
   -0.9076    7.1817   -2.3938 C   0  0  0  0  0  0  0  0  0  0  0  0
    0.0647    7.4840   -1.4489 C   0  0  0  0  0  0  0  0  0  0  0  0
    0.7935    6.4846   -0.8340 C   0  0  0  0  0  0  0  0  0  0  0  0
    2.1141    4.1074    5.2941 C   0  0  0  0  0  0  0  0  0  0  0  0
    1.1204    3.1288    5.9237 C   0  0  0  0  0  0  0  0  0  0  0  0
   -1.7386    8.2647   -3.0170 C   0  0  0  0  0  0  0  0  0  0  0  0
   -3.0005    8.5081   -2.1861 C   0  0  0  0  0  0  0  0  0  0  0  0
    4.5733    2.9639   -2.6150 S   0  0  0  0  0  0  0  0  0  0  0  0
    4.8478    4.6041   -2.0380 C   0  0  0  0  0  0  0  0  0  0  0  0
    3.7673    5.0709   -1.2693 C   0  0  0  0  0  0  0  0  0  0  0  0
    5.9727    5.3986   -2.2777 C   0  0  0  0  0  0  0  0  0  0  0  0
    7.1121    5.1429   -3.0040 C   0  0  0  0  0  0  0  0  0  0  0  0
    7.4036    3.9016   -3.7264 C   0  0  0  0  0  0  0  0  0  0  0  0
    8.7174    4.0991   -4.3668 C   0  0  0  0  0  0  0  0  0  0  0  0
    9.1999    5.3807   -4.0488 C   0  0  0  0  0  0  0  0  0  0  0  0
    8.2202    6.0548   -3.1926 C   0  0  0  0  0  0  0  0  0  0  0  0
    6.7134    2.8996   -3.7946 O   0  0  0  0  0  0  0  0  0  0  0  0
    8.3646    7.3182   -2.6786 C   0  0  0  0  0  0  0  0  0  0  0  0
    7.4364    7.9848   -1.8522 C   0  0  0  0  0  0  0  0  0  0  0  0
    9.4867    8.1424   -2.9081 C   0  0  0  0  0  0  0  0  0  0  0  0
    6.7379    8.5996   -1.1778 N   0  0  0  0  0  0  0  0  0  0  0  0
   10.3661    8.8665   -3.0499 N   0  0  0  0  0  0  0  0  0  0  0  0
    9.4289    3.2246   -5.1653 C   0  0  0  0  0  0  0  0  0  0  0  0
   10.6553    3.6348   -5.6640 C   0  0  0  0  0  0  0  0  0  0  0  0
   11.1215    4.9013   -5.3457 C   0  0  0  0  0  0  0  0  0  0  0  0
   10.4240    5.7963   -4.5447 C   0  0  0  0  0  0  0  0  0  0  0  0
   -1.7529    3.2348    0.6553 C   0  0  0  0  0  0  0  0  0  0  0  0
   -2.9536    3.7654   -0.1326 C   0  0  0  0  0  0  0  0  0  0  0  0
   -0.2285   -1.9268   -1.6834 C   0  0  0  0  0  0  0  0  0  0  0  0
   -0.6916   -1.8822   -3.1412 C   0  0  0  0  0  0  0  0  0  0  0  0
   12.3108    5.2850   -5.8374 F   0  0  0  0  0  0  0  0  0  0  0  0
  -10.2484  -10.7663    4.0935 F   0  0  0  0  0  0  0  0  0  0  0  0
   -0.6043   -2.1471    1.4114 H   0  0  0  0  0  0  0  0  0  0  0  0
    1.0354   -3.5212    2.5660 H   0  0  0  0  0  0  0  0  0  0  0  0
   -1.2718   -7.0077    1.7292 H   0  0  0  0  0  0  0  0  0  0  0  0
   -2.9202   -5.6425    0.5672 H   0  0  0  0  0  0  0  0  0  0  0  0
   -1.7312   -4.9305   -1.4221 H   0  0  0  0  0  0  0  0  0  0  0  0
   -2.2846   -5.5202   -3.7175 H   0  0  0  0  0  0  0  0  0  0  0  0
   -5.2925   -2.4998   -3.7944 H   0  0  0  0  0  0  0  0  0  0  0  0
   -4.7488   -1.9022   -1.4857 H   0  0  0  0  0  0  0  0  0  0  0  0
    1.9958   -5.7520    2.9152 H   0  0  0  0  0  0  0  0  0  0  0  0
    1.0584   -7.2035    2.5320 H   0  0  0  0  0  0  0  0  0  0  0  0
    1.3121   -6.9422    4.9890 H   0  0  0  0  0  0  0  0  0  0  0  0
   -0.3865   -6.7917    4.5257 H   0  0  0  0  0  0  0  0  0  0  0  0
    0.5519   -5.3490    4.9094 H   0  0  0  0  0  0  0  0  0  0  0  0
   -4.6059   -3.6071   -5.8635 H   0  0  0  0  0  0  0  0  0  0  0  0
   -3.3015   -4.8030   -5.8546 H   0  0  0  0  0  0  0  0  0  0  0  0
   -6.1282   -5.2659   -4.7843 H   0  0  0  0  0  0  0  0  0  0  0  0
   -4.8281   -6.4567   -4.7758 H   0  0  0  0  0  0  0  0  0  0  0  0
   -5.4915   -5.8870   -6.3111 H   0  0  0  0  0  0  0  0  0  0  0  0
   -5.0429   -5.1363    0.9530 H   0  0  0  0  0  0  0  0  0  0  0  0
   -7.9719   -3.6372    3.0972 H   0  0  0  0  0  0  0  0  0  0  0  0
   -6.4700   -9.6247    1.9462 H   0  0  0  0  0  0  0  0  0  0  0  0
   -8.0613  -11.3309    2.8803 H   0  0  0  0  0  0  0  0  0  0  0  0
  -10.6636   -8.2400    4.2489 H   0  0  0  0  0  0  0  0  0  0  0  0
    3.0189    2.5702    1.0065 H   0  0  0  0  0  0  0  0  0  0  0  0
    3.3538    2.5720    3.4265 H   0  0  0  0  0  0  0  0  0  0  0  0
    0.4837    5.6997    3.8184 H   0  0  0  0  0  0  0  0  0  0  0  0
    0.1421    5.7094    1.4140 H   0  0  0  0  0  0  0  0  0  0  0  0
   -0.5632    3.8153   -2.3823 H   0  0  0  0  0  0  0  0  0  0  0  0
   -1.8511    5.5908   -3.4668 H   0  0  0  0  0  0  0  0  0  0  0  0
    0.2617    8.5163   -1.1978 H   0  0  0  0  0  0  0  0  0  0  0  0
    1.5584    6.7483   -0.1191 H   0  0  0  0  0  0  0  0  0  0  0  0
    1.9477    5.1043    5.7068 H   0  0  0  0  0  0  0  0  0  0  0  0
    3.1309    3.7987    5.5442 H   0  0  0  0  0  0  0  0  0  0  0  0
    0.0994    3.4277    5.6971 H   0  0  0  0  0  0  0  0  0  0  0  0
    1.2773    2.1259    5.5326 H   0  0  0  0  0  0  0  0  0  0  0  0
    1.2438    3.1041    7.0037 H   0  0  0  0  0  0  0  0  0  0  0  0
   -2.0250    7.9764   -4.0303 H   0  0  0  0  0  0  0  0  0  0  0  0
   -1.1612    9.1893   -3.0742 H   0  0  0  0  0  0  0  0  0  0  0  0
   -3.6071    9.2904   -2.6358 H   0  0  0  0  0  0  0  0  0  0  0  0
   -3.5948    7.5989   -2.1252 H   0  0  0  0  0  0  0  0  0  0  0  0
   -2.7354    8.8119   -1.1758 H   0  0  0  0  0  0  0  0  0  0  0  0
    3.7716    6.0537   -0.8338 H   0  0  0  0  0  0  0  0  0  0  0  0
    5.9076    6.3722   -1.8072 H   0  0  0  0  0  0  0  0  0  0  0  0
    9.0287    2.2481   -5.3891 H   0  0  0  0  0  0  0  0  0  0  0  0
   11.2527    2.9936   -6.2923 H   0  0  0  0  0  0  0  0  0  0  0  0
   10.8488    6.7649   -4.3402 H   0  0  0  0  0  0  0  0  0  0  0  0
   -0.9514    3.9625    0.6003 H   0  0  0  0  0  0  0  0  0  0  0  0
   -2.0403    3.1164    1.7041 H   0  0  0  0  0  0  0  0  0  0  0  0
   -3.8021    3.0904   -0.0616 H   0  0  0  0  0  0  0  0  0  0  0  0
   -2.6956    3.8905   -1.1805 H   0  0  0  0  0  0  0  0  0  0  0  0
   -3.2507    4.7327    0.2644 H   0  0  0  0  0  0  0  0  0  0  0  0
    0.8584   -2.0428   -1.6586 H   0  0  0  0  0  0  0  0  0  0  0  0
   -0.6726   -2.7828   -1.1843 H   0  0  0  0  0  0  0  0  0  0  0  0
   -1.7702   -1.7569   -3.1942 H   0  0  0  0  0  0  0  0  0  0  0  0
   -0.4287   -2.8086   -3.6441 H   0  0  0  0  0  0  0  0  0  0  0  0
   -0.2185   -1.0564   -3.6670 H   0  0  0  0  0  0  0  0  0  0  0  0
  1  2  1  0  0  0  0
  2  3  2  0  0  0  0
  3  4  1  0  0  0  0
  4  5  2  0  0  0  0
  5  6  1  0  0  0  0
  6  1  2  0  0  0  0
  4  7  1  0  0  0  0
  7  8  1  0  0  0  0
  8  9  2  0  0  0  0
  9  5  1  0  0  0  0
  8 10  1  0  0  0  0
 10 11  2  0  0  0  0
 11 12  1  0  0  0  0
 12  9  1  0  0  0  0
 12 13  1  0  0  0  0
 12 14  1  0  0  0  0
 13 15  2  0  0  0  0
 15 16  1  0  0  0  0
 16 17  2  0  0  0  0
 17 18  1  0  0  0  0
 18 19  2  0  0  0  0
 19 13  1  0  0  0  0
 14 20  2  0  0  0  0
 20 21  1  0  0  0  0
 21 22  2  0  0  0  0
 22 23  1  0  0  0  0
 23 24  2  0  0  0  0
 24 14  1  0  0  0  0
 17 25  1  0  0  0  0
 25 26  1  0  0  0  0
 22 27  1  0  0  0  0
 27 28  1  0  0  0  0
 10 29  1  0  0  0  0
 29 30  1  0  0  0  0
 30 31  2  0  0  0  0
 31 11  1  0  0  0  0
 30 32  1  0  0  0  0
 32 33  2  0  0  0  0
 33 34  1  0  0  0  0
 34 35  1  0  0  0  0
 35 36  2  0  0  0  0
 36 37  1  0  0  0  0
 37 33  1  0  0  0  0
 34 38  2  0  0  0  0
 37 39  2  0  0  0  0
 39 40  1  0  0  0  0
 39 41  1  0  0  0  0
 40 42  3  0  0  0  0
 41 43  3  0  0  0  0
 35 44  1  0  0  0  0
 44 45  2  0  0  0  0
 45 46  1  0  0  0  0
 46 47  2  0  0  0  0
 47 36  1  0  0  0  0
 48 49  1  0  0  0  0
 49 50  2  0  0  0  0
 49 51  1  0  0  0  0
 51 52  2  0  0  0  0
 52 53  1  0  0  0  0
 53 50  1  0  0  0  0
 53 54  1  0  0  0  0
 53 55  1  0  0  0  0
 54 56  2  0  0  0  0
 56 57  1  0  0  0  0
 57 58  2  0  0  0  0
 58 59  1  0  0  0  0
 59 60  2  0  0  0  0
 60 54  1  0  0  0  0
 55 61  2  0  0  0  0
 61 62  1  0  0  0  0
 62 63  2  0  0  0  0
 63 64  1  0  0  0  0
 64 65  2  0  0  0  0
 65 55  1  0  0  0  0
 58 66  1  0  0  0  0
 66 67  1  0  0  0  0
 63 68  1  0  0  0  0
 68 69  1  0  0  0  0
 51 70  1  0  0  0  0
 70 71  1  0  0  0  0
 71 72  2  0  0  0  0
 72 52  1  0  0  0  0
 71 73  1  0  0  0  0
 73 74  2  0  0  0  0
 74 75  1  0  0  0  0
 75 76  1  0  0  0  0
 76 77  2  0  0  0  0
 77 78  1  0  0  0  0
 78 74  1  0  0  0  0
 75 79  2  0  0  0  0
 78 80  2  0  0  0  0
 80 81  1  0  0  0  0
 80 82  1  0  0  0  0
 81 83  3  0  0  0  0
 82 84  3  0  0  0  0
 76 85  1  0  0  0  0
 85 86  2  0  0  0  0
 87 88  2  0  0  0  0
 88 77  1  0  0  0  0
 48  1  1  0  0  0  0
 50  2  1  0  0  0  0
 87 86  1  0  0  0  0
  3 89  1  0  0  0  0
 89 90  1  0  0  0  0
  6 91  1  0  0  0  0
 91 92  1  0  0  0  0
 87 93  1  0  0  0  0
 46 94  1  0  0  0  0
 15 95  1  0  0  0  0
 16 96  1  0  0  0  0
 18 97  1  0  0  0  0
 19 98  1  0  0  0  0
 20 99  1  0  0  0  0
 21100  1  0  0  0  0
 23101  1  0  0  0  0
 24102  1  0  0  0  0
 25103  1  0  0  0  0
 25104  1  0  0  0  0
 26105  1  0  0  0  0
 26106  1  0  0  0  0
 26107  1  0  0  0  0
 27108  1  0  0  0  0
 27109  1  0  0  0  0
 28110  1  0  0  0  0
 28111  1  0  0  0  0
 28112  1  0  0  0  0
 31113  1  0  0  0  0
 32114  1  0  0  0  0
 44115  1  0  0  0  0
 45116  1  0  0  0  0
 47117  1  0  0  0  0
 56118  1  0  0  0  0
 57119  1  0  0  0  0
 59120  1  0  0  0  0
 60121  1  0  0  0  0
 61122  1  0  0  0  0
 62123  1  0  0  0  0
 64124  1  0  0  0  0
 65125  1  0  0  0  0
 66126  1  0  0  0  0
 66127  1  0  0  0  0
 67128  1  0  0  0  0
 67129  1  0  0  0  0
 67130  1  0  0  0  0
 68131  1  0  0  0  0
 68132  1  0  0  0  0
 69133  1  0  0  0  0
 69134  1  0  0  0  0
 69135  1  0  0  0  0
 72136  1  0  0  0  0
 73137  1  0  0  0  0
 85138  1  0  0  0  0
 86139  1  0  0  0  0
 88140  1  0  0  0  0
 89141  1  0  0  0  0
 89142  1  0  0  0  0
 90143  1  0  0  0  0
 90144  1  0  0  0  0
 90145  1  0  0  0  0
 91146  1  0  0  0  0
 91147  1  0  0  0  0
 92148  1  0  0  0  0
 92149  1  0  0  0  0
 92150  1  0  0  0  0
M  END
