SCF done       -301.700804796256          0.000622204039
 OpenBabel12282109493D

186206  0  0  0  0  0  0  0  0999 V2000
    2.6182    1.0423   -0.5282 C   0  0  0  0  0  0  0  0  0  0  0  0
    2.5801   -0.3560   -0.3142 C   0  0  0  0  0  0  0  0  0  0  0  0
    1.3852   -1.0117   -0.1348 C   0  0  0  0  0  0  0  0  0  0  0  0
    0.2233   -0.2459   -0.1908 C   0  0  0  0  0  0  0  0  0  0  0  0
    0.2602    1.1515   -0.4121 C   0  0  0  0  0  0  0  0  0  0  0  0
    1.4560    1.8079   -0.5850 C   0  0  0  0  0  0  0  0  0  0  0  0
    3.9929    1.4101   -0.6548 C   0  0  0  0  0  0  0  0  0  0  0  0
    4.8124    0.2980   -0.5144 C   0  0  0  0  0  0  0  0  0  0  0  0
    3.9832   -0.9420   -0.2938 C   0  0  0  0  0  0  0  0  0  0  0  0
    4.8794    2.8524   -0.9263 S   0  0  0  0  0  0  0  0  0  0  0  0
    6.3786    1.9487   -0.8700 C   0  0  0  0  0  0  0  0  0  0  0  0
    6.1612    0.5965   -0.6446 C   0  0  0  0  0  0  0  0  0  0  0  0
   -1.1507   -0.6162   -0.0685 C   0  0  0  0  0  0  0  0  0  0  0  0
   -1.9726    0.4912   -0.2291 C   0  0  0  0  0  0  0  0  0  0  0  0
   -1.1450    1.7324   -0.4503 C   0  0  0  0  0  0  0  0  0  0  0  0
   -2.0329   -2.0577    0.2189 S   0  0  0  0  0  0  0  0  0  0  0  0
   -3.5360   -1.1640    0.1208 C   0  0  0  0  0  0  0  0  0  0  0  0
   -3.3219    0.1866   -0.1183 C   0  0  0  0  0  0  0  0  0  0  0  0
    7.6267    2.6177   -1.0437 C   0  0  0  0  0  0  0  0  0  0  0  0
    4.2655   -1.8988   -1.4364 C   0  0  0  0  0  0  0  0  0  0  0  0
    4.1967   -1.5899    1.0610 C   0  0  0  0  0  0  0  0  0  0  0  0
   -1.4442    2.6975    0.6811 C   0  0  0  0  0  0  0  0  0  0  0  0
   -1.3520    2.3731   -1.8097 C   0  0  0  0  0  0  0  0  0  0  0  0
   -4.7827   -1.8403    0.2741 C   0  0  0  0  0  0  0  0  0  0  0  0
    7.6814    4.0306   -1.1829 C   0  0  0  0  0  0  0  0  0  0  0  0
    8.9320    4.7149   -1.3464 C   0  0  0  0  0  0  0  0  0  0  0  0
   10.1662    4.0034   -1.3858 C   0  0  0  0  0  0  0  0  0  0  0  0
   10.0665    2.6205   -1.2541 C   0  0  0  0  0  0  0  0  0  0  0  0
    8.8544    1.9611   -1.0885 C   0  0  0  0  0  0  0  0  0  0  0  0
   -4.8248   -3.2340    0.5477 C   0  0  0  0  0  0  0  0  0  0  0  0
   -6.0725   -3.9256    0.7021 C   0  0  0  0  0  0  0  0  0  0  0  0
   -7.3177   -3.2438    0.5774 C   0  0  0  0  0  0  0  0  0  0  0  0
   -7.2310   -1.8799    0.3091 C   0  0  0  0  0  0  0  0  0  0  0  0
   -6.0209   -1.2113    0.1671 C   0  0  0  0  0  0  0  0  0  0  0  0
    6.6490    4.8687   -1.1748 N   0  0  0  0  0  0  0  0  0  0  0  0
    7.1934    6.3711   -1.3552 S   0  0  0  0  0  0  0  0  0  0  0  0
    8.7640    6.0317   -1.4516 N   0  0  0  0  0  0  0  0  0  0  0  0
   -3.7811   -4.0450    0.6935 N   0  0  0  0  0  0  0  0  0  0  0  0
   -4.3125   -5.5323    0.9966 S   0  0  0  0  0  0  0  0  0  0  0  0
   -5.8911   -5.2201    0.9566 N   0  0  0  0  0  0  0  0  0  0  0  0
   11.3527    4.7795   -1.5468 C   0  0  0  0  0  0  0  0  0  0  0  0
   12.6756    4.4741   -1.6512 C   0  0  0  0  0  0  0  0  0  0  0  0
   -8.5002   -4.0246    0.7460 C   0  0  0  0  0  0  0  0  0  0  0  0
   -9.8316   -3.7548    0.6537 C   0  0  0  0  0  0  0  0  0  0  0  0
   13.6826    5.5219   -1.8009 C   0  0  0  0  0  0  0  0  0  0  0  0
   14.9371    4.8851   -1.8927 C   0  0  0  0  0  0  0  0  0  0  0  0
   14.8460    3.4894   -1.8142 C   0  0  0  0  0  0  0  0  0  0  0  0
   13.4001    3.1636   -1.6547 C   0  0  0  0  0  0  0  0  0  0  0  0
  -10.8315   -4.7944    0.8865 C   0  0  0  0  0  0  0  0  0  0  0  0
  -12.0978   -4.2082    0.6839 C   0  0  0  0  0  0  0  0  0  0  0  0
  -12.0211   -2.8530    0.3376 C   0  0  0  0  0  0  0  0  0  0  0  0
  -10.5731   -2.5003    0.3087 C   0  0  0  0  0  0  0  0  0  0  0  0
   13.6644    6.9012   -1.8608 C   0  0  0  0  0  0  0  0  0  0  0  0
   14.8719    7.6017   -2.0062 C   0  0  0  0  0  0  0  0  0  0  0  0
   16.1006    6.9651   -2.0962 C   0  0  0  0  0  0  0  0  0  0  0  0
   16.1414    5.5608   -2.0398 C   0  0  0  0  0  0  0  0  0  0  0  0
   17.3144    4.7901   -2.1153 C   0  0  0  0  0  0  0  0  0  0  0  0
   17.2290    3.4090   -2.0398 C   0  0  0  0  0  0  0  0  0  0  0  0
   16.0011    2.7427   -1.8879 C   0  0  0  0  0  0  0  0  0  0  0  0
   17.3700    7.6877   -2.2451 C   0  0  0  0  0  0  0  0  0  0  0  0
   18.5126    6.8919   -2.3458 N   0  0  0  0  0  0  0  0  0  0  0  0
   18.5925    5.5065   -2.2779 C   0  0  0  0  0  0  0  0  0  0  0  0
   19.7814    7.5870   -2.5342 C   0  0  0  0  0  0  0  0  0  0  0  0
   20.2730    7.5249   -3.9861 C   0  0  0  0  0  0  0  0  0  0  0  0
   19.2410    8.1188   -4.9406 C   0  0  0  0  0  0  0  0  0  0  0  0
   21.5972    8.2758   -4.0912 C   0  0  0  0  0  0  0  0  0  0  0  0
  -13.1883   -2.1575    0.1114 C   0  0  0  0  0  0  0  0  0  0  0  0
  -14.4136   -2.8336    0.2374 C   0  0  0  0  0  0  0  0  0  0  0  0
  -14.4850   -4.1741    0.5826 C   0  0  0  0  0  0  0  0  0  0  0  0
  -13.2993   -4.8922    0.8146 C   0  0  0  0  0  0  0  0  0  0  0  0
  -13.2427   -6.2505    1.1738 C   0  0  0  0  0  0  0  0  0  0  0  0
  -12.0027   -6.8365    1.3781 C   0  0  0  0  0  0  0  0  0  0  0  0
  -10.7984   -6.1290    1.2393 C   0  0  0  0  0  0  0  0  0  0  0  0
  -14.5107   -6.9769    1.3116 C   0  0  0  0  0  0  0  0  0  0  0  0
  -15.6677   -6.2417    1.0549 N   0  0  0  0  0  0  0  0  0  0  0  0
  -15.7638   -4.8951    0.7209 C   0  0  0  0  0  0  0  0  0  0  0  0
  -16.9196   -6.9828    1.1659 C   0  0  0  0  0  0  0  0  0  0  0  0
  -17.1807   -7.8794   -0.0513 C   0  0  0  0  0  0  0  0  0  0  0  0
  -18.5087   -8.6045    0.1461 C   0  0  0  0  0  0  0  0  0  0  0  0
  -17.2000   -7.0628   -1.3405 C   0  0  0  0  0  0  0  0  0  0  0  0
    4.6991   -0.8630    2.1313 C   0  0  0  0  0  0  0  0  0  0  0  0
    4.8333   -1.4490    3.3764 C   0  0  0  0  0  0  0  0  0  0  0  0
    4.4605   -2.7694    3.5885 C   0  0  0  0  0  0  0  0  0  0  0  0
    3.9522   -3.4906    2.5162 C   0  0  0  0  0  0  0  0  0  0  0  0
    3.8170   -2.9099    1.2696 C   0  0  0  0  0  0  0  0  0  0  0  0
    5.4092   -2.6878   -1.3957 C   0  0  0  0  0  0  0  0  0  0  0  0
    5.7181   -3.5321   -2.4442 C   0  0  0  0  0  0  0  0  0  0  0  0
    4.8999   -3.6056   -3.5647 C   0  0  0  0  0  0  0  0  0  0  0  0
    3.7660   -2.8066   -3.6054 C   0  0  0  0  0  0  0  0  0  0  0  0
    3.4529   -1.9576   -2.5590 C   0  0  0  0  0  0  0  0  0  0  0  0
   -0.6484    2.7658    1.8150 C   0  0  0  0  0  0  0  0  0  0  0  0
   -0.9775    3.6230    2.8501 C   0  0  0  0  0  0  0  0  0  0  0  0
   -2.1113    4.4204    2.7862 C   0  0  0  0  0  0  0  0  0  0  0  0
   -2.9124    4.3379    1.6539 C   0  0  0  0  0  0  0  0  0  0  0  0
   -2.5872    3.4859    0.6168 C   0  0  0  0  0  0  0  0  0  0  0  0
   -1.8780    1.6524   -2.8723 C   0  0  0  0  0  0  0  0  0  0  0  0
   -2.0181    2.2385   -4.1171 C   0  0  0  0  0  0  0  0  0  0  0  0
   -1.6257    3.5516   -4.3367 C   0  0  0  0  0  0  0  0  0  0  0  0
   -1.0898    4.2657   -3.2725 C   0  0  0  0  0  0  0  0  0  0  0  0
   -0.9514    3.6860   -2.0262 C   0  0  0  0  0  0  0  0  0  0  0  0
   17.4459    8.8987   -2.2742 O   0  0  0  0  0  0  0  0  0  0  0  0
   19.6646    4.9418   -2.3472 O   0  0  0  0  0  0  0  0  0  0  0  0
   12.9430    2.0444   -1.5533 O   0  0  0  0  0  0  0  0  0  0  0  0
  -10.1267   -1.4021    0.0512 O   0  0  0  0  0  0  0  0  0  0  0  0
  -14.5818   -8.1456    1.6314 O   0  0  0  0  0  0  0  0  0  0  0  0
  -16.8410   -4.3592    0.5620 O   0  0  0  0  0  0  0  0  0  0  0  0
    5.2086   -4.5622   -4.6800 C   0  0  0  0  0  0  0  0  0  0  0  0
    4.6469   -3.4134    4.9321 C   0  0  0  0  0  0  0  0  0  0  0  0
    4.5716   -5.9258   -4.4041 C   0  0  0  0  0  0  0  0  0  0  0  0
    6.0572   -3.9933    5.0574 C   0  0  0  0  0  0  0  0  0  0  0  0
   -2.4411    5.3847    3.8889 C   0  0  0  0  0  0  0  0  0  0  0  0
   -1.8419    6.7608    3.5920 C   0  0  0  0  0  0  0  0  0  0  0  0
   -1.8223    4.2015   -5.6759 C   0  0  0  0  0  0  0  0  0  0  0  0
   -3.1844    4.8958   -5.7373 C   0  0  0  0  0  0  0  0  0  0  0  0
    1.3360   -2.0759    0.0360 H   0  0  0  0  0  0  0  0  0  0  0  0
    1.5060    2.8720   -0.7557 H   0  0  0  0  0  0  0  0  0  0  0  0
    6.9530   -0.1257   -0.5715 H   0  0  0  0  0  0  0  0  0  0  0  0
   -4.1159    0.9048   -0.2067 H   0  0  0  0  0  0  0  0  0  0  0  0
   10.9695    2.0328   -1.2821 H   0  0  0  0  0  0  0  0  0  0  0  0
    8.8730    0.8868   -0.9960 H   0  0  0  0  0  0  0  0  0  0  0  0
   -8.1428   -1.3153    0.2043 H   0  0  0  0  0  0  0  0  0  0  0  0
   -6.0505   -0.1533   -0.0397 H   0  0  0  0  0  0  0  0  0  0  0  0
   11.1286    5.8407   -1.5948 H   0  0  0  0  0  0  0  0  0  0  0  0
   -8.2632   -5.0549    0.9932 H   0  0  0  0  0  0  0  0  0  0  0  0
   12.7419    7.4581   -1.7967 H   0  0  0  0  0  0  0  0  0  0  0  0
   14.8583    8.6807   -2.0512 H   0  0  0  0  0  0  0  0  0  0  0  0
   18.1448    2.8394   -2.1003 H   0  0  0  0  0  0  0  0  0  0  0  0
   15.9734    1.6653   -1.8309 H   0  0  0  0  0  0  0  0  0  0  0  0
   19.6270    8.6253   -2.2368 H   0  0  0  0  0  0  0  0  0  0  0  0
   20.5195    7.1177   -1.8796 H   0  0  0  0  0  0  0  0  0  0  0  0
   20.4402    6.4748   -4.2462 H   0  0  0  0  0  0  0  0  0  0  0  0
   19.0032    9.1405   -4.6531 H   0  0  0  0  0  0  0  0  0  0  0  0
   19.6275    8.1239   -5.9572 H   0  0  0  0  0  0  0  0  0  0  0  0
   18.3195    7.5394   -4.9325 H   0  0  0  0  0  0  0  0  0  0  0  0
   22.3360    7.8474   -3.4181 H   0  0  0  0  0  0  0  0  0  0  0  0
   21.9836    8.2190   -5.1058 H   0  0  0  0  0  0  0  0  0  0  0  0
   21.4592    9.3239   -3.8336 H   0  0  0  0  0  0  0  0  0  0  0  0
  -13.1717   -1.1124   -0.1576 H   0  0  0  0  0  0  0  0  0  0  0  0
  -15.3390   -2.3042    0.0640 H   0  0  0  0  0  0  0  0  0  0  0  0
  -11.9770   -7.8804    1.6549 H   0  0  0  0  0  0  0  0  0  0  0  0
   -9.8663   -6.6452    1.4130 H   0  0  0  0  0  0  0  0  0  0  0  0
  -16.8629   -7.5994    2.0660 H   0  0  0  0  0  0  0  0  0  0  0  0
  -17.7208   -6.2491    1.2675 H   0  0  0  0  0  0  0  0  0  0  0  0
  -16.3777   -8.6211   -0.1083 H   0  0  0  0  0  0  0  0  0  0  0  0
  -19.3256   -7.8884    0.2051 H   0  0  0  0  0  0  0  0  0  0  0  0
  -18.6995   -9.2759   -0.6873 H   0  0  0  0  0  0  0  0  0  0  0  0
  -18.4939   -9.1901    1.0620 H   0  0  0  0  0  0  0  0  0  0  0  0
  -16.2279   -6.6127   -1.5343 H   0  0  0  0  0  0  0  0  0  0  0  0
  -17.4513   -7.6998   -2.1854 H   0  0  0  0  0  0  0  0  0  0  0  0
  -17.9375   -6.2661   -1.2733 H   0  0  0  0  0  0  0  0  0  0  0  0
    4.9887    0.1687    1.9933 H   0  0  0  0  0  0  0  0  0  0  0  0
    5.2291   -0.8684    4.1977 H   0  0  0  0  0  0  0  0  0  0  0  0
    3.6538   -4.5195    2.6593 H   0  0  0  0  0  0  0  0  0  0  0  0
    3.4227   -3.4905    0.4481 H   0  0  0  0  0  0  0  0  0  0  0  0
    6.0549   -2.6468   -0.5302 H   0  0  0  0  0  0  0  0  0  0  0  0
    6.6097   -4.1411   -2.3944 H   0  0  0  0  0  0  0  0  0  0  0  0
    3.1185   -2.8438   -4.4700 H   0  0  0  0  0  0  0  0  0  0  0  0
    2.5691   -1.3395   -2.6195 H   0  0  0  0  0  0  0  0  0  0  0  0
    0.2348    2.1488    1.8932 H   0  0  0  0  0  0  0  0  0  0  0  0
   -0.3429    3.6675    3.7239 H   0  0  0  0  0  0  0  0  0  0  0  0
   -3.8035    4.9458    1.5860 H   0  0  0  0  0  0  0  0  0  0  0  0
   -3.2198    3.4379   -0.2580 H   0  0  0  0  0  0  0  0  0  0  0  0
   -2.1841    0.6263   -2.7289 H   0  0  0  0  0  0  0  0  0  0  0  0
   -2.4359    1.6635   -4.9314 H   0  0  0  0  0  0  0  0  0  0  0  0
   -0.7744    5.2886   -3.4224 H   0  0  0  0  0  0  0  0  0  0  0  0
   -0.5401    4.2623   -1.2100 H   0  0  0  0  0  0  0  0  0  0  0  0
    4.8227   -4.1689   -5.6226 H   0  0  0  0  0  0  0  0  0  0  0  0
    6.2894   -4.6830   -4.7767 H   0  0  0  0  0  0  0  0  0  0  0  0
    4.4909   -2.6748    5.7211 H   0  0  0  0  0  0  0  0  0  0  0  0
    3.9158   -4.2135    5.0635 H   0  0  0  0  0  0  0  0  0  0  0  0
    3.4925   -5.8262   -4.3095 H   0  0  0  0  0  0  0  0  0  0  0  0
    4.7873   -6.6182   -5.2144 H   0  0  0  0  0  0  0  0  0  0  0  0
    4.9588   -6.3436   -3.4774 H   0  0  0  0  0  0  0  0  0  0  0  0
    6.8009   -3.2070    4.9477 H   0  0  0  0  0  0  0  0  0  0  0  0
    6.1903   -4.4644    6.0286 H   0  0  0  0  0  0  0  0  0  0  0  0
    6.2300   -4.7377    4.2831 H   0  0  0  0  0  0  0  0  0  0  0  0
   -3.5246    5.4782    3.9870 H   0  0  0  0  0  0  0  0  0  0  0  0
   -2.0428    5.0152    4.8358 H   0  0  0  0  0  0  0  0  0  0  0  0
   -2.2366    7.1515    2.6567 H   0  0  0  0  0  0  0  0  0  0  0  0
   -2.0809    7.4606    4.3893 H   0  0  0  0  0  0  0  0  0  0  0  0
   -0.7600    6.6906    3.5036 H   0  0  0  0  0  0  0  0  0  0  0  0
   -1.0351    4.9381   -5.8488 H   0  0  0  0  0  0  0  0  0  0  0  0
   -1.7660    3.4490   -6.4650 H   0  0  0  0  0  0  0  0  0  0  0  0
   -3.2555    5.6578   -4.9644 H   0  0  0  0  0  0  0  0  0  0  0  0
   -3.3278    5.3688   -6.7060 H   0  0  0  0  0  0  0  0  0  0  0  0
   -3.9836    4.1747   -5.5809 H   0  0  0  0  0  0  0  0  0  0  0  0
  1  2  1  0  0  0  0
  2  9  1  0  0  0  0
  2  3  2  0  0  0  0
  3115  1  0  0  0  0
  4  3  1  0  0  0  0
  4 13  1  0  0  0  0
  5  4  2  0  0  0  0
  6  1  2  0  0  0  0
  6  5  1  0  0  0  0
  7  1  1  0  0  0  0
  7  8  2  0  0  0  0
  8  9  1  0  0  0  0
  9 21  1  0  0  0  0
 10 11  1  0  0  0  0
 10  7  1  0  0  0  0
 11 12  2  0  0  0  0
 12117  1  0  0  0  0
 12  8  1  0  0  0  0
 13 16  1  0  0  0  0
 14 18  1  0  0  0  0
 14 13  2  0  0  0  0
 15  5  1  0  0  0  0
 15 14  1  0  0  0  0
 15 22  1  0  0  0  0
 17 16  1  0  0  0  0
 17 24  1  0  0  0  0
 18 17  2  0  0  0  0
 19 11  1  0  0  0  0
 20 86  1  0  0  0  0
 20  9  1  0  0  0  0
 21 85  2  0  0  0  0
 21 81  1  0  0  0  0
 22 91  1  0  0  0  0
 23 15  1  0  0  0  0
 24 30  1  0  0  0  0
 25 35  2  0  0  0  0
 25 19  1  0  0  0  0
 26 25  1  0  0  0  0
 27 26  1  0  0  0  0
 27 28  2  0  0  0  0
 28 29  1  0  0  0  0
 29 19  2  0  0  0  0
 29120  1  0  0  0  0
 30 38  2  0  0  0  0
 30 31  1  0  0  0  0
 31 40  2  0  0  0  0
 32 31  1  0  0  0  0
 32 43  1  0  0  0  0
 33 32  2  0  0  0  0
 34 24  2  0  0  0  0
 34 33  1  0  0  0  0
 36 35  1  0  0  0  0
 37 36  1  0  0  0  0
 37 26  2  0  0  0  0
 38 39  1  0  0  0  0
 40 39  1  0  0  0  0
 41 27  1  0  0  0  0
 42 41  2  0  0  0  0
 43124  1  0  0  0  0
 44 43  2  0  0  0  0
 44 49  1  0  0  0  0
 45 42  1  0  0  0  0
 46 47  2  0  0  0  0
 46 45  1  0  0  0  0
 47 48  1  0  0  0  0
 48 42  1  0  0  0  0
 48103  2  0  0  0  0
 49 73  2  0  0  0  0
 50 70  1  0  0  0  0
 50 49  1  0  0  0  0
 51 50  2  0  0  0  0
 52 51  1  0  0  0  0
 52 44  1  0  0  0  0
 53 45  2  0  0  0  0
 53125  1  0  0  0  0
 54 53  1  0  0  0  0
 55 56  1  0  0  0  0
 55 54  2  0  0  0  0
 56 46  1  0  0  0  0
 57 56  2  0  0  0  0
 57 58  1  0  0  0  0
 58 59  2  0  0  0  0
 59128  1  0  0  0  0
 59 47  1  0  0  0  0
 60 55  1  0  0  0  0
 61 62  1  0  0  0  0
 61 60  1  0  0  0  0
 62 57  1  0  0  0  0
 63 61  1  0  0  0  0
 63129  1  0  0  0  0
 63130  1  0  0  0  0
 64 63  1  0  0  0  0
 65134  1  0  0  0  0
 65132  1  0  0  0  0
 65 64  1  0  0  0  0
 66 64  1  0  0  0  0
 66137  1  0  0  0  0
 66135  1  0  0  0  0
 67 68  2  0  0  0  0
 67 51  1  0  0  0  0
 68 69  1  0  0  0  0
 69 76  1  0  0  0  0
 69 70  2  0  0  0  0
 70 71  1  0  0  0  0
 71 74  1  0  0  0  0
 71 72  2  0  0  0  0
 72140  1  0  0  0  0
 73 72  1  0  0  0  0
 73141  1  0  0  0  0
 74105  2  0  0  0  0
 75 77  1  0  0  0  0
 75 74  1  0  0  0  0
 76 75  1  0  0  0  0
 77143  1  0  0  0  0
 77142  1  0  0  0  0
 78 79  1  0  0  0  0
 78 77  1  0  0  0  0
 79145  1  0  0  0  0
 79147  1  0  0  0  0
 80150  1  0  0  0  0
 80 78  1  0  0  0  0
 81 82  2  0  0  0  0
 82 83  1  0  0  0  0
 82152  1  0  0  0  0
 83108  1  0  0  0  0
 84153  1  0  0  0  0
 84 83  2  0  0  0  0
 85 84  1  0  0  0  0
 86155  1  0  0  0  0
 87156  1  0  0  0  0
 87 86  2  0  0  0  0
 88 87  1  0  0  0  0
 89 88  2  0  0  0  0
 89 90  1  0  0  0  0
 90 20  2  0  0  0  0
 91159  1  0  0  0  0
 91 92  2  0  0  0  0
 92160  1  0  0  0  0
 93 92  1  0  0  0  0
 93111  1  0  0  0  0
 94 93  2  0  0  0  0
 95 22  2  0  0  0  0
 95 94  1  0  0  0  0
 96163  1  0  0  0  0
 96 23  2  0  0  0  0
 97 96  1  0  0  0  0
 98 97  2  0  0  0  0
 98 99  1  0  0  0  0
 99100  2  0  0  0  0
100 23  1  0  0  0  0
100166  1  0  0  0  0
101 60  2  0  0  0  0
102 62  2  0  0  0  0
104 52  2  0  0  0  0
106 76  2  0  0  0  0
107109  1  0  0  0  0
107 88  1  0  0  0  0
108110  1  0  0  0  0
108170  1  0  0  0  0
108169  1  0  0  0  0
109171  1  0  0  0  0
109173  1  0  0  0  0
110175  1  0  0  0  0
111177  1  0  0  0  0
111178  1  0  0  0  0
112111  1  0  0  0  0
112180  1  0  0  0  0
113 98  1  0  0  0  0
114113  1  0  0  0  0
114186  1  0  0  0  0
114184  1  0  0  0  0
116  6  1  0  0  0  0
118 18  1  0  0  0  0
119 28  1  0  0  0  0
121 33  1  0  0  0  0
122 34  1  0  0  0  0
123 41  1  0  0  0  0
126 54  1  0  0  0  0
127 58  1  0  0  0  0
131 64  1  0  0  0  0
133 65  1  0  0  0  0
136 66  1  0  0  0  0
138 67  1  0  0  0  0
139 68  1  0  0  0  0
144 78  1  0  0  0  0
146 79  1  0  0  0  0
148 80  1  0  0  0  0
149 80  1  0  0  0  0
151 81  1  0  0  0  0
154 85  1  0  0  0  0
157 89  1  0  0  0  0
158 90  1  0  0  0  0
161 94  1  0  0  0  0
162 95  1  0  0  0  0
164 97  1  0  0  0  0
165 99  1  0  0  0  0
167107  1  0  0  0  0
168107  1  0  0  0  0
172109  1  0  0  0  0
174110  1  0  0  0  0
176110  1  0  0  0  0
179112  1  0  0  0  0
181112  1  0  0  0  0
182113  1  0  0  0  0
183113  1  0  0  0  0
185114  1  0  0  0  0
M  END
