SCF done       -228.184478246339          0.000452679843
 OpenBabel12282109493D

138151  0  0  0  0  0  0  0  0999 V2000
    0.2273    0.5398    0.4630 C   0  0  0  0  0  0  0  0  0  0  0  0
   -0.4009    1.5336    1.1754 C   0  0  0  0  0  0  0  0  0  0  0  0
   -1.6552    1.3948    1.9215 C   0  0  0  0  0  0  0  0  0  0  0  0
   -1.9347    2.7223    2.5014 C   0  0  0  0  0  0  0  0  0  0  0  0
   -0.9111    3.6137    2.1354 C   0  0  0  0  0  0  0  0  0  0  0  0
    0.0641    2.8985    1.3084 C   0  0  0  0  0  0  0  0  0  0  0  0
   -2.3417    0.3960    2.0492 O   0  0  0  0  0  0  0  0  0  0  0  0
    1.1981    3.4544    0.7750 C   0  0  0  0  0  0  0  0  0  0  0  0
    2.1524    2.7877   -0.0220 C   0  0  0  0  0  0  0  0  0  0  0  0
    1.5798    4.8013    0.9528 C   0  0  0  0  0  0  0  0  0  0  0  0
    2.9778    2.3266   -0.6748 N   0  0  0  0  0  0  0  0  0  0  0  0
    1.9517    5.8826    1.0543 N   0  0  0  0  0  0  0  0  0  0  0  0
   -3.0020    3.1150    3.2860 C   0  0  0  0  0  0  0  0  0  0  0  0
   -3.0544    4.4304    3.7196 C   0  0  0  0  0  0  0  0  0  0  0  0
   -2.0396    5.3012    3.3529 C   0  0  0  0  0  0  0  0  0  0  0  0
   -0.9578    4.9290    2.5656 C   0  0  0  0  0  0  0  0  0  0  0  0
   -5.6707  -10.5048    0.1471 C   0  0  0  0  0  0  0  0  0  0  0  0
   -6.0908  -11.7993   -0.1729 C   0  0  0  0  0  0  0  0  0  0  0  0
   -5.5456  -12.7360   -1.0190 C   0  0  0  0  0  0  0  0  0  0  0  0
   -4.3368  -12.5616   -1.8297 C   0  0  0  0  0  0  0  0  0  0  0  0
   -4.1818  -13.8061   -2.6063 C   0  0  0  0  0  0  0  0  0  0  0  0
   -5.2230  -14.6914   -2.2775 C   0  0  0  0  0  0  0  0  0  0  0  0
   -6.0851  -14.0547   -1.2783 C   0  0  0  0  0  0  0  0  0  0  0  0
   -3.5973  -11.5937   -1.8707 O   0  0  0  0  0  0  0  0  0  0  0  0
   -7.1875  -14.6372   -0.7082 C   0  0  0  0  0  0  0  0  0  0  0  0
   -8.0293  -14.0483    0.2586 C   0  0  0  0  0  0  0  0  0  0  0  0
   -7.6416  -15.9386   -1.0112 C   0  0  0  0  0  0  0  0  0  0  0  0
   -8.7663  -13.6500    1.0448 N   0  0  0  0  0  0  0  0  0  0  0  0
   -8.0656  -16.9869   -1.2085 N   0  0  0  0  0  0  0  0  0  0  0  0
   -3.2072  -14.1315   -3.5301 C   0  0  0  0  0  0  0  0  0  0  0  0
   -3.2692  -15.3712   -4.1465 C   0  0  0  0  0  0  0  0  0  0  0  0
   -4.3012  -16.2364   -3.8160 C   0  0  0  0  0  0  0  0  0  0  0  0
   -5.2903  -15.9314   -2.8900 C   0  0  0  0  0  0  0  0  0  0  0  0
   -6.3963   -9.6823    1.0241 C   0  0  0  0  0  0  0  0  0  0  0  0
   -5.8217   -8.4430    1.1851 C   0  0  0  0  0  0  0  0  0  0  0  0
   -4.6379   -8.2980    0.4531 C   0  0  0  0  0  0  0  0  0  0  0  0
   -4.2353   -9.6870   -0.4564 S   0  0  0  0  0  0  0  0  0  0  0  0
   -6.1031   -7.1926    1.9778 C   0  0  0  0  0  0  0  0  0  0  0  0
   -4.9489   -6.3117    1.5338 C   0  0  0  0  0  0  0  0  0  0  0  0
   -4.0999   -6.9898    0.6540 C   0  0  0  0  0  0  0  0  0  0  0  0
   -4.7059   -4.9862    1.8790 C   0  0  0  0  0  0  0  0  0  0  0  0
   -3.6055   -4.3487    1.3567 C   0  0  0  0  0  0  0  0  0  0  0  0
   -2.7159   -5.0134    0.4911 C   0  0  0  0  0  0  0  0  0  0  0  0
   -2.9462   -6.3695    0.1209 C   0  0  0  0  0  0  0  0  0  0  0  0
   -1.5662   -4.3907   -0.0483 C   0  0  0  0  0  0  0  0  0  0  0  0
   -0.6891   -5.0863   -0.8860 C   0  0  0  0  0  0  0  0  0  0  0  0
   -0.9237   -6.4168   -1.2178 C   0  0  0  0  0  0  0  0  0  0  0  0
   -2.0458   -7.0415   -0.7277 C   0  0  0  0  0  0  0  0  0  0  0  0
   -1.0630   -3.0613    0.0995 C   0  0  0  0  0  0  0  0  0  0  0  0
    0.1331   -2.9246   -0.6138 C   0  0  0  0  0  0  0  0  0  0  0  0
    0.4828   -4.2166   -1.3048 C   0  0  0  0  0  0  0  0  0  0  0  0
   -1.5435   -1.6224    0.8864 S   0  0  0  0  0  0  0  0  0  0  0  0
   -0.1255   -0.7967    0.2539 C   0  0  0  0  0  0  0  0  0  0  0  0
    0.6589   -1.6565   -0.5316 C   0  0  0  0  0  0  0  0  0  0  0  0
   -6.0528   -7.5666    3.4495 C   0  0  0  0  0  0  0  0  0  0  0  0
   -7.4044   -6.5020    1.6178 C   0  0  0  0  0  0  0  0  0  0  0  0
   -7.9831   -5.6047    2.5069 C   0  0  0  0  0  0  0  0  0  0  0  0
   -9.1452   -4.9367    2.1723 C   0  0  0  0  0  0  0  0  0  0  0  0
   -9.7588   -5.1432    0.9435 C   0  0  0  0  0  0  0  0  0  0  0  0
   -9.1691   -6.0307    0.0537 C   0  0  0  0  0  0  0  0  0  0  0  0
   -8.0044   -6.6999    0.3824 C   0  0  0  0  0  0  0  0  0  0  0  0
   -4.9154   -7.3704    4.2184 C   0  0  0  0  0  0  0  0  0  0  0  0
   -4.8926   -7.7642    5.5447 C   0  0  0  0  0  0  0  0  0  0  0  0
   -5.9942   -8.3716    6.1305 C   0  0  0  0  0  0  0  0  0  0  0  0
   -7.1263   -8.5768    5.3512 C   0  0  0  0  0  0  0  0  0  0  0  0
   -7.1554   -8.1848    4.0274 C   0  0  0  0  0  0  0  0  0  0  0  0
   -5.9824   -8.7527    7.5825 C   0  0  0  0  0  0  0  0  0  0  0  0
   -6.4865   -7.5920    8.4427 C   0  0  0  0  0  0  0  0  0  0  0  0
  -10.9987   -4.3846    0.5684 C   0  0  0  0  0  0  0  0  0  0  0  0
  -10.6302   -3.0600   -0.1031 C   0  0  0  0  0  0  0  0  0  0  0  0
    0.5649   -3.9536   -2.7965 C   0  0  0  0  0  0  0  0  0  0  0  0
    1.7498   -4.8659   -0.7749 C   0  0  0  0  0  0  0  0  0  0  0  0
    2.2292   -4.5710    0.4937 C   0  0  0  0  0  0  0  0  0  0  0  0
    3.3599   -5.2008    0.9799 C   0  0  0  0  0  0  0  0  0  0  0  0
    4.0350   -6.1454    0.2188 C   0  0  0  0  0  0  0  0  0  0  0  0
    3.5420   -6.4482   -1.0437 C   0  0  0  0  0  0  0  0  0  0  0  0
    2.4141   -5.8196   -1.5358 C   0  0  0  0  0  0  0  0  0  0  0  0
    1.7140   -3.3713   -3.3188 C   0  0  0  0  0  0  0  0  0  0  0  0
    1.8054   -3.0862   -4.6668 C   0  0  0  0  0  0  0  0  0  0  0  0
    0.7513   -3.3668   -5.5277 C   0  0  0  0  0  0  0  0  0  0  0  0
   -0.3988   -3.9347   -4.9979 C   0  0  0  0  0  0  0  0  0  0  0  0
   -0.4973   -4.2197   -3.6475 C   0  0  0  0  0  0  0  0  0  0  0  0
    0.8759   -3.1097   -7.0015 C   0  0  0  0  0  0  0  0  0  0  0  0
    1.4901   -4.3235   -7.7023 C   0  0  0  0  0  0  0  0  0  0  0  0
    5.2350   -6.8599    0.7694 C   0  0  0  0  0  0  0  0  0  0  0  0
    4.8030   -8.1048    1.5473 C   0  0  0  0  0  0  0  0  0  0  0  0
   -4.3487  -17.4330   -4.4237 F   0  0  0  0  0  0  0  0  0  0  0  0
   -2.1050    6.5724    3.7807 F   0  0  0  0  0  0  0  0  0  0  0  0
    1.1507    0.8119   -0.0341 H   0  0  0  0  0  0  0  0  0  0  0  0
   -3.7711    2.4056    3.5486 H   0  0  0  0  0  0  0  0  0  0  0  0
   -3.8643    4.7909    4.3337 H   0  0  0  0  0  0  0  0  0  0  0  0
   -0.2056    5.6598    2.3196 H   0  0  0  0  0  0  0  0  0  0  0  0
   -7.0041  -12.0821    0.3368 H   0  0  0  0  0  0  0  0  0  0  0  0
   -2.4220  -13.4281   -3.7592 H   0  0  0  0  0  0  0  0  0  0  0  0
   -2.5361  -15.6768   -4.8760 H   0  0  0  0  0  0  0  0  0  0  0  0
   -6.0627  -16.6531   -2.6835 H   0  0  0  0  0  0  0  0  0  0  0  0
   -7.3048  -10.0155    1.4934 H   0  0  0  0  0  0  0  0  0  0  0  0
   -5.3762   -4.4671    2.5465 H   0  0  0  0  0  0  0  0  0  0  0  0
   -3.4067   -3.3186    1.6120 H   0  0  0  0  0  0  0  0  0  0  0  0
   -0.2352   -6.9466   -1.8579 H   0  0  0  0  0  0  0  0  0  0  0  0
   -2.2475   -8.0702   -0.9863 H   0  0  0  0  0  0  0  0  0  0  0  0
    1.5667   -1.3248   -1.0031 H   0  0  0  0  0  0  0  0  0  0  0  0
   -7.5297   -5.4390    3.4736 H   0  0  0  0  0  0  0  0  0  0  0  0
   -9.5853   -4.2474    2.8787 H   0  0  0  0  0  0  0  0  0  0  0  0
   -9.6279   -6.2038   -0.9093 H   0  0  0  0  0  0  0  0  0  0  0  0
   -7.5633   -7.3838   -0.3282 H   0  0  0  0  0  0  0  0  0  0  0  0
   -4.0414   -6.9064    3.7852 H   0  0  0  0  0  0  0  0  0  0  0  0
   -3.9999   -7.5991    6.1312 H   0  0  0  0  0  0  0  0  0  0  0  0
   -7.9935   -9.0532    5.7852 H   0  0  0  0  0  0  0  0  0  0  0  0
   -8.0455   -8.3490    3.4375 H   0  0  0  0  0  0  0  0  0  0  0  0
   -6.6223   -9.6228    7.7420 H   0  0  0  0  0  0  0  0  0  0  0  0
   -4.9674   -9.0134    7.8891 H   0  0  0  0  0  0  0  0  0  0  0  0
   -7.5033   -7.3267    8.1616 H   0  0  0  0  0  0  0  0  0  0  0  0
   -6.4772   -7.8661    9.4949 H   0  0  0  0  0  0  0  0  0  0  0  0
   -5.8545   -6.7173    8.3056 H   0  0  0  0  0  0  0  0  0  0  0  0
  -11.6048   -4.9797   -0.1175 H   0  0  0  0  0  0  0  0  0  0  0  0
  -11.5928   -4.1815    1.4617 H   0  0  0  0  0  0  0  0  0  0  0  0
  -10.0489   -3.2418   -1.0044 H   0  0  0  0  0  0  0  0  0  0  0  0
  -11.5272   -2.5077   -0.3731 H   0  0  0  0  0  0  0  0  0  0  0  0
  -10.0338   -2.4478    0.5697 H   0  0  0  0  0  0  0  0  0  0  0  0
    1.7210   -3.8415    1.1073 H   0  0  0  0  0  0  0  0  0  0  0  0
    3.7244   -4.9514    1.9663 H   0  0  0  0  0  0  0  0  0  0  0  0
    4.0496   -7.1832   -1.6520 H   0  0  0  0  0  0  0  0  0  0  0  0
    2.0557   -6.0618   -2.5258 H   0  0  0  0  0  0  0  0  0  0  0  0
    2.5460   -3.1524   -2.6652 H   0  0  0  0  0  0  0  0  0  0  0  0
    2.7074   -2.6368   -5.0568 H   0  0  0  0  0  0  0  0  0  0  0  0
   -1.2332   -4.1552   -5.6485 H   0  0  0  0  0  0  0  0  0  0  0  0
   -1.4067   -4.6546   -3.2592 H   0  0  0  0  0  0  0  0  0  0  0  0
   -0.1088   -2.9079   -7.4278 H   0  0  0  0  0  0  0  0  0  0  0  0
    1.5090   -2.2369   -7.1732 H   0  0  0  0  0  0  0  0  0  0  0  0
    0.8668   -5.2023   -7.5519 H   0  0  0  0  0  0  0  0  0  0  0  0
    1.5814   -4.1407   -8.7704 H   0  0  0  0  0  0  0  0  0  0  0  0
    2.4788   -4.5323   -7.2997 H   0  0  0  0  0  0  0  0  0  0  0  0
    5.8967   -7.1570   -0.0466 H   0  0  0  0  0  0  0  0  0  0  0  0
    5.7894   -6.1948    1.4345 H   0  0  0  0  0  0  0  0  0  0  0  0
    4.2575   -8.7861    0.8980 H   0  0  0  0  0  0  0  0  0  0  0  0
    5.6708   -8.6245    1.9464 H   0  0  0  0  0  0  0  0  0  0  0  0
    4.1527   -7.8275    2.3740 H   0  0  0  0  0  0  0  0  0  0  0  0
  1  2  2  0  0  0  0
  2  6  1  0  0  0  0
  2  3  1  0  0  0  0
  3  7  2  0  0  0  0
  3  4  1  0  0  0  0
  4 13  1  0  0  0  0
  5  4  2  0  0  0  0
  5 16  1  0  0  0  0
  6  5  1  0  0  0  0
  8 10  1  0  0  0  0
  8  6  2  0  0  0  0
  9  8  1  0  0  0  0
 10 12  3  0  0  0  0
 11  9  3  0  0  0  0
 13 90  1  0  0  0  0
 13 14  2  0  0  0  0
 14 91  1  0  0  0  0
 15 14  1  0  0  0  0
 15 88  1  0  0  0  0
 16 15  2  0  0  0  0
 17 34  2  0  0  0  0
 18 17  1  0  0  0  0
 18 93  1  0  0  0  0
 19 18  1  0  0  0  0
 20 19  1  0  0  0  0
 21 22  1  0  0  0  0
 21 20  1  0  0  0  0
 22 23  1  0  0  0  0
 23 19  2  0  0  0  0
 23 25  1  0  0  0  0
 24 20  2  0  0  0  0
 25 26  1  0  0  0  0
 26 28  3  0  0  0  0
 27 25  1  0  0  0  0
 29 27  3  0  0  0  0
 30 21  2  0  0  0  0
 31 32  2  0  0  0  0
 31 30  1  0  0  0  0
 32 33  1  0  0  0  0
 33 96  1  0  0  0  0
 33 22  2  0  0  0  0
 34 35  1  0  0  0  0
 34 97  1  0  0  0  0
 35 38  1  0  0  0  0
 36 40  1  0  0  0  0
 36 35  2  0  0  0  0
 37 17  1  0  0  0  0
 37 36  1  0  0  0  0
 38 55  1  0  0  0  0
 39 41  1  0  0  0  0
 39 38  1  0  0  0  0
 40 39  2  0  0  0  0
 41 98  1  0  0  0  0
 42 99  1  0  0  0  0
 42 41  2  0  0  0  0
 43 42  1  0  0  0  0
 44 43  1  0  0  0  0
 44 40  1  0  0  0  0
 45 49  1  0  0  0  0
 45 43  2  0  0  0  0
 46 45  1  0  0  0  0
 47 46  2  0  0  0  0
 47 48  1  0  0  0  0
 48 44  2  0  0  0  0
 49 52  1  0  0  0  0
 50 54  1  0  0  0  0
 50 49  2  0  0  0  0
 51 46  1  0  0  0  0
 51 72  1  0  0  0  0
 51 50  1  0  0  0  0
 53  1  1  0  0  0  0
 53 52  1  0  0  0  0
 54 53  2  0  0  0  0
 55 66  2  0  0  0  0
 55 62  1  0  0  0  0
 56 38  1  0  0  0  0
 56 57  2  0  0  0  0
 57103  1  0  0  0  0
 58 57  1  0  0  0  0
 58104  1  0  0  0  0
 59 58  2  0  0  0  0
 60 61  2  0  0  0  0
 60 59  1  0  0  0  0
 61 56  1  0  0  0  0
 62 63  2  0  0  0  0
 63 64  1  0  0  0  0
 63108  1  0  0  0  0
 64 67  1  0  0  0  0
 65109  1  0  0  0  0
 65 64  2  0  0  0  0
 66 65  1  0  0  0  0
 67111  1  0  0  0  0
 67112  1  0  0  0  0
 67 68  1  0  0  0  0
 68114  1  0  0  0  0
 69 59  1  0  0  0  0
 69117  1  0  0  0  0
 70 69  1  0  0  0  0
 70120  1  0  0  0  0
 71 51  1  0  0  0  0
 72 73  2  0  0  0  0
 73 74  1  0  0  0  0
 73121  1  0  0  0  0
 74122  1  0  0  0  0
 75 85  1  0  0  0  0
 75 74  2  0  0  0  0
 76 75  1  0  0  0  0
 77 76  2  0  0  0  0
 77 72  1  0  0  0  0
 78 71  1  0  0  0  0
 78125  1  0  0  0  0
 79 78  2  0  0  0  0
 80 81  2  0  0  0  0
 80 79  1  0  0  0  0
 81 82  1  0  0  0  0
 82128  1  0  0  0  0
 82 71  2  0  0  0  0
 83 80  1  0  0  0  0
 84131  1  0  0  0  0
 84133  1  0  0  0  0
 84 83  1  0  0  0  0
 85135  1  0  0  0  0
 85 86  1  0  0  0  0
 86137  1  0  0  0  0
 86138  1  0  0  0  0
 87 32  1  0  0  0  0
 89  1  1  0  0  0  0
 92 16  1  0  0  0  0
 94 30  1  0  0  0  0
 95 31  1  0  0  0  0
100 47  1  0  0  0  0
101 48  1  0  0  0  0
102 54  1  0  0  0  0
105 60  1  0  0  0  0
106 61  1  0  0  0  0
107 62  1  0  0  0  0
110 66  1  0  0  0  0
113 68  1  0  0  0  0
115 68  1  0  0  0  0
116 69  1  0  0  0  0
118 70  1  0  0  0  0
119 70  1  0  0  0  0
123 76  1  0  0  0  0
124 77  1  0  0  0  0
126 79  1  0  0  0  0
127 81  1  0  0  0  0
129 83  1  0  0  0  0
130 83  1  0  0  0  0
132 84  1  0  0  0  0
134 85  1  0  0  0  0
136 86  1  0  0  0  0
M  RAD  2  18   2  25   2
M  END
