SCF done       -209.995540261193          0.000536516914
 OpenBabel12282109493D

106116  0  0  0  0  0  0  0  0999 V2000
   -6.6077    3.3346   -2.5312 C   0  0  0  0  0  0  0  0  0  0  0  0
   -6.3031    3.1139   -1.3734 O   0  0  0  0  0  0  0  0  0  0  0  0
   -7.5056    2.5117   -3.3683 C   0  0  0  0  0  0  0  0  0  0  0  0
   -8.1745    1.3534   -3.0266 C   0  0  0  0  0  0  0  0  0  0  0  0
   -8.9665    0.7600   -3.9965 C   0  0  0  0  0  0  0  0  0  0  0  0
   -9.0744    1.3236   -5.2680 C   0  0  0  0  0  0  0  0  0  0  0  0
   -8.4017    2.4878   -5.6099 C   0  0  0  0  0  0  0  0  0  0  0  0
   -7.6075    3.0879   -4.6456 C   0  0  0  0  0  0  0  0  0  0  0  0
   -6.7848    4.2990   -4.6839 C   0  0  0  0  0  0  0  0  0  0  0  0
   -6.6426    5.1179   -5.7739 C   0  0  0  0  0  0  0  0  0  0  0  0
   -5.8553    6.2873   -5.8321 C   0  0  0  0  0  0  0  0  0  0  0  0
   -5.2413    7.2488   -5.9662 N   0  0  0  0  0  0  0  0  0  0  0  0
   -7.2760    4.8994   -7.0163 C   0  0  0  0  0  0  0  0  0  0  0  0
   -7.7577    4.7832   -8.0512 N   0  0  0  0  0  0  0  0  0  0  0  0
   -6.1743    4.4474   -3.3784 C   0  0  0  0  0  0  0  0  0  0  0  0
   -5.3346    5.4668   -2.9949 C   0  0  0  0  0  0  0  0  0  0  0  0
   -0.7058    6.0695   18.8300 C   0  0  0  0  0  0  0  0  0  0  0  0
   -0.3588    5.1383   18.1326 O   0  0  0  0  0  0  0  0  0  0  0  0
   -0.8043    6.0324   20.3058 C   0  0  0  0  0  0  0  0  0  0  0  0
   -0.5625    4.9627   21.1450 C   0  0  0  0  0  0  0  0  0  0  0  0
   -0.7336    5.1621   22.5049 C   0  0  0  0  0  0  0  0  0  0  0  0
   -1.1366    6.4051   22.9942 C   0  0  0  0  0  0  0  0  0  0  0  0
   -1.3752    7.4795   22.1503 C   0  0  0  0  0  0  0  0  0  0  0  0
   -1.2047    7.2878   20.7876 C   0  0  0  0  0  0  0  0  0  0  0  0
   -1.3679    8.1941   19.6507 C   0  0  0  0  0  0  0  0  0  0  0  0
   -1.6721    9.5260   19.7584 C   0  0  0  0  0  0  0  0  0  0  0  0
   -1.7831   10.4544   18.7004 C   0  0  0  0  0  0  0  0  0  0  0  0
   -1.8833   11.2871   17.9155 N   0  0  0  0  0  0  0  0  0  0  0  0
   -1.9028   10.1864   20.9852 C   0  0  0  0  0  0  0  0  0  0  0  0
   -2.1052   10.7876   21.9416 N   0  0  0  0  0  0  0  0  0  0  0  0
   -1.1131    7.4333   18.4381 C   0  0  0  0  0  0  0  0  0  0  0  0
   -1.3059    7.9423   17.1763 C   0  0  0  0  0  0  0  0  0  0  0  0
   -1.1423    7.3809   15.9019 C   0  0  0  0  0  0  0  0  0  0  0  0
   -1.6312    8.4083   14.5448 S   0  0  0  0  0  0  0  0  0  0  0  0
   -1.2180    7.1719   13.4486 C   0  0  0  0  0  0  0  0  0  0  0  0
   -0.7130    6.0265   14.0847 C   0  0  0  0  0  0  0  0  0  0  0  0
   -0.6715    6.1443   15.4580 C   0  0  0  0  0  0  0  0  0  0  0  0
   -1.2443    6.9414   12.0561 C   0  0  0  0  0  0  0  0  0  0  0  0
   -0.7665    5.6549   11.7939 C   0  0  0  0  0  0  0  0  0  0  0  0
   -0.3931    4.9485   13.0744 C   0  0  0  0  0  0  0  0  0  0  0  0
   -1.6760    7.7969   10.6392 S   0  0  0  0  0  0  0  0  0  0  0  0
   -1.2374    6.4096    9.6674 C   0  0  0  0  0  0  0  0  0  0  0  0
   -0.7587    5.3612   10.4359 C   0  0  0  0  0  0  0  0  0  0  0  0
   -1.4489    6.4265    8.2412 C   0  0  0  0  0  0  0  0  0  0  0  0
   -1.6820    5.2560    7.5026 C   0  0  0  0  0  0  0  0  0  0  0  0
   -1.9496    5.2767    6.1471 C   0  0  0  0  0  0  0  0  0  0  0  0
   -1.9903    6.4653    5.4021 C   0  0  0  0  0  0  0  0  0  0  0  0
   -1.7351    7.6338    6.1370 C   0  0  0  0  0  0  0  0  0  0  0  0
   -1.4853    7.6146    7.4958 C   0  0  0  0  0  0  0  0  0  0  0  0
   -2.3126    6.4925    3.9974 C   0  0  0  0  0  0  0  0  0  0  0  0
   -3.2942    5.2290    3.2895 S   0  0  0  0  0  0  0  0  0  0  0  0
   -3.2651    6.0455    1.7868 C   0  0  0  0  0  0  0  0  0  0  0  0
   -2.5205    7.2264    1.8225 C   0  0  0  0  0  0  0  0  0  0  0  0
   -1.9758    7.4715    3.0765 C   0  0  0  0  0  0  0  0  0  0  0  0
   -3.7901    5.8569    0.4898 C   0  0  0  0  0  0  0  0  0  0  0  0
   -3.3642    6.9281   -0.3180 C   0  0  0  0  0  0  0  0  0  0  0  0
   -2.4960    7.8903    0.4639 C   0  0  0  0  0  0  0  0  0  0  0  0
   -4.8081    4.7451   -0.3116 S   0  0  0  0  0  0  0  0  0  0  0  0
   -4.7033    5.7179   -1.7732 C   0  0  0  0  0  0  0  0  0  0  0  0
   -3.8896    6.8496   -1.5850 C   0  0  0  0  0  0  0  0  0  0  0  0
   -1.0407    7.9037   -0.0470 C   0  0  0  0  0  0  0  0  0  0  0  0
   -0.8600    8.4609   -1.4523 C   0  0  0  0  0  0  0  0  0  0  0  0
   -3.1716    9.2759    0.4693 C   0  0  0  0  0  0  0  0  0  0  0  0
   -2.4476   10.3464    1.2747 C   0  0  0  0  0  0  0  0  0  0  0  0
   -1.3088    3.7377   13.3638 C   0  0  0  0  0  0  0  0  0  0  0  0
   -1.2317    2.6085   12.3454 C   0  0  0  0  0  0  0  0  0  0  0  0
    1.0939    4.5582   13.1043 C   0  0  0  0  0  0  0  0  0  0  0  0
    2.0222    5.7594   12.9660 C   0  0  0  0  0  0  0  0  0  0  0  0
   -1.2644    8.7864    8.1100 F   0  0  0  0  0  0  0  0  0  0  0  0
   -2.1698    4.1047    5.5337 F   0  0  0  0  0  0  0  0  0  0  0  0
   -1.3000    6.5691   24.3116 F   0  0  0  0  0  0  0  0  0  0  0  0
   -0.5130    4.1538   23.3568 F   0  0  0  0  0  0  0  0  0  0  0  0
   -9.6341   -0.3641   -3.7110 F   0  0  0  0  0  0  0  0  0  0  0  0
   -9.8460    0.7299   -6.1850 F   0  0  0  0  0  0  0  0  0  0  0  0
   -1.7644    8.8283    5.5269 F   0  0  0  0  0  0  0  0  0  0  0  0
   -1.6855    4.0653    8.1208 F   0  0  0  0  0  0  0  0  0  0  0  0
   -8.0876    0.9219   -2.0422 H   0  0  0  0  0  0  0  0  0  0  0  0
   -8.5202    2.8810   -6.6061 H   0  0  0  0  0  0  0  0  0  0  0  0
   -5.1154    6.2178   -3.7442 H   0  0  0  0  0  0  0  0  0  0  0  0
   -0.2529    4.0043   20.7598 H   0  0  0  0  0  0  0  0  0  0  0  0
   -1.6859    8.4165   22.5815 H   0  0  0  0  0  0  0  0  0  0  0  0
   -1.6770    8.9596   17.1380 H   0  0  0  0  0  0  0  0  0  0  0  0
   -0.3247    5.3908   16.1405 H   0  0  0  0  0  0  0  0  0  0  0  0
   -0.3983    4.4433   10.0118 H   0  0  0  0  0  0  0  0  0  0  0  0
   -1.3424    8.3040    3.3166 H   0  0  0  0  0  0  0  0  0  0  0  0
   -3.7345    7.5614   -2.3762 H   0  0  0  0  0  0  0  0  0  0  0  0
   -0.4391    8.4816    0.6558 H   0  0  0  0  0  0  0  0  0  0  0  0
   -0.6731    6.8744   -0.0231 H   0  0  0  0  0  0  0  0  0  0  0  0
   -1.1946    9.4923   -1.5170 H   0  0  0  0  0  0  0  0  0  0  0  0
    0.1941    8.4310   -1.7185 H   0  0  0  0  0  0  0  0  0  0  0  0
   -1.4076    7.8670   -2.1785 H   0  0  0  0  0  0  0  0  0  0  0  0
   -3.2732    9.6054   -0.5656 H   0  0  0  0  0  0  0  0  0  0  0  0
   -4.1799    9.1497    0.8720 H   0  0  0  0  0  0  0  0  0  0  0  0
   -1.4416   10.5134    0.9002 H   0  0  0  0  0  0  0  0  0  0  0  0
   -2.9946   11.2833    1.1980 H   0  0  0  0  0  0  0  0  0  0  0  0
   -2.3930   10.0758    2.3250 H   0  0  0  0  0  0  0  0  0  0  0  0
   -1.0440    3.3551   14.3514 H   0  0  0  0  0  0  0  0  0  0  0  0
   -2.3391    4.0989   13.4135 H   0  0  0  0  0  0  0  0  0  0  0  0
   -0.2256    2.2050   12.2746 H   0  0  0  0  0  0  0  0  0  0  0  0
   -1.8945    1.8036   12.6542 H   0  0  0  0  0  0  0  0  0  0  0  0
   -1.5481    2.9452   11.3624 H   0  0  0  0  0  0  0  0  0  0  0  0
    1.2967    4.0486   14.0477 H   0  0  0  0  0  0  0  0  0  0  0  0
    1.2895    3.8619   12.2886 H   0  0  0  0  0  0  0  0  0  0  0  0
    1.8824    6.4554   13.7897 H   0  0  0  0  0  0  0  0  0  0  0  0
    3.0580    5.4294   12.9709 H   0  0  0  0  0  0  0  0  0  0  0  0
    1.8360    6.2877   12.0334 H   0  0  0  0  0  0  0  0  0  0  0  0
  1  2  2  0  0  0  0
  3  4  1  0  0  0  0
  3  1  1  0  0  0  0
  4 77  1  0  0  0  0
  5 73  1  0  0  0  0
  5  4  2  0  0  0  0
  6  5  1  0  0  0  0
  7  6  2  0  0  0  0
  7  8  1  0  0  0  0
  8  3  2  0  0  0  0
  9  8  1  0  0  0  0
  9 15  1  0  0  0  0
 10  9  2  0  0  0  0
 11 10  1  0  0  0  0
 12 11  3  0  0  0  0
 13 10  1  0  0  0  0
 14 13  3  0  0  0  0
 15 16  2  0  0  0  0
 15  1  1  0  0  0  0
 16 59  1  0  0  0  0
 17 19  1  0  0  0  0
 18 17  2  0  0  0  0
 19 24  2  0  0  0  0
 19 20  1  0  0  0  0
 20 21  2  0  0  0  0
 21 22  1  0  0  0  0
 21 72  1  0  0  0  0
 22 71  1  0  0  0  0
 23 81  1  0  0  0  0
 23 22  2  0  0  0  0
 24 23  1  0  0  0  0
 25 26  2  0  0  0  0
 25 24  1  0  0  0  0
 26 29  1  0  0  0  0
 27 26  1  0  0  0  0
 28 27  3  0  0  0  0
 29 30  3  0  0  0  0
 31 17  1  0  0  0  0
 31 25  1  0  0  0  0
 32 31  2  0  0  0  0
 33 32  1  0  0  0  0
 34 33  1  0  0  0  0
 35 36  2  0  0  0  0
 35 34  1  0  0  0  0
 36 37  1  0  0  0  0
 37 33  2  0  0  0  0
 37 83  1  0  0  0  0
 38 35  1  0  0  0  0
 39 38  2  0  0  0  0
 39 40  1  0  0  0  0
 40 67  1  0  0  0  0
 40 65  1  0  0  0  0
 40 36  1  0  0  0  0
 41 38  1  0  0  0  0
 42 43  2  0  0  0  0
 42 41  1  0  0  0  0
 43 39  1  0  0  0  0
 44 42  1  0  0  0  0
 45 76  1  0  0  0  0
 45 44  1  0  0  0  0
 46 45  2  0  0  0  0
 47 48  2  0  0  0  0
 47 46  1  0  0  0  0
 48 49  1  0  0  0  0
 49 69  1  0  0  0  0
 49 44  2  0  0  0  0
 50 47  1  0  0  0  0
 51 50  1  0  0  0  0
 52 53  2  0  0  0  0
 52 51  1  0  0  0  0
 53 54  1  0  0  0  0
 54 85  1  0  0  0  0
 54 50  2  0  0  0  0
 55 52  1  0  0  0  0
 56 57  1  0  0  0  0
 56 55  2  0  0  0  0
 57 63  1  0  0  0  0
 57 53  1  0  0  0  0
 58 55  1  0  0  0  0
 59 60  2  0  0  0  0
 59 58  1  0  0  0  0
 60 56  1  0  0  0  0
 61 88  1  0  0  0  0
 61 57  1  0  0  0  0
 61 87  1  0  0  0  0
 62 61  1  0  0  0  0
 63 93  1  0  0  0  0
 63 64  1  0  0  0  0
 64 96  1  0  0  0  0
 65 98  1  0  0  0  0
 65 97  1  0  0  0  0
 66100  1  0  0  0  0
 66 65  1  0  0  0  0
 67102  1  0  0  0  0
 68105  1  0  0  0  0
 68 67  1  0  0  0  0
 68104  1  0  0  0  0
 70 46  1  0  0  0  0
 74  6  1  0  0  0  0
 75 48  1  0  0  0  0
 78  7  1  0  0  0  0
 79 16  1  0  0  0  0
 80 20  1  0  0  0  0
 82 32  1  0  0  0  0
 84 43  1  0  0  0  0
 86 60  1  0  0  0  0
 89 62  1  0  0  0  0
 90 62  1  0  0  0  0
 91 62  1  0  0  0  0
 92 63  1  0  0  0  0
 94 64  1  0  0  0  0
 95 64  1  0  0  0  0
 99 66  1  0  0  0  0
101 66  1  0  0  0  0
103 67  1  0  0  0  0
106 68  1  0  0  0  0
M  END
