Ph-DTDP-IC.sdf
  xtb     12222120483D
 energy: -218.275538161638 gnorm: 0.000641497539 xtb: 6.4.1 (unknown)
134146  0     0  0            999 V2000
   -1.0834   -1.7107    4.8700 C   0  0  0  0  0  0  0  0  0  0  0  0
   -1.5065   -2.3257    6.0568 C   0  0  0  0  0  0  0  0  0  0  0  0
   -1.9588   -1.9408   -2.7402 C   0  0  0  0  0  0  0  0  0  0  0  0
   -0.4778   -3.6954   -1.7195 C   0  0  0  0  0  0  0  0  0  0  0  0
    0.7536    2.8719    1.5646 C   0  0  0  0  0  0  0  0  0  0  0  0
    2.2197    1.1105    2.5975 C   0  0  0  0  0  0  0  0  0  0  0  0
    1.8814    3.5004    1.0524 C   0  0  0  0  0  0  0  0  0  0  0  0
    1.7703    4.7284    0.4284 C   0  0  0  0  0  0  0  0  0  0  0  0
    0.5388    5.3580    0.3053 C   0  0  0  0  0  0  0  0  0  0  0  0
   -0.5768    4.7438    0.8599 C   0  0  0  0  0  0  0  0  0  0  0  0
   -0.4749    3.5111    1.4769 C   0  0  0  0  0  0  0  0  0  0  0  0
    2.6174    1.6949    3.7941 C   0  0  0  0  0  0  0  0  0  0  0  0
    3.8627    1.4251    4.3258 C   0  0  0  0  0  0  0  0  0  0  0  0
    4.7423    0.5676    3.6762 C   0  0  0  0  0  0  0  0  0  0  0  0
    4.3393   -0.0109    2.4805 C   0  0  0  0  0  0  0  0  0  0  0  0
    3.0910    0.2515    1.9444 C   0  0  0  0  0  0  0  0  0  0  0  0
   -2.3702   -2.5520   -3.9189 C   0  0  0  0  0  0  0  0  0  0  0  0
   -3.6206   -2.2927   -4.4432 C   0  0  0  0  0  0  0  0  0  0  0  0
   -4.4918   -1.4184   -3.8045 C   0  0  0  0  0  0  0  0  0  0  0  0
   -4.0744   -0.8116   -2.6281 C   0  0  0  0  0  0  0  0  0  0  0  0
   -2.8208   -1.0637   -2.0992 C   0  0  0  0  0  0  0  0  0  0  0  0
    0.7540   -4.3287   -1.6382 C   0  0  0  0  0  0  0  0  0  0  0  0
    0.8641   -5.5632   -1.0258 C   0  0  0  0  0  0  0  0  0  0  0  0
   -0.2465   -6.1851   -0.4703 C   0  0  0  0  0  0  0  0  0  0  0  0
   -1.4813   -5.5607   -0.5862 C   0  0  0  0  0  0  0  0  0  0  0  0
   -1.6005   -4.3308   -1.2048 C   0  0  0  0  0  0  0  0  0  0  0  0
   -5.8722   -1.1797   -4.3444 C   0  0  0  0  0  0  0  0  0  0  0  0
   -0.1095   -7.4582    0.3120 C   0  0  0  0  0  0  0  0  0  0  0  0
    6.1166    0.3166    4.2259 C   0  0  0  0  0  0  0  0  0  0  0  0
    0.4090    6.6279   -0.4834 C   0  0  0  0  0  0  0  0  0  0  0  0
   -0.8289   -2.4931    3.3265 S   0  0  0  0  0  0  0  0  0  0  0  0
   -0.3693   -0.9973    2.6237 C   0  0  0  0  0  0  0  0  0  0  0  0
   -0.3856    0.0605    3.5355 C   0  0  0  0  0  0  0  0  0  0  0  0
   -0.8010   -0.3434    4.7961 C   0  0  0  0  0  0  0  0  0  0  0  0
   -0.0930   -0.7468    1.2471 C   0  0  0  0  0  0  0  0  0  0  0  0
    0.4446    0.5152    0.9321 C   0  0  0  0  0  0  0  0  0  0  0  0
    0.8276    1.4442    2.0717 C   0  0  0  0  0  0  0  0  0  0  0  0
   -0.0910    1.3257    3.1801 O   0  0  0  0  0  0  0  0  0  0  0  0
   -0.3980   -1.6614    0.2365 C   0  0  0  0  0  0  0  0  0  0  0  0
   -0.1759   -1.3393   -1.0835 C   0  0  0  0  0  0  0  0  0  0  0  0
    0.3626   -0.0776   -1.3979 C   0  0  0  0  0  0  0  0  0  0  0  0
    0.6675    0.8370   -0.3875 C   0  0  0  0  0  0  0  0  0  0  0  0
   -0.5617   -2.2669   -2.2233 C   0  0  0  0  0  0  0  0  0  0  0  0
    0.3473   -2.1426   -3.3397 O   0  0  0  0  0  0  0  0  0  0  0  0
    0.6429   -0.8766   -3.6913 C   0  0  0  0  0  0  0  0  0  0  0  0
    0.6361    0.1763   -2.7740 C   0  0  0  0  0  0  0  0  0  0  0  0
    1.0500   -0.4663   -4.9527 C   0  0  0  0  0  0  0  0  0  0  0  0
    1.3374    0.9005   -5.0204 C   0  0  0  0  0  0  0  0  0  0  0  0
    1.1005    1.6737   -3.4695 S   0  0  0  0  0  0  0  0  0  0  0  0
   -6.8524   -2.2039   -3.7684 C   0  0  0  0  0  0  0  0  0  0  0  0
    0.1829   -7.1338    1.7798 C   0  0  0  0  0  0  0  0  0  0  0  0
    0.0953    6.2980   -1.9458 C   0  0  0  0  0  0  0  0  0  0  0  0
    7.1040    1.3508    3.6810 C   0  0  0  0  0  0  0  0  0  0  0  0
   -1.8170   -3.6372    6.3178 C   0  0  0  0  0  0  0  0  0  0  0  0
   -1.7788   -4.7421    5.3520 C   0  0  0  0  0  0  0  0  0  0  0  0
   -2.2029   -5.9457    6.0888 C   0  0  0  0  0  0  0  0  0  0  0  0
   -2.4880   -5.6001    7.4212 C   0  0  0  0  0  0  0  0  0  0  0  0
   -2.2515   -4.1661    7.5968 C   0  0  0  0  0  0  0  0  0  0  0  0
   -2.3317   -7.2407    5.6277 C   0  0  0  0  0  0  0  0  0  0  0  0
   -2.7583   -8.2139    6.5206 C   0  0  0  0  0  0  0  0  0  0  0  0
   -3.0448   -7.8822    7.8366 C   0  0  0  0  0  0  0  0  0  0  0  0
   -2.9144   -6.5800    8.3035 C   0  0  0  0  0  0  0  0  0  0  0  0
   -1.4696   -4.6939    4.1736 O   0  0  0  0  0  0  0  0  0  0  0  0
   -2.4159   -3.4803    8.7721 C   0  0  0  0  0  0  0  0  0  0  0  0
   -2.1833   -2.1029    8.9702 C   0  0  0  0  0  0  0  0  0  0  0  0
   -2.8483   -4.0684    9.9799 C   0  0  0  0  0  0  0  0  0  0  0  0
   -2.0190   -0.9950    9.2270 N   0  0  0  0  0  0  0  0  0  0  0  0
   -3.1960   -4.4752   10.9956 N   0  0  0  0  0  0  0  0  0  0  0  0
    1.7454    1.5249   -6.2076 C   0  0  0  0  0  0  0  0  0  0  0  0
    2.0547    2.8385   -6.4608 C   0  0  0  0  0  0  0  0  0  0  0  0
    2.0434    3.9326   -5.4823 C   0  0  0  0  0  0  0  0  0  0  0  0
    2.4491    5.1441   -6.2163 C   0  0  0  0  0  0  0  0  0  0  0  0
    2.6958    4.8141   -7.5602 C   0  0  0  0  0  0  0  0  0  0  0  0
    2.4595    3.3810   -7.7441 C   0  0  0  0  0  0  0  0  0  0  0  0
    2.5896    6.4339   -5.7440 C   0  0  0  0  0  0  0  0  0  0  0  0
    2.9863    7.4184   -6.6382 C   0  0  0  0  0  0  0  0  0  0  0  0
    3.2313    7.1029   -7.9664 C   0  0  0  0  0  0  0  0  0  0  0  0
    3.0908    5.8057   -8.4440 C   0  0  0  0  0  0  0  0  0  0  0  0
    1.7646    3.8724   -4.2968 O   0  0  0  0  0  0  0  0  0  0  0  0
    2.6020    2.7067   -8.9288 C   0  0  0  0  0  0  0  0  0  0  0  0
    2.3745    1.3296   -9.1342 C   0  0  0  0  0  0  0  0  0  0  0  0
    3.0051    3.3081  -10.1402 C   0  0  0  0  0  0  0  0  0  0  0  0
    2.2125    0.2228   -9.3974 N   0  0  0  0  0  0  0  0  0  0  0  0
    3.3282    3.7263  -11.1594 N   0  0  0  0  0  0  0  0  0  0  0  0
   -1.5960   -1.6300    6.8824 H   0  0  0  0  0  0  0  0  0  0  0  0
    2.8455    3.0183    1.1223 H   0  0  0  0  0  0  0  0  0  0  0  0
    2.6523    5.1958    0.0151 H   0  0  0  0  0  0  0  0  0  0  0  0
   -1.5412    5.2264    0.7895 H   0  0  0  0  0  0  0  0  0  0  0  0
   -1.3519    3.0325    1.8858 H   0  0  0  0  0  0  0  0  0  0  0  0
    1.9380    2.3625    4.3033 H   0  0  0  0  0  0  0  0  0  0  0  0
    4.1569    1.8864    5.2575 H   0  0  0  0  0  0  0  0  0  0  0  0
    5.0089   -0.6809    1.9602 H   0  0  0  0  0  0  0  0  0  0  0  0
    2.8038   -0.2131    1.0125 H   0  0  0  0  0  0  0  0  0  0  0  0
   -1.6972   -3.2326   -4.4192 H   0  0  0  0  0  0  0  0  0  0  0  0
   -3.9260   -2.7756   -5.3603 H   0  0  0  0  0  0  0  0  0  0  0  0
   -4.7368   -0.1275   -2.1170 H   0  0  0  0  0  0  0  0  0  0  0  0
   -2.5226   -0.5771   -1.1820 H   0  0  0  0  0  0  0  0  0  0  0  0
    1.6272   -3.8444   -2.0485 H   0  0  0  0  0  0  0  0  0  0  0  0
    1.8311   -6.0411   -0.9603 H   0  0  0  0  0  0  0  0  0  0  0  0
   -2.3596   -6.0341   -0.1718 H   0  0  0  0  0  0  0  0  0  0  0  0
   -2.5671   -3.8531   -1.2689 H   0  0  0  0  0  0  0  0  0  0  0  0
   -6.2053   -0.1743   -4.0797 H   0  0  0  0  0  0  0  0  0  0  0  0
   -5.8639   -1.2626   -5.4329 H   0  0  0  0  0  0  0  0  0  0  0  0
   -1.0336   -8.0359    0.2462 H   0  0  0  0  0  0  0  0  0  0  0  0
    0.7032   -8.0642   -0.0936 H   0  0  0  0  0  0  0  0  0  0  0  0
    6.0967    0.3777    5.3157 H   0  0  0  0  0  0  0  0  0  0  0  0
    6.4515   -0.6838    3.9448 H   0  0  0  0  0  0  0  0  0  0  0  0
    1.3412    7.1940   -0.4319 H   0  0  0  0  0  0  0  0  0  0  0  0
   -0.3912    7.2468   -0.0721 H   0  0  0  0  0  0  0  0  0  0  0  0
   -0.9020    0.3185    5.6368 H   0  0  0  0  0  0  0  0  0  0  0  0
   -0.8237   -2.6131    0.5149 H   0  0  0  0  0  0  0  0  0  0  0  0
    1.0929    1.7887   -0.6661 H   0  0  0  0  0  0  0  0  0  0  0  0
    1.1409   -1.1229   -5.7987 H   0  0  0  0  0  0  0  0  0  0  0  0
   -7.8537   -2.0323   -4.1561 H   0  0  0  0  0  0  0  0  0  0  0  0
   -6.5447   -3.2128   -4.0341 H   0  0  0  0  0  0  0  0  0  0  0  0
   -6.8821   -2.1303   -2.6835 H   0  0  0  0  0  0  0  0  0  0  0  0
    0.2482   -8.0483    2.3655 H   0  0  0  0  0  0  0  0  0  0  0  0
   -0.5985   -6.5019    2.1965 H   0  0  0  0  0  0  0  0  0  0  0  0
    1.1262   -6.5994    1.8670 H   0  0  0  0  0  0  0  0  0  0  0  0
    0.8627    5.6520   -2.3670 H   0  0  0  0  0  0  0  0  0  0  0  0
   -0.8569    5.7772   -2.0185 H   0  0  0  0  0  0  0  0  0  0  0  0
    0.0364    7.2096   -2.5369 H   0  0  0  0  0  0  0  0  0  0  0  0
    7.1477    1.2967    2.5954 H   0  0  0  0  0  0  0  0  0  0  0  0
    6.7929    2.3548    3.9608 H   0  0  0  0  0  0  0  0  0  0  0  0
    8.1003    1.1721    4.0783 H   0  0  0  0  0  0  0  0  0  0  0  0
   -2.1024   -7.4744    4.5993 H   0  0  0  0  0  0  0  0  0  0  0  0
   -2.8690   -9.2358    6.1905 H   0  0  0  0  0  0  0  0  0  0  0  0
   -3.3772   -8.6507    8.5181 H   0  0  0  0  0  0  0  0  0  0  0  0
   -3.1448   -6.3550    9.3316 H   0  0  0  0  0  0  0  0  0  0  0  0
    1.8190    0.8372   -7.0414 H   0  0  0  0  0  0  0  0  0  0  0  0
    2.3920    6.6549   -4.7063 H   0  0  0  0  0  0  0  0  0  0  0  0
    3.1051    8.4367   -6.2997 H   0  0  0  0  0  0  0  0  0  0  0  0
    3.5386    7.8806   -8.6494 H   0  0  0  0  0  0  0  0  0  0  0  0
    3.2887    5.5935   -9.4816 H   0  0  0  0  0  0  0  0  0  0  0  0
  1  2  1  0  0  0  0
  5  7  2  0  0  0  0
  7  8  1  0  0  0  0
  8  9  2  0  0  0  0
  9 10  1  0  0  0  0
 10 11  2  0  0  0  0
 11  5  1  0  0  0  0
  6 12  2  0  0  0  0
 12 13  1  0  0  0  0
 13 14  2  0  0  0  0
 14 15  1  0  0  0  0
 15 16  2  0  0  0  0
 16  6  1  0  0  0  0
  3 17  2  0  0  0  0
 17 18  1  0  0  0  0
 18 19  2  0  0  0  0
 19 20  1  0  0  0  0
 20 21  2  0  0  0  0
 21  3  1  0  0  0  0
  4 22  2  0  0  0  0
 22 23  1  0  0  0  0
 23 24  2  0  0  0  0
 24 25  1  0  0  0  0
 25 26  2  0  0  0  0
 26  4  1  0  0  0  0
 19 27  1  0  0  0  0
 24 28  1  0  0  0  0
 14 29  1  0  0  0  0
  9 30  1  0  0  0  0
  1 31  1  0  0  0  0
 31 32  1  0  0  0  0
 32 33  2  0  0  0  0
 33 34  1  0  0  0  0
 34  1  2  0  0  0  0
 32 35  1  0  0  0  0
 35 36  2  0  0  0  0
 36 37  1  0  0  0  0
 37 38  1  0  0  0  0
 38 33  1  0  0  0  0
 35 39  1  0  0  0  0
 39 40  2  0  0  0  0
 40 41  1  0  0  0  0
 41 42  2  0  0  0  0
 42 36  1  0  0  0  0
 40 43  1  0  0  0  0
 43 44  1  0  0  0  0
 44 45  1  0  0  0  0
 45 46  2  0  0  0  0
 46 41  1  0  0  0  0
 45 47  1  0  0  0  0
 47 48  2  0  0  0  0
 48 49  1  0  0  0  0
 49 46  1  0  0  0  0
 37  5  1  0  0  0  0
  6 37  1  0  0  0  0
 43  4  1  0  0  0  0
 43  3  1  0  0  0  0
 27 50  1  0  0  0  0
 28 51  1  0  0  0  0
 30 52  1  0  0  0  0
 29 53  1  0  0  0  0
  2 54  2  0  0  0  0
 54 55  1  0  0  0  0
 55 56  1  0  0  0  0
 56 57  2  0  0  0  0
 57 58  1  0  0  0  0
 58 54  1  0  0  0  0
 56 59  1  0  0  0  0
 59 60  2  0  0  0  0
 60 61  1  0  0  0  0
 61 62  2  0  0  0  0
 62 57  1  0  0  0  0
 55 63  2  0  0  0  0
 58 64  2  0  0  0  0
 64 65  1  0  0  0  0
 64 66  1  0  0  0  0
 65 67  3  0  0  0  0
 66 68  3  0  0  0  0
 69 70  2  0  0  0  0
 70 71  1  0  0  0  0
 71 72  1  0  0  0  0
 72 73  2  0  0  0  0
 73 74  1  0  0  0  0
 74 70  1  0  0  0  0
 72 75  1  0  0  0  0
 75 76  2  0  0  0  0
 76 77  1  0  0  0  0
 77 78  2  0  0  0  0
 78 73  1  0  0  0  0
 71 79  2  0  0  0  0
 74 80  2  0  0  0  0
 80 81  1  0  0  0  0
 80 82  1  0  0  0  0
 81 83  3  0  0  0  0
 82 84  3  0  0  0  0
 48 69  1  0  0  0  0
  2 85  1  0  0  0  0
  7 86  1  0  0  0  0
  8 87  1  0  0  0  0
 10 88  1  0  0  0  0
 11 89  1  0  0  0  0
 12 90  1  0  0  0  0
 13 91  1  0  0  0  0
 15 92  1  0  0  0  0
 16 93  1  0  0  0  0
 17 94  1  0  0  0  0
 18 95  1  0  0  0  0
 20 96  1  0  0  0  0
 21 97  1  0  0  0  0
 22 98  1  0  0  0  0
 23 99  1  0  0  0  0
 25100  1  0  0  0  0
 26101  1  0  0  0  0
 27102  1  0  0  0  0
 27103  1  0  0  0  0
 28104  1  0  0  0  0
 28105  1  0  0  0  0
 29106  1  0  0  0  0
 29107  1  0  0  0  0
 30108  1  0  0  0  0
 30109  1  0  0  0  0
 34110  1  0  0  0  0
 39111  1  0  0  0  0
 42112  1  0  0  0  0
 47113  1  0  0  0  0
 50114  1  0  0  0  0
 50115  1  0  0  0  0
 50116  1  0  0  0  0
 51117  1  0  0  0  0
 51118  1  0  0  0  0
 51119  1  0  0  0  0
 52120  1  0  0  0  0
 52121  1  0  0  0  0
 52122  1  0  0  0  0
 53123  1  0  0  0  0
 53124  1  0  0  0  0
 53125  1  0  0  0  0
 59126  1  0  0  0  0
 60127  1  0  0  0  0
 61128  1  0  0  0  0
 62129  1  0  0  0  0
 69130  1  0  0  0  0
 75131  1  0  0  0  0
 76132  1  0  0  0  0
 77133  1  0  0  0  0
 78134  1  0  0  0  0
M  END
