PIDIC2T2F.sdf
  xtb     12222118063D
 energy: -368.355712781043 gnorm: 0.000693787360 xtb: 6.4.1 (unknown)
210231  0     0  0            999 V2000
    5.1332    2.4783   -2.6542 C   0  0  0  0  0  0  0  0  0  0  0  0
    4.5788    1.5857   -3.6011 C   0  0  0  0  0  0  0  0  0  0  0  0
    5.0544    0.3007   -3.6970 C   0  0  0  0  0  0  0  0  0  0  0  0
    6.0800   -0.0719   -2.8305 C   0  0  0  0  0  0  0  0  0  0  0  0
    6.6574    0.8248   -1.8951 C   0  0  0  0  0  0  0  0  0  0  0  0
    6.1856    2.1165   -1.8136 C   0  0  0  0  0  0  0  0  0  0  0  0
    6.7070   -1.3415   -2.6645 C   0  0  0  0  0  0  0  0  0  0  0  0
    7.6612   -1.2682   -1.6501 C   0  0  0  0  0  0  0  0  0  0  0  0
    7.7200    0.1231   -1.0637 C   0  0  0  0  0  0  0  0  0  0  0  0
    4.3585    3.6761   -2.7166 C   0  0  0  0  0  0  0  0  0  0  0  0
    3.3507    3.5624   -3.6748 C   0  0  0  0  0  0  0  0  0  0  0  0
    3.4140    2.2171   -4.3437 C   0  0  0  0  0  0  0  0  0  0  0  0
    6.5544   -2.8934   -3.3562 S   0  0  0  0  0  0  0  0  0  0  0  0
    7.7975   -3.4925   -2.2713 C   0  0  0  0  0  0  0  0  0  0  0  0
    8.2782   -2.4781   -1.4275 C   0  0  0  0  0  0  0  0  0  0  0  0
    4.3004    5.1586   -1.8731 S   0  0  0  0  0  0  0  0  0  0  0  0
    2.8413    5.6180   -2.7615 C   0  0  0  0  0  0  0  0  0  0  0  0
    2.5195    4.6663   -3.7249 C   0  0  0  0  0  0  0  0  0  0  0  0
    9.1516    0.6796   -1.2538 C   0  0  0  0  0  0  0  0  0  0  0  0
    7.3103   -0.0175    0.4207 C   0  0  0  0  0  0  0  0  0  0  0  0
    7.2085    1.2615    1.2383 C   0  0  0  0  0  0  0  0  0  0  0  0
    9.2893    2.1878   -1.4231 C   0  0  0  0  0  0  0  0  0  0  0  0
    2.1555    1.3725   -4.0470 C   0  0  0  0  0  0  0  0  0  0  0  0
    3.6849    2.3311   -5.8522 C   0  0  0  0  0  0  0  0  0  0  0  0
    0.8414    1.9108   -4.5963 C   0  0  0  0  0  0  0  0  0  0  0  0
    4.9937    3.0498   -6.1581 C   0  0  0  0  0  0  0  0  0  0  0  0
    2.1456    6.7450   -2.2888 C   0  0  0  0  0  0  0  0  0  0  0  0
    8.2822   -4.8039   -2.1955 C   0  0  0  0  0  0  0  0  0  0  0  0
    7.9411   -5.9289   -2.9047 C   0  0  0  0  0  0  0  0  0  0  0  0
    0.8002    7.0082   -2.3530 C   0  0  0  0  0  0  0  0  0  0  0  0
   -0.2583    6.1349   -2.9047 C   0  0  0  0  0  0  0  0  0  0  0  0
   -1.4819    6.5039   -2.1762 C   0  0  0  0  0  0  0  0  0  0  0  0
   -1.2382    7.6126   -1.3490 C   0  0  0  0  0  0  0  0  0  0  0  0
    0.1443    8.0418   -1.5694 C   0  0  0  0  0  0  0  0  0  0  0  0
    6.9351   -6.0038   -3.9710 C   0  0  0  0  0  0  0  0  0  0  0  0
    6.9098   -7.4122   -4.4095 C   0  0  0  0  0  0  0  0  0  0  0  0
    7.8460   -8.1492   -3.6638 C   0  0  0  0  0  0  0  0  0  0  0  0
    8.5092   -7.2492   -2.7186 C   0  0  0  0  0  0  0  0  0  0  0  0
   -2.6903    5.8350   -2.1572 C   0  0  0  0  0  0  0  0  0  0  0  0
   -3.6248    6.2177   -1.2163 C   0  0  0  0  0  0  0  0  0  0  0  0
   -3.3686    7.2655   -0.3222 C   0  0  0  0  0  0  0  0  0  0  0  0
   -2.1898    8.0156   -0.4289 C   0  0  0  0  0  0  0  0  0  0  0  0
    6.1301   -8.0005   -5.3852 C   0  0  0  0  0  0  0  0  0  0  0  0
    6.2903   -9.3589   -5.6210 C   0  0  0  0  0  0  0  0  0  0  0  0
    7.2117  -10.0944   -4.8904 C   0  0  0  0  0  0  0  0  0  0  0  0
    7.9976   -9.5049   -3.9081 C   0  0  0  0  0  0  0  0  0  0  0  0
   -0.1802    5.2579   -3.7421 O   0  0  0  0  0  0  0  0  0  0  0  0
    6.2544   -5.0986   -4.4194 O   0  0  0  0  0  0  0  0  0  0  0  0
    9.4878   -7.6219   -1.8332 C   0  0  0  0  0  0  0  0  0  0  0  0
    0.6900    9.2153   -1.1273 C   0  0  0  0  0  0  0  0  0  0  0  0
   -0.0429   10.1978   -0.4280 C   0  0  0  0  0  0  0  0  0  0  0  0
    2.0249    9.6147   -1.3454 C   0  0  0  0  0  0  0  0  0  0  0  0
   10.1496   -6.7738   -0.9209 C   0  0  0  0  0  0  0  0  0  0  0  0
    9.9845   -8.9363   -1.7065 C   0  0  0  0  0  0  0  0  0  0  0  0
   -0.5928   11.0365    0.1296 N   0  0  0  0  0  0  0  0  0  0  0  0
    3.1001    9.9964   -1.4738 N   0  0  0  0  0  0  0  0  0  0  0  0
   10.4368   -9.9794   -1.5445 N   0  0  0  0  0  0  0  0  0  0  0  0
   10.7418   -6.1609   -0.1499 N   0  0  0  0  0  0  0  0  0  0  0  0
   -4.2736    7.4464    0.7954 C   0  0  0  0  0  0  0  0  0  0  0  0
   -4.6022    8.5417    1.5451 C   0  0  0  0  0  0  0  0  0  0  0  0
   -5.4757    8.2247    2.6024 C   0  0  0  0  0  0  0  0  0  0  0  0
   -5.8022    6.8934    2.7054 C   0  0  0  0  0  0  0  0  0  0  0  0
   -5.0324    6.0147    1.4260 S   0  0  0  0  0  0  0  0  0  0  0  0
   -6.6049    6.1543    3.6383 C   0  0  0  0  0  0  0  0  0  0  0  0
   -7.8127    6.4288    4.2343 C   0  0  0  0  0  0  0  0  0  0  0  0
   -8.3658    5.3637    4.9715 C   0  0  0  0  0  0  0  0  0  0  0  0
   -7.5578    4.2613    4.9774 C   0  0  0  0  0  0  0  0  0  0  0  0
   -6.1066    4.5469    4.0609 S   0  0  0  0  0  0  0  0  0  0  0  0
   -3.6170   -5.2518    0.8532 C   0  0  0  0  0  0  0  0  0  0  0  0
   -3.4912   -5.4641    2.2466 C   0  0  0  0  0  0  0  0  0  0  0  0
   -4.6032   -5.4073    3.0527 C   0  0  0  0  0  0  0  0  0  0  0  0
   -5.8264   -5.1514    2.4351 C   0  0  0  0  0  0  0  0  0  0  0  0
   -5.9761   -5.1321    1.0247 C   0  0  0  0  0  0  0  0  0  0  0  0
   -4.8594   -5.1773    0.2238 C   0  0  0  0  0  0  0  0  0  0  0  0
   -7.0611   -4.6984    2.9938 C   0  0  0  0  0  0  0  0  0  0  0  0
   -8.0006   -4.4969    1.9819 C   0  0  0  0  0  0  0  0  0  0  0  0
   -7.4313   -4.8989    0.6422 C   0  0  0  0  0  0  0  0  0  0  0  0
   -2.3069   -4.9662    0.3570 C   0  0  0  0  0  0  0  0  0  0  0  0
   -1.3636   -5.0957    1.3804 C   0  0  0  0  0  0  0  0  0  0  0  0
   -2.0304   -5.5578    2.6491 C   0  0  0  0  0  0  0  0  0  0  0  0
   -7.5096   -3.9933    4.4838 S   0  0  0  0  0  0  0  0  0  0  0  0
   -8.9883   -3.3903    3.7542 C   0  0  0  0  0  0  0  0  0  0  0  0
   -9.1215   -3.8284    2.4294 C   0  0  0  0  0  0  0  0  0  0  0  0
   -1.7055   -4.1383   -1.0094 S   0  0  0  0  0  0  0  0  0  0  0  0
   -0.1570   -3.9273   -0.2054 C   0  0  0  0  0  0  0  0  0  0  0  0
   -0.1307   -4.5862    1.0335 C   0  0  0  0  0  0  0  0  0  0  0  0
   -8.0723   -6.2027    0.1272 C   0  0  0  0  0  0  0  0  0  0  0  0
   -7.6302   -3.7315   -0.3508 C   0  0  0  0  0  0  0  0  0  0  0  0
   -7.4415   -4.0483   -1.8303 C   0  0  0  0  0  0  0  0  0  0  0  0
   -8.0469   -7.3292    1.1534 C   0  0  0  0  0  0  0  0  0  0  0  0
   -1.6548   -7.0103    3.0064 C   0  0  0  0  0  0  0  0  0  0  0  0
   -1.6855   -4.6336    3.8297 C   0  0  0  0  0  0  0  0  0  0  0  0
   -1.9405   -7.9984    1.8828 C   0  0  0  0  0  0  0  0  0  0  0  0
   -2.0586   -3.1760    3.5851 C   0  0  0  0  0  0  0  0  0  0  0  0
    0.8165   -2.9627   -0.5229 C   0  0  0  0  0  0  0  0  0  0  0  0
   -9.8012   -2.3560    4.2579 C   0  0  0  0  0  0  0  0  0  0  0  0
   -9.4497   -1.3629    5.1328 C   0  0  0  0  0  0  0  0  0  0  0  0
    0.6250   -1.7649   -1.1643 C   0  0  0  0  0  0  0  0  0  0  0  0
   -0.6434   -1.3193   -1.7653 C   0  0  0  0  0  0  0  0  0  0  0  0
   -0.6813    0.1379   -1.5558 C   0  0  0  0  0  0  0  0  0  0  0  0
    0.5507    0.5626   -1.0245 C   0  0  0  0  0  0  0  0  0  0  0  0
    1.4470   -0.5927   -0.9404 C   0  0  0  0  0  0  0  0  0  0  0  0
   -8.1493   -1.2500    5.8134 C   0  0  0  0  0  0  0  0  0  0  0  0
   -7.9037    0.1966    5.9372 C   0  0  0  0  0  0  0  0  0  0  0  0
   -9.0490    0.9040    5.5258 C   0  0  0  0  0  0  0  0  0  0  0  0
  -10.0999   -0.0651    5.2086 C   0  0  0  0  0  0  0  0  0  0  0  0
   -1.7498    1.0065   -1.6787 C   0  0  0  0  0  0  0  0  0  0  0  0
   -1.6151    2.2905   -1.1816 C   0  0  0  0  0  0  0  0  0  0  0  0
   -0.4149    2.7111   -0.5992 C   0  0  0  0  0  0  0  0  0  0  0  0
    0.6962    1.8587   -0.5727 C   0  0  0  0  0  0  0  0  0  0  0  0
   -6.7165    0.8477    6.2138 C   0  0  0  0  0  0  0  0  0  0  0  0
   -6.6467    2.2060    5.9653 C   0  0  0  0  0  0  0  0  0  0  0  0
   -7.7531    2.9123    5.4805 C   0  0  0  0  0  0  0  0  0  0  0  0
   -8.9874    2.2698    5.3196 C   0  0  0  0  0  0  0  0  0  0  0  0
   -1.5027   -2.0120   -2.2765 O   0  0  0  0  0  0  0  0  0  0  0  0
   -7.4071   -2.1549    6.1448 O   0  0  0  0  0  0  0  0  0  0  0  0
  -11.4240    0.2097    5.0161 C   0  0  0  0  0  0  0  0  0  0  0  0
    2.7868   -0.5495   -0.6647 C   0  0  0  0  0  0  0  0  0  0  0  0
    3.6400   -1.6717   -0.6648 C   0  0  0  0  0  0  0  0  0  0  0  0
    3.4689    0.6423   -0.3548 C   0  0  0  0  0  0  0  0  0  0  0  0
  -12.3911   -0.7773    4.7290 C   0  0  0  0  0  0  0  0  0  0  0  0
  -11.9662    1.5070    5.1295 C   0  0  0  0  0  0  0  0  0  0  0  0
    4.3923   -2.5389   -0.6588 N   0  0  0  0  0  0  0  0  0  0  0  0
    4.0536    1.5868   -0.0637 N   0  0  0  0  0  0  0  0  0  0  0  0
  -12.4395    2.5488    5.2146 N   0  0  0  0  0  0  0  0  0  0  0  0
  -13.2072   -1.5492    4.4947 N   0  0  0  0  0  0  0  0  0  0  0  0
   -0.3417    3.9913    0.0685 C   0  0  0  0  0  0  0  0  0  0  0  0
   -1.3425    4.6320    0.7517 C   0  0  0  0  0  0  0  0  0  0  0  0
    0.4278    6.1133    1.1576 C   0  0  0  0  0  0  0  0  0  0  0  0
    1.1550    4.8579    0.2029 S   0  0  0  0  0  0  0  0  0  0  0  0
    1.1958    7.2544    1.5501 C   0  0  0  0  0  0  0  0  0  0  0  0
    0.7988    8.4505    2.1083 C   0  0  0  0  0  0  0  0  0  0  0  0
    1.8375    9.3810    2.3022 C   0  0  0  0  0  0  0  0  0  0  0  0
    3.0354    8.8926    1.8898 C   0  0  0  0  0  0  0  0  0  0  0  0
    2.9136    7.2985    1.2687 S   0  0  0  0  0  0  0  0  0  0  0  0
   -5.9187    9.1449    3.4628 F   0  0  0  0  0  0  0  0  0  0  0  0
   -8.4515    7.5913    4.0751 F   0  0  0  0  0  0  0  0  0  0  0  0
   -0.8988    5.8054    1.3743 C   0  0  0  0  0  0  0  0  0  0  0  0
   -1.7192    6.5304    2.1433 F   0  0  0  0  0  0  0  0  0  0  0  0
   -0.4672    8.7414    2.4190 F   0  0  0  0  0  0  0  0  0  0  0  0
    4.6527   -0.4165   -4.3967 H   0  0  0  0  0  0  0  0  0  0  0  0
    6.5752    2.8379   -1.1160 H   0  0  0  0  0  0  0  0  0  0  0  0
    9.0442   -2.6672   -0.6963 H   0  0  0  0  0  0  0  0  0  0  0  0
    1.7147    4.8055   -4.4191 H   0  0  0  0  0  0  0  0  0  0  0  0
    9.7515    0.3544   -0.4015 H   0  0  0  0  0  0  0  0  0  0  0  0
    9.5735    0.2090   -2.1461 H   0  0  0  0  0  0  0  0  0  0  0  0
    6.3425   -0.5264    0.4458 H   0  0  0  0  0  0  0  0  0  0  0  0
    8.0395   -0.6821    0.8907 H   0  0  0  0  0  0  0  0  0  0  0  0
    8.1462    1.8091    1.2367 H   0  0  0  0  0  0  0  0  0  0  0  0
    6.4113    1.8974    0.8674 H   0  0  0  0  0  0  0  0  0  0  0  0
    6.9746    1.0017    2.2691 H   0  0  0  0  0  0  0  0  0  0  0  0
    8.9014    2.7310   -0.5675 H   0  0  0  0  0  0  0  0  0  0  0  0
    8.7702    2.5262   -2.3162 H   0  0  0  0  0  0  0  0  0  0  0  0
   10.3436    2.4357   -1.5302 H   0  0  0  0  0  0  0  0  0  0  0  0
    2.0719    1.2881   -2.9608 H   0  0  0  0  0  0  0  0  0  0  0  0
    2.3246    0.3696   -4.4464 H   0  0  0  0  0  0  0  0  0  0  0  0
    2.8619    2.8769   -6.3148 H   0  0  0  0  0  0  0  0  0  0  0  0
    3.7124    1.3265   -6.2787 H   0  0  0  0  0  0  0  0  0  0  0  0
    0.5939    2.8749   -4.1629 H   0  0  0  0  0  0  0  0  0  0  0  0
    0.0411    1.2162   -4.3472 H   0  0  0  0  0  0  0  0  0  0  0  0
    0.8755    2.0080   -5.6775 H   0  0  0  0  0  0  0  0  0  0  0  0
    4.9833    4.0583   -5.7506 H   0  0  0  0  0  0  0  0  0  0  0  0
    5.8384    2.5147   -5.7295 H   0  0  0  0  0  0  0  0  0  0  0  0
    5.1391    3.1169   -7.2335 H   0  0  0  0  0  0  0  0  0  0  0  0
    2.7356    7.3929   -1.6501 H   0  0  0  0  0  0  0  0  0  0  0  0
    9.0473   -4.9246   -1.4379 H   0  0  0  0  0  0  0  0  0  0  0  0
   -2.8648    5.0139   -2.8353 H   0  0  0  0  0  0  0  0  0  0  0  0
   -4.5617    5.6856   -1.1383 H   0  0  0  0  0  0  0  0  0  0  0  0
   -2.0109    8.8226    0.2626 H   0  0  0  0  0  0  0  0  0  0  0  0
    5.4201   -7.4073   -5.9409 H   0  0  0  0  0  0  0  0  0  0  0  0
    5.6950   -9.8476   -6.3777 H   0  0  0  0  0  0  0  0  0  0  0  0
    7.3246  -11.1502   -5.0865 H   0  0  0  0  0  0  0  0  0  0  0  0
    8.7049  -10.1036   -3.3583 H   0  0  0  0  0  0  0  0  0  0  0  0
   -4.2497    9.5392    1.3585 H   0  0  0  0  0  0  0  0  0  0  0  0
   -9.3147    5.4295    5.4714 H   0  0  0  0  0  0  0  0  0  0  0  0
   -4.5411   -5.4764    4.1277 H   0  0  0  0  0  0  0  0  0  0  0  0
   -4.9072   -5.0851   -0.8487 H   0  0  0  0  0  0  0  0  0  0  0  0
   -9.9745   -3.5627    1.8303 H   0  0  0  0  0  0  0  0  0  0  0  0
    0.7381   -4.5684    1.6674 H   0  0  0  0  0  0  0  0  0  0  0  0
   -7.5357   -6.5252   -0.7656 H   0  0  0  0  0  0  0  0  0  0  0  0
   -9.1070   -5.9897   -0.1488 H   0  0  0  0  0  0  0  0  0  0  0  0
   -8.6471   -3.3557   -0.2192 H   0  0  0  0  0  0  0  0  0  0  0  0
   -6.9453   -2.9295   -0.0639 H   0  0  0  0  0  0  0  0  0  0  0  0
   -6.4557   -4.4496   -2.0408 H   0  0  0  0  0  0  0  0  0  0  0  0
   -8.1868   -4.7574   -2.1794 H   0  0  0  0  0  0  0  0  0  0  0  0
   -7.5568   -3.1312   -2.4042 H   0  0  0  0  0  0  0  0  0  0  0  0
   -7.0254   -7.5671    1.4418 H   0  0  0  0  0  0  0  0  0  0  0  0
   -8.5004   -8.2225    0.7307 H   0  0  0  0  0  0  0  0  0  0  0  0
   -8.6014   -7.0549    2.0477 H   0  0  0  0  0  0  0  0  0  0  0  0
   -0.5914   -7.0388    3.2527 H   0  0  0  0  0  0  0  0  0  0  0  0
   -2.2153   -7.3012    3.8970 H   0  0  0  0  0  0  0  0  0  0  0  0
   -2.2058   -4.9938    4.7188 H   0  0  0  0  0  0  0  0  0  0  0  0
   -0.6131   -4.7056    4.0218 H   0  0  0  0  0  0  0  0  0  0  0  0
   -2.9998   -8.0078    1.6360 H   0  0  0  0  0  0  0  0  0  0  0  0
   -1.6503   -9.0005    2.1885 H   0  0  0  0  0  0  0  0  0  0  0  0
   -1.3811   -7.7378    0.9874 H   0  0  0  0  0  0  0  0  0  0  0  0
   -1.5374   -2.7815    2.7152 H   0  0  0  0  0  0  0  0  0  0  0  0
   -3.1286   -3.0735    3.4190 H   0  0  0  0  0  0  0  0  0  0  0  0
   -1.7866   -2.5738    4.4485 H   0  0  0  0  0  0  0  0  0  0  0  0
    1.7490   -3.0811    0.0207 H   0  0  0  0  0  0  0  0  0  0  0  0
  -10.7265   -2.2197    3.7077 H   0  0  0  0  0  0  0  0  0  0  0  0
   -2.6769    0.6666   -2.1139 H   0  0  0  0  0  0  0  0  0  0  0  0
   -2.4448    2.9782   -1.2243 H   0  0  0  0  0  0  0  0  0  0  0  0
    1.6176    2.2097   -0.1350 H   0  0  0  0  0  0  0  0  0  0  0  0
   -5.8572    0.2919    6.5554 H   0  0  0  0  0  0  0  0  0  0  0  0
   -5.7148    2.7327    6.1075 H   0  0  0  0  0  0  0  0  0  0  0  0
   -9.8353    2.8260    4.9527 H   0  0  0  0  0  0  0  0  0  0  0  0
   -2.3499    4.2713    0.8482 H   0  0  0  0  0  0  0  0  0  0  0  0
    1.6748   10.3585    2.7155 H   0  0  0  0  0  0  0  0  0  0  0  0
    3.9898    9.3780    1.9055 H   0  0  0  0  0  0  0  0  0  0  0  0
  1  2  1  0  0  0  0
  2  3  2  0  0  0  0
  3  4  1  0  0  0  0
  4  5  2  0  0  0  0
  5  6  1  0  0  0  0
  6  1  2  0  0  0  0
  4  7  1  0  0  0  0
  7  8  2  0  0  0  0
  8  9  1  0  0  0  0
  9  5  1  0  0  0  0
  1 10  1  0  0  0  0
 10 11  2  0  0  0  0
 11 12  1  0  0  0  0
 12  2  1  0  0  0  0
  7 13  1  0  0  0  0
 13 14  1  0  0  0  0
 14 15  2  0  0  0  0
 15  8  1  0  0  0  0
 10 16  1  0  0  0  0
 16 17  1  0  0  0  0
 17 18  2  0  0  0  0
 18 11  1  0  0  0  0
  9 19  1  0  0  0  0
  9 20  1  0  0  0  0
 20 21  1  0  0  0  0
 19 22  1  0  0  0  0
 12 23  1  0  0  0  0
 12 24  1  0  0  0  0
 23 25  1  0  0  0  0
 24 26  1  0  0  0  0
 17 27  1  0  0  0  0
 14 28  1  0  0  0  0
 28 29  2  0  0  0  0
 27 30  2  0  0  0  0
 30 31  1  0  0  0  0
 31 32  1  0  0  0  0
 32 33  2  0  0  0  0
 33 34  1  0  0  0  0
 34 30  1  0  0  0  0
 29 35  1  0  0  0  0
 35 36  1  0  0  0  0
 36 37  2  0  0  0  0
 37 38  1  0  0  0  0
 38 29  1  0  0  0  0
 32 39  1  0  0  0  0
 39 40  2  0  0  0  0
 40 41  1  0  0  0  0
 41 42  2  0  0  0  0
 42 33  1  0  0  0  0
 36 43  1  0  0  0  0
 43 44  2  0  0  0  0
 44 45  1  0  0  0  0
 45 46  2  0  0  0  0
 46 37  1  0  0  0  0
 31 47  2  0  0  0  0
 35 48  2  0  0  0  0
 38 49  2  0  0  0  0
 34 50  2  0  0  0  0
 50 51  1  0  0  0  0
 50 52  1  0  0  0  0
 49 53  1  0  0  0  0
 49 54  1  0  0  0  0
 51 55  3  0  0  0  0
 52 56  3  0  0  0  0
 54 57  3  0  0  0  0
 53 58  3  0  0  0  0
 41 59  1  0  0  0  0
 59 60  2  0  0  0  0
 60 61  1  0  0  0  0
 61 62  2  0  0  0  0
 62 63  1  0  0  0  0
 63 59  1  0  0  0  0
 62 64  1  0  0  0  0
 64 65  2  0  0  0  0
 65 66  1  0  0  0  0
 66 67  2  0  0  0  0
 67 68  1  0  0  0  0
 68 64  1  0  0  0  0
 69 70  1  0  0  0  0
 70 71  2  0  0  0  0
 71 72  1  0  0  0  0
 72 73  2  0  0  0  0
 73 74  1  0  0  0  0
 74 69  2  0  0  0  0
 72 75  1  0  0  0  0
 75 76  2  0  0  0  0
 76 77  1  0  0  0  0
 77 73  1  0  0  0  0
 69 78  1  0  0  0  0
 78 79  2  0  0  0  0
 79 80  1  0  0  0  0
 80 70  1  0  0  0  0
 75 81  1  0  0  0  0
 81 82  1  0  0  0  0
 82 83  2  0  0  0  0
 83 76  1  0  0  0  0
 78 84  1  0  0  0  0
 84 85  1  0  0  0  0
 85 86  2  0  0  0  0
 86 79  1  0  0  0  0
 77 87  1  0  0  0  0
 77 88  1  0  0  0  0
 88 89  1  0  0  0  0
 87 90  1  0  0  0  0
 80 91  1  0  0  0  0
 80 92  1  0  0  0  0
 91 93  1  0  0  0  0
 92 94  1  0  0  0  0
 85 95  1  0  0  0  0
 82 96  1  0  0  0  0
 96 97  2  0  0  0  0
 95 98  2  0  0  0  0
 98 99  1  0  0  0  0
 99100  1  0  0  0  0
100101  2  0  0  0  0
101102  1  0  0  0  0
102 98  1  0  0  0  0
 97103  1  0  0  0  0
103104  1  0  0  0  0
104105  2  0  0  0  0
105106  1  0  0  0  0
106 97  1  0  0  0  0
100107  1  0  0  0  0
107108  2  0  0  0  0
108109  1  0  0  0  0
109110  2  0  0  0  0
110101  1  0  0  0  0
104111  1  0  0  0  0
111112  2  0  0  0  0
112113  1  0  0  0  0
113114  2  0  0  0  0
114105  1  0  0  0  0
 99115  2  0  0  0  0
103116  2  0  0  0  0
106117  2  0  0  0  0
102118  2  0  0  0  0
118119  1  0  0  0  0
118120  1  0  0  0  0
117121  1  0  0  0  0
117122  1  0  0  0  0
119123  3  0  0  0  0
120124  3  0  0  0  0
122125  3  0  0  0  0
121126  3  0  0  0  0
109127  1  0  0  0  0
127128  2  0  0  0  0
128138  1  0  0  0  0
138129  2  0  0  0  0
129130  1  0  0  0  0
130127  1  0  0  0  0
129131  1  0  0  0  0
131132  2  0  0  0  0
132133  1  0  0  0  0
133134  2  0  0  0  0
134135  1  0  0  0  0
135131  1  0  0  0  0
 67113  1  0  0  0  0
 61136  1  0  0  0  0
 65137  1  0  0  0  0
138139  1  0  0  0  0
132140  1  0  0  0  0
  3141  1  0  0  0  0
  6142  1  0  0  0  0
 15143  1  0  0  0  0
 18144  1  0  0  0  0
 19145  1  0  0  0  0
 19146  1  0  0  0  0
 20147  1  0  0  0  0
 20148  1  0  0  0  0
 21149  1  0  0  0  0
 21150  1  0  0  0  0
 21151  1  0  0  0  0
 22152  1  0  0  0  0
 22153  1  0  0  0  0
 22154  1  0  0  0  0
 23155  1  0  0  0  0
 23156  1  0  0  0  0
 24157  1  0  0  0  0
 24158  1  0  0  0  0
 25159  1  0  0  0  0
 25160  1  0  0  0  0
 25161  1  0  0  0  0
 26162  1  0  0  0  0
 26163  1  0  0  0  0
 26164  1  0  0  0  0
 27165  1  0  0  0  0
 28166  1  0  0  0  0
 39167  1  0  0  0  0
 40168  1  0  0  0  0
 42169  1  0  0  0  0
 43170  1  0  0  0  0
 44171  1  0  0  0  0
 45172  1  0  0  0  0
 46173  1  0  0  0  0
 60174  1  0  0  0  0
 66175  1  0  0  0  0
 71176  1  0  0  0  0
 74177  1  0  0  0  0
 83178  1  0  0  0  0
 86179  1  0  0  0  0
 87180  1  0  0  0  0
 87181  1  0  0  0  0
 88182  1  0  0  0  0
 88183  1  0  0  0  0
 89184  1  0  0  0  0
 89185  1  0  0  0  0
 89186  1  0  0  0  0
 90187  1  0  0  0  0
 90188  1  0  0  0  0
 90189  1  0  0  0  0
 91190  1  0  0  0  0
 91191  1  0  0  0  0
 92192  1  0  0  0  0
 92193  1  0  0  0  0
 93194  1  0  0  0  0
 93195  1  0  0  0  0
 93196  1  0  0  0  0
 94197  1  0  0  0  0
 94198  1  0  0  0  0
 94199  1  0  0  0  0
 95200  1  0  0  0  0
 96201  1  0  0  0  0
107202  1  0  0  0  0
108203  1  0  0  0  0
110204  1  0  0  0  0
111205  1  0  0  0  0
112206  1  0  0  0  0
114207  1  0  0  0  0
128208  1  0  0  0  0
133209  1  0  0  0  0
134210  1  0  0  0  0
M  END
