SCF done       -351.483393836164          0.000882458271
 OpenBabel12282109493D

210231  0  0  0  0  0  0  0  0999 V2000
   -4.6678   14.2997   -3.5691 C   0  0  0  0  0  0  0  0  0  0  0  0
   -5.7990   13.5633   -3.9958 C   0  0  0  0  0  0  0  0  0  0  0  0
   -6.9858   14.2151   -4.2376 C   0  0  0  0  0  0  0  0  0  0  0  0
   -7.0062   15.6003   -4.0793 C   0  0  0  0  0  0  0  0  0  0  0  0
   -5.8707   16.3376   -3.6637 C   0  0  0  0  0  0  0  0  0  0  0  0
   -4.6853   15.6854   -3.4182 C   0  0  0  0  0  0  0  0  0  0  0  0
   -8.0649   16.5328   -4.2931 C   0  0  0  0  0  0  0  0  0  0  0  0
   -7.6227   17.8326   -4.0339 C   0  0  0  0  0  0  0  0  0  0  0  0
   -6.1800   17.8249   -3.5924 C   0  0  0  0  0  0  0  0  0  0  0  0
   -3.6148   13.3671   -3.3340 C   0  0  0  0  0  0  0  0  0  0  0  0
   -4.0504   12.0669   -3.6015 C   0  0  0  0  0  0  0  0  0  0  0  0
   -5.4820   12.0777   -4.0806 C   0  0  0  0  0  0  0  0  0  0  0  0
   -9.7060   16.4410   -4.7579 S   0  0  0  0  0  0  0  0  0  0  0  0
   -9.8438   18.1841   -4.5925 C   0  0  0  0  0  0  0  0  0  0  0  0
   -8.6288   18.7605   -4.1900 C   0  0  0  0  0  0  0  0  0  0  0  0
   -1.9907   13.4622   -2.8168 S   0  0  0  0  0  0  0  0  0  0  0  0
   -1.8441   11.7196   -2.9795 C   0  0  0  0  0  0  0  0  0  0  0  0
   -3.0463   11.1412   -3.4174 C   0  0  0  0  0  0  0  0  0  0  0  0
   -6.1289   18.3752   -2.1509 C   0  0  0  0  0  0  0  0  0  0  0  0
   -5.2576   18.5674   -4.5789 C   0  0  0  0  0  0  0  0  0  0  0  0
   -5.4941   20.0684   -4.6803 C   0  0  0  0  0  0  0  0  0  0  0  0
   -4.7549   18.4082   -1.4950 C   0  0  0  0  0  0  0  0  0  0  0  0
   -5.4878   11.5617   -5.5362 C   0  0  0  0  0  0  0  0  0  0  0  0
   -6.4312   11.3106   -3.1407 C   0  0  0  0  0  0  0  0  0  0  0  0
   -6.8386   11.5654   -6.2391 C   0  0  0  0  0  0  0  0  0  0  0  0
   -6.1934    9.8083   -3.0649 C   0  0  0  0  0  0  0  0  0  0  0  0
   -0.6984   10.9499   -2.7384 C   0  0  0  0  0  0  0  0  0  0  0  0
  -10.9893   18.9604   -4.8085 C   0  0  0  0  0  0  0  0  0  0  0  0
  -12.2600   18.6000   -5.1815 C   0  0  0  0  0  0  0  0  0  0  0  0
    0.5577   11.3224   -2.3280 C   0  0  0  0  0  0  0  0  0  0  0  0
    0.9877   12.6921   -2.0164 C   0  0  0  0  0  0  0  0  0  0  0  0
    2.4082   12.6018   -1.6588 C   0  0  0  0  0  0  0  0  0  0  0  0
    2.8318   11.2629   -1.7437 C   0  0  0  0  0  0  0  0  0  0  0  0
    1.6886   10.4359   -2.1396 C   0  0  0  0  0  0  0  0  0  0  0  0
  -12.7233   17.2331   -5.4489 C   0  0  0  0  0  0  0  0  0  0  0  0
  -14.1544   17.3460   -5.7852 C   0  0  0  0  0  0  0  0  0  0  0  0
  -14.5399   18.6970   -5.7335 C   0  0  0  0  0  0  0  0  0  0  0  0
  -13.3767   19.5058   -5.3657 C   0  0  0  0  0  0  0  0  0  0  0  0
    3.2828   13.6112   -1.3013 C   0  0  0  0  0  0  0  0  0  0  0  0
    4.5970   13.2789   -1.0398 C   0  0  0  0  0  0  0  0  0  0  0  0
    5.0495   11.9550   -1.1325 C   0  0  0  0  0  0  0  0  0  0  0  0
    4.1474   10.9372   -1.4831 C   0  0  0  0  0  0  0  0  0  0  0  0
  -15.0487   16.3451   -6.1085 C   0  0  0  0  0  0  0  0  0  0  0  0
  -16.3606   16.7037   -6.3859 C   0  0  0  0  0  0  0  0  0  0  0  0
  -16.7504   18.0339   -6.3366 C   0  0  0  0  0  0  0  0  0  0  0  0
  -15.8525   19.0432   -6.0122 C   0  0  0  0  0  0  0  0  0  0  0  0
    0.3150   13.7091   -2.0480 O   0  0  0  0  0  0  0  0  0  0  0  0
  -12.0713   16.2047   -5.4053 O   0  0  0  0  0  0  0  0  0  0  0  0
  -13.3767   20.8706   -5.2332 C   0  0  0  0  0  0  0  0  0  0  0  0
    1.7192    9.0729   -2.2881 C   0  0  0  0  0  0  0  0  0  0  0  0
    0.6305    8.2567   -2.6584 C   0  0  0  0  0  0  0  0  0  0  0  0
    2.8681    8.2817   -2.0787 C   0  0  0  0  0  0  0  0  0  0  0  0
  -12.2678   21.6697   -4.8856 C   0  0  0  0  0  0  0  0  0  0  0  0
  -14.5097   21.6875   -5.4329 C   0  0  0  0  0  0  0  0  0  0  0  0
   -0.2012    7.5208   -2.9539 N   0  0  0  0  0  0  0  0  0  0  0  0
    3.7646    7.5808   -1.9246 N   0  0  0  0  0  0  0  0  0  0  0  0
  -15.3865   22.4148   -5.5752 N   0  0  0  0  0  0  0  0  0  0  0  0
  -11.4187   22.3952   -4.6148 N   0  0  0  0  0  0  0  0  0  0  0  0
    6.4382   11.6502   -0.8903 C   0  0  0  0  0  0  0  0  0  0  0  0
    7.0783   10.4315   -0.8706 C   0  0  0  0  0  0  0  0  0  0  0  0
    8.4533   10.5216   -0.6363 C   0  0  0  0  0  0  0  0  0  0  0  0
    8.8948   11.8148   -0.4728 C   0  0  0  0  0  0  0  0  0  0  0  0
    7.5764   12.9374   -0.6008 S   0  0  0  0  0  0  0  0  0  0  0  0
   10.2165   12.2965   -0.2605 C   0  0  0  0  0  0  0  0  0  0  0  0
   10.6061   13.6081   -0.1003 C   0  0  0  0  0  0  0  0  0  0  0  0
   11.9857   13.7605    0.0350 C   0  0  0  0  0  0  0  0  0  0  0  0
   12.6789   12.5722   -0.0120 C   0  0  0  0  0  0  0  0  0  0  0  0
   11.5866   11.2316   -0.2174 S   0  0  0  0  0  0  0  0  0  0  0  0
   26.9690   11.2120   -0.2354 C   0  0  0  0  0  0  0  0  0  0  0  0
   26.1080   12.2977   -0.5452 C   0  0  0  0  0  0  0  0  0  0  0  0
   24.7458   12.1295   -0.4470 C   0  0  0  0  0  0  0  0  0  0  0  0
   24.2726   10.8839   -0.0397 C   0  0  0  0  0  0  0  0  0  0  0  0
   25.1331    9.8060    0.2677 C   0  0  0  0  0  0  0  0  0  0  0  0
   26.4951    9.9656    0.1712 C   0  0  0  0  0  0  0  0  0  0  0  0
   22.9348   10.4290    0.1561 C   0  0  0  0  0  0  0  0  0  0  0  0
   22.9306    9.0933    0.5683 C   0  0  0  0  0  0  0  0  0  0  0  0
   24.3399    8.5656    0.6461 C   0  0  0  0  0  0  0  0  0  0  0  0
   28.3071   11.6635   -0.4418 C   0  0  0  0  0  0  0  0  0  0  0  0
   28.3109   12.9835   -0.8812 C   0  0  0  0  0  0  0  0  0  0  0  0
   26.9027   13.5150   -0.9878 C   0  0  0  0  0  0  0  0  0  0  0  0
   21.3829   11.1293    0.0538 S   0  0  0  0  0  0  0  0  0  0  0  0
   20.6695    9.6062    0.5620 C   0  0  0  0  0  0  0  0  0  0  0  0
   21.6532    8.6331    0.8044 C   0  0  0  0  0  0  0  0  0  0  0  0
   29.8807   11.0159   -0.3009 S   0  0  0  0  0  0  0  0  0  0  0  0
   30.5730   12.5454   -0.8571 C   0  0  0  0  0  0  0  0  0  0  0  0
   29.5788   13.4847   -1.1136 C   0  0  0  0  0  0  0  0  0  0  0  0
   24.6127    7.4853   -0.4241 C   0  0  0  0  0  0  0  0  0  0  0  0
   24.6903    8.0692    2.0578 C   0  0  0  0  0  0  0  0  0  0  0  0
   24.5524    9.1606    3.1130 C   0  0  0  0  0  0  0  0  0  0  0  0
   23.7631    6.2273   -0.3040 C   0  0  0  0  0  0  0  0  0  0  0  0
   26.7785   14.7415   -0.0517 C   0  0  0  0  0  0  0  0  0  0  0  0
   26.6679   13.8567   -2.4777 C   0  0  0  0  0  0  0  0  0  0  0  0
   25.4064   15.0154    0.5520 C   0  0  0  0  0  0  0  0  0  0  0  0
   25.3291   14.4832   -2.8398 C   0  0  0  0  0  0  0  0  0  0  0  0
   31.9755   12.5993   -0.9355 C   0  0  0  0  0  0  0  0  0  0  0  0
   19.3020    9.3289    0.6887 C   0  0  0  0  0  0  0  0  0  0  0  0
   18.2075   10.1365    0.4975 C   0  0  0  0  0  0  0  0  0  0  0  0
   32.8229   13.5671   -1.4095 C   0  0  0  0  0  0  0  0  0  0  0  0
   32.4941   14.8219   -2.1297 C   0  0  0  0  0  0  0  0  0  0  0  0
   33.7772   15.3464   -2.6186 C   0  0  0  0  0  0  0  0  0  0  0  0
   34.8304   14.5224   -2.1853 C   0  0  0  0  0  0  0  0  0  0  0  0
   34.2703   13.4414   -1.3760 C   0  0  0  0  0  0  0  0  0  0  0  0
   18.2457   11.5708    0.1850 C   0  0  0  0  0  0  0  0  0  0  0  0
   16.8477   12.0133    0.1274 C   0  0  0  0  0  0  0  0  0  0  0  0
   15.9960   10.9172    0.3549 C   0  0  0  0  0  0  0  0  0  0  0  0
   16.8198    9.7299    0.5990 C   0  0  0  0  0  0  0  0  0  0  0  0
   34.0182   16.4621   -3.4007 C   0  0  0  0  0  0  0  0  0  0  0  0
   35.3215   16.7521   -3.7528 C   0  0  0  0  0  0  0  0  0  0  0  0
   36.3883   15.9413   -3.3387 C   0  0  0  0  0  0  0  0  0  0  0  0
   36.1302   14.8117   -2.5457 C   0  0  0  0  0  0  0  0  0  0  0  0
   16.3468   13.2773   -0.1220 C   0  0  0  0  0  0  0  0  0  0  0  0
   14.9770   13.4497   -0.1544 C   0  0  0  0  0  0  0  0  0  0  0  0
   14.1062   12.3709    0.0562 C   0  0  0  0  0  0  0  0  0  0  0  0
   14.6277   11.0935    0.3133 C   0  0  0  0  0  0  0  0  0  0  0  0
   31.4074   15.3360   -2.3131 O   0  0  0  0  0  0  0  0  0  0  0  0
   19.2291   12.2708    0.0086 O   0  0  0  0  0  0  0  0  0  0  0  0
   16.3312    8.4753    0.8577 C   0  0  0  0  0  0  0  0  0  0  0  0
   35.0117   12.5347   -0.6635 C   0  0  0  0  0  0  0  0  0  0  0  0
   34.5076   11.5438    0.2057 C   0  0  0  0  0  0  0  0  0  0  0  0
   36.4221   12.4949   -0.6660 C   0  0  0  0  0  0  0  0  0  0  0  0
   17.1054    7.3178    1.0809 C   0  0  0  0  0  0  0  0  0  0  0  0
   14.9574    8.1622    0.9352 C   0  0  0  0  0  0  0  0  0  0  0  0
   34.1948   10.7186    0.9415 N   0  0  0  0  0  0  0  0  0  0  0  0
   37.5661   12.4045   -0.6222 N   0  0  0  0  0  0  0  0  0  0  0  0
   13.8589    7.8378    1.0145 N   0  0  0  0  0  0  0  0  0  0  0  0
   17.6610    6.3299    1.2693 N   0  0  0  0  0  0  0  0  0  0  0  0
   37.7406   16.2592   -3.7235 C   0  0  0  0  0  0  0  0  0  0  0  0
   38.9146   15.6574   -3.3322 C   0  0  0  0  0  0  0  0  0  0  0  0
   40.0553   16.2255   -3.9054 C   0  0  0  0  0  0  0  0  0  0  0  0
   39.7780   17.2742   -4.7507 C   0  0  0  0  0  0  0  0  0  0  0  0
   38.0693   17.5657   -4.8320 S   0  0  0  0  0  0  0  0  0  0  0  0
   40.6928   18.0703   -5.4994 C   0  0  0  0  0  0  0  0  0  0  0  0
   40.4180   19.1147   -6.3462 C   0  0  0  0  0  0  0  0  0  0  0  0
   41.5714   19.6745   -6.9229 C   0  0  0  0  0  0  0  0  0  0  0  0
   42.7134   19.0588   -6.5162 C   0  0  0  0  0  0  0  0  0  0  0  0
   42.4079   17.7767   -5.4161 S   0  0  0  0  0  0  0  0  0  0  0  0
   -7.8855   13.7004   -4.5352 H   0  0  0  0  0  0  0  0  0  0  0  0
   -3.7851   16.1995   -3.1217 H   0  0  0  0  0  0  0  0  0  0  0  0
   -8.5437   19.8195   -4.0224 H   0  0  0  0  0  0  0  0  0  0  0  0
   -3.1241   10.0819   -3.5873 H   0  0  0  0  0  0  0  0  0  0  0  0
   -6.5430   19.3847   -2.1670 H   0  0  0  0  0  0  0  0  0  0  0  0
   -6.7962   17.7603   -1.5407 H   0  0  0  0  0  0  0  0  0  0  0  0
   -4.2231   18.3827   -4.2864 H   0  0  0  0  0  0  0  0  0  0  0  0
   -5.4014   18.1178   -5.5651 H   0  0  0  0  0  0  0  0  0  0  0  0
   -5.3374   20.5608   -3.7247 H   0  0  0  0  0  0  0  0  0  0  0  0
   -4.7970   20.4956   -5.3980 H   0  0  0  0  0  0  0  0  0  0  0  0
   -6.5022   20.2810   -5.0242 H   0  0  0  0  0  0  0  0  0  0  0  0
   -4.0437   18.9764   -2.0880 H   0  0  0  0  0  0  0  0  0  0  0  0
   -4.8365   18.8848   -0.5203 H   0  0  0  0  0  0  0  0  0  0  0  0
   -4.3683   17.4047   -1.3444 H   0  0  0  0  0  0  0  0  0  0  0  0
   -4.7919   12.1824   -6.1073 H   0  0  0  0  0  0  0  0  0  0  0  0
   -5.0872   10.5467   -5.5307 H   0  0  0  0  0  0  0  0  0  0  0  0
   -6.3205   11.7388   -2.1408 H   0  0  0  0  0  0  0  0  0  0  0  0
   -7.4567   11.4980   -3.4617 H   0  0  0  0  0  0  0  0  0  0  0  0
   -7.2083   12.5784   -6.3697 H   0  0  0  0  0  0  0  0  0  0  0  0
   -6.7293   11.1190   -7.2253 H   0  0  0  0  0  0  0  0  0  0  0  0
   -7.5758   10.9877   -5.6885 H   0  0  0  0  0  0  0  0  0  0  0  0
   -5.1966    9.5904   -2.6929 H   0  0  0  0  0  0  0  0  0  0  0  0
   -6.9123    9.3636   -2.3803 H   0  0  0  0  0  0  0  0  0  0  0  0
   -6.3174    9.3370   -4.0359 H   0  0  0  0  0  0  0  0  0  0  0  0
   -0.8546    9.8938   -2.9234 H   0  0  0  0  0  0  0  0  0  0  0  0
  -10.8168   20.0167   -4.6402 H   0  0  0  0  0  0  0  0  0  0  0  0
    2.9353   14.6306   -1.2370 H   0  0  0  0  0  0  0  0  0  0  0  0
    5.2993   14.0513   -0.7626 H   0  0  0  0  0  0  0  0  0  0  0  0
    4.4947    9.9215   -1.5558 H   0  0  0  0  0  0  0  0  0  0  0  0
  -14.7221   15.3170   -6.1399 H   0  0  0  0  0  0  0  0  0  0  0  0
  -17.0834   15.9436   -6.6415 H   0  0  0  0  0  0  0  0  0  0  0  0
  -17.7749   18.2960   -6.5545 H   0  0  0  0  0  0  0  0  0  0  0  0
  -16.1864   20.0672   -5.9818 H   0  0  0  0  0  0  0  0  0  0  0  0
    6.5758    9.4929   -1.0192 H   0  0  0  0  0  0  0  0  0  0  0  0
    9.1137    9.6738   -0.5898 H   0  0  0  0  0  0  0  0  0  0  0  0
    9.9044   14.4234   -0.0890 H   0  0  0  0  0  0  0  0  0  0  0  0
   12.4547   14.7165    0.1812 H   0  0  0  0  0  0  0  0  0  0  0  0
   24.0404   12.9133   -0.6658 H   0  0  0  0  0  0  0  0  0  0  0  0
   27.1885    9.1698    0.3976 H   0  0  0  0  0  0  0  0  0  0  0  0
   21.3911    7.6477    1.1472 H   0  0  0  0  0  0  0  0  0  0  0  0
   29.8068   14.4765   -1.4563 H   0  0  0  0  0  0  0  0  0  0  0  0
   24.4419    7.9346   -1.4060 H   0  0  0  0  0  0  0  0  0  0  0  0
   25.6686    7.2138   -0.3644 H   0  0  0  0  0  0  0  0  0  0  0  0
   24.0282    7.2417    2.3148 H   0  0  0  0  0  0  0  0  0  0  0  0
   25.7160    7.6954    2.0530 H   0  0  0  0  0  0  0  0  0  0  0  0
   23.5329    9.5386    3.1449 H   0  0  0  0  0  0  0  0  0  0  0  0
   24.8011    8.7637    4.0942 H   0  0  0  0  0  0  0  0  0  0  0  0
   25.2199    9.9926    2.8994 H   0  0  0  0  0  0  0  0  0  0  0  0
   22.7077    6.4594   -0.4150 H   0  0  0  0  0  0  0  0  0  0  0  0
   24.0395    5.5296   -1.0912 H   0  0  0  0  0  0  0  0  0  0  0  0
   23.9171    5.7338    0.6515 H   0  0  0  0  0  0  0  0  0  0  0  0
   27.4782   14.5982    0.7762 H   0  0  0  0  0  0  0  0  0  0  0  0
   27.1143   15.6174   -0.6099 H   0  0  0  0  0  0  0  0  0  0  0  0
   27.4655   14.5393   -2.7806 H   0  0  0  0  0  0  0  0  0  0  0  0
   26.7922   12.9330   -3.0500 H   0  0  0  0  0  0  0  0  0  0  0  0
   25.0938   14.1943    1.1921 H   0  0  0  0  0  0  0  0  0  0  0  0
   25.4638   15.9150    1.1618 H   0  0  0  0  0  0  0  0  0  0  0  0
   24.6486   15.1730   -0.2085 H   0  0  0  0  0  0  0  0  0  0  0  0
   24.5020   13.8234   -2.5959 H   0  0  0  0  0  0  0  0  0  0  0  0
   25.1904   15.4350   -2.3356 H   0  0  0  0  0  0  0  0  0  0  0  0
   25.3044   14.6669   -3.9122 H   0  0  0  0  0  0  0  0  0  0  0  0
   32.4514   11.6964   -0.5699 H   0  0  0  0  0  0  0  0  0  0  0  0
   19.1043    8.3033    0.9771 H   0  0  0  0  0  0  0  0  0  0  0  0
   33.1970   17.0843   -3.7216 H   0  0  0  0  0  0  0  0  0  0  0  0
   35.5333   17.6198   -4.3604 H   0  0  0  0  0  0  0  0  0  0  0  0
   36.9447   14.1794   -2.2398 H   0  0  0  0  0  0  0  0  0  0  0  0
   17.0223   14.1011   -0.2944 H   0  0  0  0  0  0  0  0  0  0  0  0
   14.5706   14.4255   -0.3671 H   0  0  0  0  0  0  0  0  0  0  0  0
   13.9451   10.2749    0.4768 H   0  0  0  0  0  0  0  0  0  0  0  0
   38.9619   14.8333   -2.6436 H   0  0  0  0  0  0  0  0  0  0  0  0
   41.0579   15.8863   -3.7140 H   0  0  0  0  0  0  0  0  0  0  0  0
   39.4173   19.4586   -6.5395 H   0  0  0  0  0  0  0  0  0  0  0  0
   41.5540   20.5001   -7.6115 H   0  0  0  0  0  0  0  0  0  0  0  0
   43.7246   19.2785   -6.7953 H   0  0  0  0  0  0  0  0  0  0  0  0
  1  6  1  0  0  0  0
  1 10  1  0  0  0  0
  2  1  2  0  0  0  0
  3  4  2  0  0  0  0
  3  2  1  0  0  0  0
  4  5  1  0  0  0  0
  5  9  1  0  0  0  0
  5  6  2  0  0  0  0
  6138  1  0  0  0  0
  7  4  1  0  0  0  0
  7  8  2  0  0  0  0
  8  9  1  0  0  0  0
  9 19  1  0  0  0  0
 10 16  1  0  0  0  0
 11 18  1  0  0  0  0
 11 10  2  0  0  0  0
 12  2  1  0  0  0  0
 12 11  1  0  0  0  0
 12 24  1  0  0  0  0
 13 14  1  0  0  0  0
 13  7  1  0  0  0  0
 14 15  2  0  0  0  0
 15  8  1  0  0  0  0
 15139  1  0  0  0  0
 17 16  1  0  0  0  0
 17 27  1  0  0  0  0
 18 17  2  0  0  0  0
 19142  1  0  0  0  0
 19 22  1  0  0  0  0
 20143  1  0  0  0  0
 20  9  1  0  0  0  0
 21 20  1  0  0  0  0
 21145  1  0  0  0  0
 22150  1  0  0  0  0
 22149  1  0  0  0  0
 23152  1  0  0  0  0
 23 12  1  0  0  0  0
 24 26  1  0  0  0  0
 24153  1  0  0  0  0
 25157  1  0  0  0  0
 25 23  1  0  0  0  0
 26158  1  0  0  0  0
 26159  1  0  0  0  0
 27 30  2  0  0  0  0
 28162  1  0  0  0  0
 28 14  1  0  0  0  0
 29 28  2  0  0  0  0
 30 34  1  0  0  0  0
 30 31  1  0  0  0  0
 31 32  1  0  0  0  0
 32 39  1  0  0  0  0
 33 32  2  0  0  0  0
 33 42  1  0  0  0  0
 34 33  1  0  0  0  0
 35 48  2  0  0  0  0
 35 29  1  0  0  0  0
 36 37  1  0  0  0  0
 36 35  1  0  0  0  0
 37 38  1  0  0  0  0
 38 49  2  0  0  0  0
 38 29  1  0  0  0  0
 39163  1  0  0  0  0
 39 40  2  0  0  0  0
 40164  1  0  0  0  0
 41 40  1  0  0  0  0
 41 59  1  0  0  0  0
 42 41  2  0  0  0  0
 43 36  2  0  0  0  0
 44 45  2  0  0  0  0
 44 43  1  0  0  0  0
 45 46  1  0  0  0  0
 46169  1  0  0  0  0
 46 37  2  0  0  0  0
 47 31  2  0  0  0  0
 49 53  1  0  0  0  0
 50 34  2  0  0  0  0
 50 52  1  0  0  0  0
 51 50  1  0  0  0  0
 52 56  3  0  0  0  0
 53 58  3  0  0  0  0
 54 49  1  0  0  0  0
 55 51  3  0  0  0  0
 57 54  3  0  0  0  0
 59 60  2  0  0  0  0
 59 63  1  0  0  0  0
 60 61  1  0  0  0  0
 61171  1  0  0  0  0
 61 62  2  0  0  0  0
 62 64  1  0  0  0  0
 63 62  1  0  0  0  0
 64 68  1  0  0  0  0
 64 65  2  0  0  0  0
 65172  1  0  0  0  0
 65 66  1  0  0  0  0
 66173  1  0  0  0  0
 67 66  2  0  0  0  0
 67113  1  0  0  0  0
 68 67  1  0  0  0  0
 69 74  2  0  0  0  0
 70 71  2  0  0  0  0
 70 69  1  0  0  0  0
 71 72  1  0  0  0  0
 72 75  1  0  0  0  0
 72 73  2  0  0  0  0
 73 77  1  0  0  0  0
 74 73  1  0  0  0  0
 74175  1  0  0  0  0
 75 76  2  0  0  0  0
 76 77  1  0  0  0  0
 76 83  1  0  0  0  0
 77 88  1  0  0  0  0
 78 84  1  0  0  0  0
 78 69  1  0  0  0  0
 79 78  2  0  0  0  0
 80 79  1  0  0  0  0
 80 70  1  0  0  0  0
 80 91  1  0  0  0  0
 81 75  1  0  0  0  0
 81 82  1  0  0  0  0
 82 96  1  0  0  0  0
 82 83  2  0  0  0  0
 83176  1  0  0  0  0
 85 84  1  0  0  0  0
 86 79  1  0  0  0  0
 86 85  2  0  0  0  0
 87179  1  0  0  0  0
 87 90  1  0  0  0  0
 87 77  1  0  0  0  0
 88180  1  0  0  0  0
 88 89  1  0  0  0  0
 89182  1  0  0  0  0
 89183  1  0  0  0  0
 90187  1  0  0  0  0
 91 93  1  0  0  0  0
 91188  1  0  0  0  0
 92 80  1  0  0  0  0
 93193  1  0  0  0  0
 93192  1  0  0  0  0
 94195  1  0  0  0  0
 94 92  1  0  0  0  0
 94196  1  0  0  0  0
 95 85  1  0  0  0  0
 95198  1  0  0  0  0
 96199  1  0  0  0  0
 97106  1  0  0  0  0
 97 96  2  0  0  0  0
 98102  2  0  0  0  0
 98 95  1  0  0  0  0
 99 98  1  0  0  0  0
100101  2  0  0  0  0
100 99  1  0  0  0  0
101102  1  0  0  0  0
102118  1  0  0  0  0
103 97  1  0  0  0  0
104103  1  0  0  0  0
104105  2  0  0  0  0
105106  1  0  0  0  0
106117  2  0  0  0  0
107100  1  0  0  0  0
108107  2  0  0  0  0
108109  1  0  0  0  0
109110  2  0  0  0  0
110202  1  0  0  0  0
110101  1  0  0  0  0
111104  1  0  0  0  0
112111  2  0  0  0  0
112113  1  0  0  0  0
113114  2  0  0  0  0
114105  1  0  0  0  0
114205  1  0  0  0  0
115 99  2  0  0  0  0
116103  2  0  0  0  0
117122  1  0  0  0  0
117121  1  0  0  0  0
118119  1  0  0  0  0
119123  3  0  0  0  0
120118  1  0  0  0  0
120124  3  0  0  0  0
121126  3  0  0  0  0
122125  3  0  0  0  0
127109  1  0  0  0  0
127128  2  0  0  0  0
128206  1  0  0  0  0
129207  1  0  0  0  0
129128  1  0  0  0  0
130129  2  0  0  0  0
131130  1  0  0  0  0
131127  1  0  0  0  0
132136  1  0  0  0  0
132130  1  0  0  0  0
133132  2  0  0  0  0
134135  2  0  0  0  0
134133  1  0  0  0  0
135136  1  0  0  0  0
137  3  1  0  0  0  0
140 18  1  0  0  0  0
141 19  1  0  0  0  0
144 20  1  0  0  0  0
146 21  1  0  0  0  0
147 21  1  0  0  0  0
148 22  1  0  0  0  0
151 23  1  0  0  0  0
154 24  1  0  0  0  0
155 25  1  0  0  0  0
156 25  1  0  0  0  0
160 26  1  0  0  0  0
161 27  1  0  0  0  0
165 42  1  0  0  0  0
166 43  1  0  0  0  0
167 44  1  0  0  0  0
168 45  1  0  0  0  0
170 60  1  0  0  0  0
174 71  1  0  0  0  0
177 86  1  0  0  0  0
178 87  1  0  0  0  0
181 88  1  0  0  0  0
184 89  1  0  0  0  0
185 90  1  0  0  0  0
186 90  1  0  0  0  0
189 91  1  0  0  0  0
190 92  1  0  0  0  0
191 92  1  0  0  0  0
194 93  1  0  0  0  0
197 94  1  0  0  0  0
200107  1  0  0  0  0
201108  1  0  0  0  0
203111  1  0  0  0  0
204112  1  0  0  0  0
208133  1  0  0  0  0
209134  1  0  0  0  0
210135  1  0  0  0  0
M  RAD  2  95   2 118   2
M  END
