SCF done       -198.234240057903          0.000452198354
 OpenBabel12282109493D

101113  0  0  1  0  0  0  0  0999 V2000
   -0.6037   -2.5112   -0.5610 C   0  0  1  0  0  0  0  0  0  0  0  0
   -0.9942   -1.1822   -0.3019 C   0  0  0  0  0  0  0  0  0  0  0  0
   -2.6696   -1.0152    0.1761 S   0  0  0  0  0  0  0  0  0  0  0  0
   -2.8407   -2.7249    0.0252 C   0  0  0  0  0  0  0  0  0  0  0  0
   -1.6670   -3.3995   -0.3586 C   0  0  0  0  0  0  0  0  0  0  0  0
   -1.9246   -4.7490   -0.4406 N   0  0  0  0  0  0  0  0  0  0  0  0
   -1.1618   -5.6720   -1.2606 C   0  0  0  0  0  0  0  0  0  0  0  0
   -3.2581   -4.9347   -0.1315 C   0  0  0  0  0  0  0  0  0  0  0  0
   -3.8650   -3.6741    0.1250 C   0  0  0  0  0  0  0  0  0  0  0  0
   -5.2674   -3.5555    0.2460 C   0  0  0  0  0  0  0  0  0  0  0  0
   -5.9911   -2.4679    0.4614 N   0  0  0  0  0  0  0  0  0  0  0  0
   -7.5567   -2.8627    0.3637 S   0  0  0  0  0  0  0  0  0  0  0  0
   -7.3774   -4.4353    0.0413 N   0  0  0  0  0  0  0  0  0  0  0  0
   -6.0836   -4.7152    0.0046 C   0  0  0  0  0  0  0  0  0  0  0  0
   -5.4577   -5.9680   -0.1777 C   0  0  0  0  0  0  0  0  0  0  0  0
   -4.0536   -6.0979   -0.1038 C   0  0  0  0  0  0  0  0  0  0  0  0
   -3.6846   -7.4624   -0.1273 N   0  0  0  0  0  0  0  0  0  0  0  0
   -3.0111   -8.0068    1.0668 C   0  0  0  0  0  0  0  0  0  0  0  0
   -1.5896   -7.5455    1.3186 C   0  0  0  0  0  0  0  0  0  0  0  0
   -4.8806   -8.1486   -0.3872 C   0  0  0  0  0  0  0  0  0  0  0  0
   -5.9657   -7.2676   -0.3899 C   0  0  0  0  0  0  0  0  0  0  0  0
   -7.5061   -8.0039   -0.6454 S   0  0  0  0  0  0  0  0  0  0  0  0
   -6.6987   -9.5414   -0.7651 C   0  0  0  0  0  0  0  0  0  0  0  0
   -5.2871   -9.4680   -0.6164 C   0  0  0  0  0  0  0  0  0  0  0  0
    0.2937   -5.8294   -0.8308 C   0  0  0  0  0  0  0  0  0  0  0  0
   -7.8374  -14.5505   -1.6654 C   0  0  0  0  0  0  0  0  0  0  0  0
   -7.3229  -15.8261   -1.7031 C   0  0  0  0  0  0  0  0  0  0  0  0
   -8.1277  -16.9967   -2.0083 C   0  0  0  0  0  0  0  0  0  0  0  0
   -9.3995  -17.0263   -2.5195 C   0  0  0  0  0  0  0  0  0  0  0  0
  -10.1108  -18.2141   -2.7942 C   0  0  0  0  0  0  0  0  0  0  0  0
  -10.7495  -19.1369   -3.0358 N   0  0  0  0  0  0  0  0  0  0  0  0
  -10.1816  -15.9096   -2.8853 C   0  0  0  0  0  0  0  0  0  0  0  0
  -10.8843  -15.0700   -3.2330 N   0  0  0  0  0  0  0  0  0  0  0  0
   -7.3138  -18.1804   -1.7377 C   0  0  0  0  0  0  0  0  0  0  0  0
   -7.6015  -19.5338   -1.8014 C   0  0  0  0  0  0  0  0  0  0  0  0
   -6.5985  -20.4442   -1.4852 C   0  0  0  0  0  0  0  0  0  0  0  0
   -6.9483  -22.1245   -1.5565 Cl  0  0  0  0  0  0  0  0  0  0  0  0
   -5.3204  -20.0161   -1.1122 C   0  0  0  0  0  0  0  0  0  0  0  0
   -5.0297  -18.6595   -1.0459 C   0  0  0  0  0  0  0  0  0  0  0  0
   -6.0296  -17.7614   -1.3565 C   0  0  0  0  0  0  0  0  0  0  0  0
   -5.9669  -16.2841   -1.3468 C   0  0  0  0  0  0  0  0  0  0  0  0
   -4.9758  -15.6325   -1.0773 O   0  0  0  0  0  0  0  0  0  0  0  0
   -4.7392  -10.7117   -0.7885 N   0  0  0  0  0  0  0  0  0  0  0  0
   -5.7753  -11.5820   -1.0190 C   0  0  0  0  0  0  0  0  0  0  0  0
   -7.0082  -10.8751   -1.0087 C   0  0  0  0  0  0  0  0  0  0  0  0
   -3.3467  -11.0858   -0.8338 C   0  0  0  0  0  0  0  0  0  0  0  0
   -2.9270  -11.8755    0.4048 C   0  0  0  0  0  0  0  0  0  0  0  0
   -5.9037  -12.9396   -1.2547 C   0  0  0  0  0  0  0  0  0  0  0  0
   -7.2340  -13.3107   -1.4185 C   0  0  0  0  0  0  0  0  0  0  0  0
   -8.3354  -11.9196   -1.2988 S   0  0  0  0  0  0  0  0  0  0  0  0
   -4.1045  -21.1684   -0.7320 Cl  0  0  0  0  0  0  0  0  0  0  0  0
    4.0219   -1.8947   -1.8786 C   0  0  0  0  0  0  0  0  0  0  0  0
    3.3462   -2.9077   -1.8203 O   0  0  0  0  0  0  0  0  0  0  0  0
    5.4354   -1.8177   -2.2990 C   0  0  0  0  0  0  0  0  0  0  0  0
    6.2689   -2.8366   -2.7101 C   0  0  0  0  0  0  0  0  0  0  0  0
    7.5748   -2.5164   -3.0607 C   0  0  0  0  0  0  0  0  0  0  0  0
    8.0176   -1.1917   -2.9927 C   0  0  0  0  0  0  0  0  0  0  0  0
    9.6341   -0.8088   -3.4289 Cl  0  0  0  0  0  0  0  0  0  0  0  0
    7.1721   -0.1681   -2.5764 C   0  0  0  0  0  0  0  0  0  0  0  0
    5.8700   -0.4831   -2.2265 C   0  0  0  0  0  0  0  0  0  0  0  0
    4.7605    0.3482   -1.7583 C   0  0  0  0  0  0  0  0  0  0  0  0
    4.8265    1.7031   -1.5515 C   0  0  0  0  0  0  0  0  0  0  0  0
    3.7742    2.5221   -1.0921 C   0  0  0  0  0  0  0  0  0  0  0  0
    2.9727    3.2576   -0.7212 N   0  0  0  0  0  0  0  0  0  0  0  0
    5.9834    2.4807   -1.7700 C   0  0  0  0  0  0  0  0  0  0  0  0
    6.8852    3.1737   -1.9257 N   0  0  0  0  0  0  0  0  0  0  0  0
    3.6229   -0.5250   -1.5544 C   0  0  0  0  0  0  0  0  0  0  0  0
    2.3775   -0.1170   -1.1332 C   0  0  0  0  0  0  0  0  0  0  0  0
    8.6457   -3.7552   -3.5788 Cl  0  0  0  0  0  0  0  0  0  0  0  0
    0.0076   -0.2390   -0.4705 C   0  0  0  0  0  0  0  0  0  0  0  0
    1.2089   -0.8398   -0.8890 C   0  0  0  0  0  0  0  0  0  0  0  0
    1.0482   -2.5885   -1.0504 S   0  0  0  0  0  0  0  0  0  0  0  0
   -0.2200    1.2247   -0.2817 C   0  0  0  0  0  0  0  0  0  0  0  0
   -0.5584    1.8976   -1.6150 C   0  0  0  0  0  0  0  0  0  0  0  0
   -1.6847   -6.6283   -1.2228 H   0  0  0  0  0  0  0  0  0  0  0  0
   -1.1892   -5.3158   -2.2982 H   0  0  0  0  0  0  0  0  0  0  0  0
   -3.6239   -7.7560    1.9448 H   0  0  0  0  0  0  0  0  0  0  0  0
   -3.0208   -9.0906    0.9571 H   0  0  0  0  0  0  0  0  0  0  0  0
   -1.5416   -6.4659    1.4171 H   0  0  0  0  0  0  0  0  0  0  0  0
   -1.2529   -7.9859    2.2545 H   0  0  0  0  0  0  0  0  0  0  0  0
   -0.9216   -7.8759    0.5298 H   0  0  0  0  0  0  0  0  0  0  0  0
    0.3853   -5.8832    0.2496 H   0  0  0  0  0  0  0  0  0  0  0  0
    0.6983   -6.7412   -1.2620 H   0  0  0  0  0  0  0  0  0  0  0  0
    0.8996   -5.0006   -1.1808 H   0  0  0  0  0  0  0  0  0  0  0  0
   -8.9057  -14.4721   -1.8291 H   0  0  0  0  0  0  0  0  0  0  0  0
   -8.5737  -19.9034   -2.0820 H   0  0  0  0  0  0  0  0  0  0  0  0
   -4.0493  -18.3141   -0.7583 H   0  0  0  0  0  0  0  0  0  0  0  0
   -3.1885  -11.7027   -1.7245 H   0  0  0  0  0  0  0  0  0  0  0  0
   -2.7528  -10.1752   -0.9399 H   0  0  0  0  0  0  0  0  0  0  0  0
   -3.1249  -11.3124    1.3146 H   0  0  0  0  0  0  0  0  0  0  0  0
   -3.4758  -12.8118    0.4574 H   0  0  0  0  0  0  0  0  0  0  0  0
   -1.8650  -12.0989    0.3562 H   0  0  0  0  0  0  0  0  0  0  0  0
   -5.1023  -13.6522   -1.3043 H   0  0  0  0  0  0  0  0  0  0  0  0
    5.9140   -3.8538   -2.7577 H   0  0  0  0  0  0  0  0  0  0  0  0
    7.5508    0.8399   -2.5377 H   0  0  0  0  0  0  0  0  0  0  0  0
    2.2658    0.9443   -0.9590 H   0  0  0  0  0  0  0  0  0  0  0  0
   -1.0591    1.3541    0.4048 H   0  0  0  0  0  0  0  0  0  0  0  0
    0.6562    1.7062    0.1547 H   0  0  0  0  0  0  0  0  0  0  0  0
   -1.4551    1.4569   -2.0443 H   0  0  0  0  0  0  0  0  0  0  0  0
   -0.7309    2.9583   -1.4577 H   0  0  0  0  0  0  0  0  0  0  0  0
    0.2592    1.7826   -2.3228 H   0  0  0  0  0  0  0  0  0  0  0  0
  1 72  1  6  0  0  0
  1  5  1  0  0  0  0
  1  2  1  0  0  0  0
  2  3  1  0  0  0  0
  4  9  1  0  0  0  0
  4  3  1  0  0  0  0
  5  4  2  0  0  0  0
  6  5  1  0  0  0  0
  6  8  1  0  0  0  0
  7 75  1  0  0  0  0
  7 25  1  0  0  0  0
  7  6  1  0  0  0  0
  8 16  1  0  0  0  0
  8  9  2  0  0  0  0
  9 10  1  0  0  0  0
 10 11  2  0  0  0  0
 12 11  1  0  0  0  0
 13 12  1  0  0  0  0
 14 13  2  0  0  0  0
 14 10  1  0  0  0  0
 15 16  2  0  0  0  0
 15 14  1  0  0  0  0
 17 16  1  0  0  0  0
 17 18  1  0  0  0  0
 18 19  1  0  0  0  0
 18 77  1  0  0  0  0
 19 79  1  0  0  0  0
 19 80  1  0  0  0  0
 20 17  1  0  0  0  0
 21 20  2  0  0  0  0
 21 15  1  0  0  0  0
 22 21  1  0  0  0  0
 23 22  1  0  0  0  0
 23 24  2  0  0  0  0
 24 20  1  0  0  0  0
 25 82  1  0  0  0  0
 26 49  1  0  0  0  0
 27 26  2  0  0  0  0
 27 41  1  0  0  0  0
 28 34  1  0  0  0  0
 28 27  1  0  0  0  0
 29 28  2  0  0  0  0
 30 29  1  0  0  0  0
 31 30  3  0  0  0  0
 32 29  1  0  0  0  0
 33 32  3  0  0  0  0
 34 40  1  0  0  0  0
 35 34  2  0  0  0  0
 35 36  1  0  0  0  0
 36 38  2  0  0  0  0
 37 36  1  0  0  0  0
 38 39  1  0  0  0  0
 38 51  1  0  0  0  0
 39 87  1  0  0  0  0
 40 41  1  0  0  0  0
 40 39  2  0  0  0  0
 41 42  2  0  0  0  0
 43 24  1  0  0  0  0
 44 45  2  0  0  0  0
 44 43  1  0  0  0  0
 45 23  1  0  0  0  0
 46 43  1  0  0  0  0
 46 47  1  0  0  0  0
 47 91  1  0  0  0  0
 47 90  1  0  0  0  0
 48 44  1  0  0  0  0
 49 50  1  0  0  0  0
 49 48  2  0  0  0  0
 50 45  1  0  0  0  0
 52 53  2  0  0  0  0
 52 67  1  0  0  0  0
 54 60  1  0  0  0  0
 54 52  1  0  0  0  0
 55 54  2  0  0  0  0
 56 57  2  0  0  0  0
 56 55  1  0  0  0  0
 57 59  1  0  0  0  0
 58 57  1  0  0  0  0
 59 95  1  0  0  0  0
 59 60  2  0  0  0  0
 60 61  1  0  0  0  0
 61 67  2  0  0  0  0
 61 62  1  0  0  0  0
 62 63  1  0  0  0  0
 63 64  3  0  0  0  0
 65 62  1  0  0  0  0
 66 65  3  0  0  0  0
 67 68  1  0  0  0  0
 68 96  1  0  0  0  0
 68 71  2  0  0  0  0
 69 56  1  0  0  0  0
 70  2  2  0  0  0  0
 70 73  1  0  0  0  0
 71 70  1  0  0  0  0
 72 71  1  0  0  0  0
 73 98  1  0  0  0  0
 73 97  1  0  0  0  0
 74100  1  0  0  0  0
 74 73  1  0  0  0  0
 76  7  1  0  0  0  0
 78 18  1  0  0  0  0
 81 19  1  0  0  0  0
 83 25  1  0  0  0  0
 84 25  1  0  0  0  0
 85 26  1  0  0  0  0
 86 35  1  0  0  0  0
 88 46  1  0  0  0  0
 89 46  1  0  0  0  0
 92 47  1  0  0  0  0
 93 48  1  0  0  0  0
 94 55  1  0  0  0  0
 99 74  1  0  0  0  0
101 74  1  0  0  0  0
M  RAD  2   1   2  62   2
M  END
