Qx3b.sdf
  xtb     12222121113D
 energy: -256.502500502642 gnorm: 0.000236473805 xtb: 6.4.1 (unknown)
158172  0     0  0            999 V2000
   -0.6601   -0.3276   -0.9101 C   0  0  0  0  0  0  0  0  0  0  0  0
   -2.0477   -0.2612   -0.6535 C   0  0  0  0  0  0  0  0  0  0  0  0
   -2.7522   -1.3258   -0.0965 C   0  0  0  0  0  0  0  0  0  0  0  0
   -2.0371   -2.4548    0.2248 C   0  0  0  0  0  0  0  0  0  0  0  0
   -0.6406   -2.5078    0.0075 C   0  0  0  0  0  0  0  0  0  0  0  0
    0.0569   -1.4531   -0.5767 C   0  0  0  0  0  0  0  0  0  0  0  0
   -0.1561    0.9584   -1.5536 C   0  0  0  0  0  0  0  0  0  0  0  0
   -1.4220    1.7783   -1.5786 C   0  0  0  0  0  0  0  0  0  0  0  0
   -2.4737    1.0415   -1.0509 C   0  0  0  0  0  0  0  0  0  0  0  0
   -1.8003    3.0728   -1.9247 C   0  0  0  0  0  0  0  0  0  0  0  0
   -3.1292    3.3383   -1.6416 C   0  0  0  0  0  0  0  0  0  0  0  0
   -3.9319    1.9302   -0.9561 S   0  0  0  0  0  0  0  0  0  0  0  0
   -2.5370   -3.7354    0.8731 C   0  0  0  0  0  0  0  0  0  0  0  0
   -1.2577   -4.5230    0.9688 C   0  0  0  0  0  0  0  0  0  0  0  0
   -0.1921   -3.7775    0.4854 C   0  0  0  0  0  0  0  0  0  0  0  0
   -0.8672   -5.7813    1.4116 C   0  0  0  0  0  0  0  0  0  0  0  0
    0.5019   -5.9780    1.3101 C   0  0  0  0  0  0  0  0  0  0  0  0
    1.3148   -4.5864    0.6356 S   0  0  0  0  0  0  0  0  0  0  0  0
   -3.8471    4.5694   -1.7628 C   0  0  0  0  0  0  0  0  0  0  0  0
    1.2459   -7.1322    1.7109 C   0  0  0  0  0  0  0  0  0  0  0  0
    0.3977    0.6217   -2.9583 C   0  0  0  0  0  0  0  0  0  0  0  0
    0.9040    1.5766   -0.6184 C   0  0  0  0  0  0  0  0  0  0  0  0
   -5.0737    4.7401   -1.1242 C   0  0  0  0  0  0  0  0  0  0  0  0
   -5.7551    5.9437   -1.1048 C   0  0  0  0  0  0  0  0  0  0  0  0
   -5.2740    7.0659   -1.7731 C   0  0  0  0  0  0  0  0  0  0  0  0
   -4.0670    6.9051   -2.5285 C   0  0  0  0  0  0  0  0  0  0  0  0
   -3.3331    5.6893   -2.4892 C   0  0  0  0  0  0  0  0  0  0  0  0
    0.6443   -8.3294    2.0826 C   0  0  0  0  0  0  0  0  0  0  0  0
    1.3785   -9.4123    2.5511 C   0  0  0  0  0  0  0  0  0  0  0  0
    2.7520   -9.3516    2.7051 C   0  0  0  0  0  0  0  0  0  0  0  0
    3.4137   -8.1650    2.2776 C   0  0  0  0  0  0  0  0  0  0  0  0
    2.6695   -7.0724    1.7719 C   0  0  0  0  0  0  0  0  0  0  0  0
   -5.8608    8.3640   -1.7998 C   0  0  0  0  0  0  0  0  0  0  0  0
   -6.8841    8.9462   -1.1196 C   0  0  0  0  0  0  0  0  0  0  0  0
    3.5637  -10.4451    3.1798 C   0  0  0  0  0  0  0  0  0  0  0  0
    4.6848  -10.2317    3.8990 C   0  0  0  0  0  0  0  0  0  0  0  0
    5.0156   -8.9995    4.6288 C   0  0  0  0  0  0  0  0  0  0  0  0
    6.3553   -9.0119    5.0027 N   0  0  0  0  0  0  0  0  0  0  0  0
    7.0384  -10.1543    4.7431 C   0  0  0  0  0  0  0  0  0  0  0  0
    5.9934  -11.3891    4.0678 S   0  0  0  0  0  0  0  0  0  0  0  0
   -7.7884    8.4693   -0.0806 C   0  0  0  0  0  0  0  0  0  0  0  0
   -8.6190    9.4968    0.3596 N   0  0  0  0  0  0  0  0  0  0  0  0
   -8.4677   10.7058   -0.2394 C   0  0  0  0  0  0  0  0  0  0  0  0
   -7.2239   10.6476   -1.4599 S   0  0  0  0  0  0  0  0  0  0  0  0
   -9.6119    9.2016    1.3763 C   0  0  0  0  0  0  0  0  0  0  0  0
   -7.8611    7.3558    0.3958 O   0  0  0  0  0  0  0  0  0  0  0  0
   -9.1354   11.8785    0.0165 C   0  0  0  0  0  0  0  0  0  0  0  0
    4.2540   -8.1274    4.9785 O   0  0  0  0  0  0  0  0  0  0  0  0
    6.8882   -7.8783    5.7336 C   0  0  0  0  0  0  0  0  0  0  0  0
    8.3714  -10.4105    4.9378 C   0  0  0  0  0  0  0  0  0  0  0  0
  -10.9790    8.9272    0.7612 C   0  0  0  0  0  0  0  0  0  0  0  0
    6.9517   -8.1550    7.2311 C   0  0  0  0  0  0  0  0  0  0  0  0
   -3.6451    7.9104   -3.3086 N   0  0  0  0  0  0  0  0  0  0  0  0
   -2.5242    7.7975   -3.9825 C   0  0  0  0  0  0  0  0  0  0  0  0
   -1.7022    6.6444   -3.8016 C   0  0  0  0  0  0  0  0  0  0  0  0
   -2.1454    5.6211   -3.1089 N   0  0  0  0  0  0  0  0  0  0  0  0
   -2.2096    8.8782   -4.9214 C   0  0  0  0  0  0  0  0  0  0  0  0
   -0.3397    6.5360   -4.3346 C   0  0  0  0  0  0  0  0  0  0  0  0
    0.0885    5.3280   -4.8788 C   0  0  0  0  0  0  0  0  0  0  0  0
    1.3743    5.2019   -5.3696 C   0  0  0  0  0  0  0  0  0  0  0  0
    2.2474    6.2757   -5.3120 C   0  0  0  0  0  0  0  0  0  0  0  0
    1.8319    7.4753   -4.7562 C   0  0  0  0  0  0  0  0  0  0  0  0
    0.5458    7.6095   -4.2693 C   0  0  0  0  0  0  0  0  0  0  0  0
   -2.5175   10.1923   -4.5757 C   0  0  0  0  0  0  0  0  0  0  0  0
   -2.2429   11.2263   -5.4499 C   0  0  0  0  0  0  0  0  0  0  0  0
   -1.6716   10.9587   -6.6833 C   0  0  0  0  0  0  0  0  0  0  0  0
   -1.3854    9.6515   -7.0432 C   0  0  0  0  0  0  0  0  0  0  0  0
   -1.6509    8.6138   -6.1703 C   0  0  0  0  0  0  0  0  0  0  0  0
    4.7484   -8.0738    2.3525 N   0  0  0  0  0  0  0  0  0  0  0  0
    5.3603   -6.9704    1.9982 C   0  0  0  0  0  0  0  0  0  0  0  0
    4.6142   -5.8867    1.4401 C   0  0  0  0  0  0  0  0  0  0  0  0
    3.3079   -5.9750    1.3501 N   0  0  0  0  0  0  0  0  0  0  0  0
    6.8027   -6.9451    2.2712 C   0  0  0  0  0  0  0  0  0  0  0  0
    5.2390   -4.6770    0.8953 C   0  0  0  0  0  0  0  0  0  0  0  0
    4.6303   -3.4411    1.1016 C   0  0  0  0  0  0  0  0  0  0  0  0
    5.1955   -2.2920    0.5826 C   0  0  0  0  0  0  0  0  0  0  0  0
    6.3657   -2.3643   -0.1553 C   0  0  0  0  0  0  0  0  0  0  0  0
    6.9648   -3.5932   -0.3806 C   0  0  0  0  0  0  0  0  0  0  0  0
    6.4079   -4.7458    0.1400 C   0  0  0  0  0  0  0  0  0  0  0  0
    7.5533   -8.0998    2.0577 C   0  0  0  0  0  0  0  0  0  0  0  0
    8.8964   -8.1301    2.3817 C   0  0  0  0  0  0  0  0  0  0  0  0
    9.5006   -7.0147    2.9401 C   0  0  0  0  0  0  0  0  0  0  0  0
    8.7548   -5.8696    3.1709 C   0  0  0  0  0  0  0  0  0  0  0  0
    7.4132   -5.8291    2.8382 C   0  0  0  0  0  0  0  0  0  0  0  0
    0.2148    1.7078   -4.0111 C   0  0  0  0  0  0  0  0  0  0  0  0
    1.5518    2.8660   -1.1047 C   0  0  0  0  0  0  0  0  0  0  0  0
   -3.5890   -4.4426    0.0046 C   0  0  0  0  0  0  0  0  0  0  0  0
   -3.0982   -3.3708    2.2654 C   0  0  0  0  0  0  0  0  0  0  0  0
   -3.4536   -4.5552    3.1542 C   0  0  0  0  0  0  0  0  0  0  0  0
   -3.0914   -4.7129   -1.4107 C   0  0  0  0  0  0  0  0  0  0  0  0
  -10.1489   12.0828    0.9669 C   0  0  0  0  0  0  0  0  0  0  0  0
   -8.8029   13.0341   -0.7207 C   0  0  0  0  0  0  0  0  0  0  0  0
    9.3342   -9.5088    5.4210 C   0  0  0  0  0  0  0  0  0  0  0  0
    8.8953  -11.6755    4.5988 C   0  0  0  0  0  0  0  0  0  0  0  0
    9.3395  -12.6966    4.3236 N   0  0  0  0  0  0  0  0  0  0  0  0
   10.1780   -8.8273    5.8000 N   0  0  0  0  0  0  0  0  0  0  0  0
  -10.9824   12.3223    1.7208 N   0  0  0  0  0  0  0  0  0  0  0  0
   -8.5411   13.9807   -1.3136 N   0  0  0  0  0  0  0  0  0  0  0  0
   -3.8159   -1.2481    0.0704 H   0  0  0  0  0  0  0  0  0  0  0  0
    1.1192   -1.5346   -0.7509 H   0  0  0  0  0  0  0  0  0  0  0  0
   -1.1691    3.8275   -2.3533 H   0  0  0  0  0  0  0  0  0  0  0  0
   -1.5351   -6.5279    1.8005 H   0  0  0  0  0  0  0  0  0  0  0  0
    1.4577    0.3806   -2.8587 H   0  0  0  0  0  0  0  0  0  0  0  0
   -0.1084   -0.2801   -3.3132 H   0  0  0  0  0  0  0  0  0  0  0  0
    1.6840    0.8289   -0.4578 H   0  0  0  0  0  0  0  0  0  0  0  0
    0.4244    1.7615    0.3468 H   0  0  0  0  0  0  0  0  0  0  0  0
   -5.4929    3.9037   -0.5835 H   0  0  0  0  0  0  0  0  0  0  0  0
   -6.6736    6.0141   -0.5471 H   0  0  0  0  0  0  0  0  0  0  0  0
   -0.4281   -8.4256    2.0160 H   0  0  0  0  0  0  0  0  0  0  0  0
    0.8573  -10.3108    2.8478 H   0  0  0  0  0  0  0  0  0  0  0  0
   -5.3476    9.0202   -2.4965 H   0  0  0  0  0  0  0  0  0  0  0  0
    3.3208  -11.4437    2.8424 H   0  0  0  0  0  0  0  0  0  0  0  0
   -9.2530    8.3070    1.8928 H   0  0  0  0  0  0  0  0  0  0  0  0
   -9.6611   10.0316    2.0827 H   0  0  0  0  0  0  0  0  0  0  0  0
    7.8728   -7.6243    5.3378 H   0  0  0  0  0  0  0  0  0  0  0  0
    6.1993   -7.0522    5.5391 H   0  0  0  0  0  0  0  0  0  0  0  0
  -10.9208    8.0819    0.0792 H   0  0  0  0  0  0  0  0  0  0  0  0
  -11.6867    8.6926    1.5505 H   0  0  0  0  0  0  0  0  0  0  0  0
  -11.3473    9.7960    0.2207 H   0  0  0  0  0  0  0  0  0  0  0  0
    5.9585   -8.3804    7.6132 H   0  0  0  0  0  0  0  0  0  0  0  0
    7.6145   -8.9893    7.4486 H   0  0  0  0  0  0  0  0  0  0  0  0
    7.3323   -7.2759    7.7424 H   0  0  0  0  0  0  0  0  0  0  0  0
   -0.6040    4.5012   -4.9250 H   0  0  0  0  0  0  0  0  0  0  0  0
    1.6957    4.2644   -5.7991 H   0  0  0  0  0  0  0  0  0  0  0  0
    3.2516    6.1782   -5.6969 H   0  0  0  0  0  0  0  0  0  0  0  0
    2.5140    8.3106   -4.7015 H   0  0  0  0  0  0  0  0  0  0  0  0
    0.2294    8.5416   -3.8246 H   0  0  0  0  0  0  0  0  0  0  0  0
   -2.9628   10.3884   -3.6121 H   0  0  0  0  0  0  0  0  0  0  0  0
   -2.4777   12.2426   -5.1708 H   0  0  0  0  0  0  0  0  0  0  0  0
   -1.4570   11.7664   -7.3670 H   0  0  0  0  0  0  0  0  0  0  0  0
   -0.9556    9.4388   -8.0108 H   0  0  0  0  0  0  0  0  0  0  0  0
   -1.4441    7.5952   -6.4643 H   0  0  0  0  0  0  0  0  0  0  0  0
    3.7194   -3.3963    1.6778 H   0  0  0  0  0  0  0  0  0  0  0  0
    4.7223   -1.3364    0.7545 H   0  0  0  0  0  0  0  0  0  0  0  0
    6.8083   -1.4659   -0.5594 H   0  0  0  0  0  0  0  0  0  0  0  0
    7.8697   -3.6546   -0.9666 H   0  0  0  0  0  0  0  0  0  0  0  0
    6.8695   -5.7027   -0.0547 H   0  0  0  0  0  0  0  0  0  0  0  0
    7.0699   -8.9651    1.6274 H   0  0  0  0  0  0  0  0  0  0  0  0
    9.4740   -9.0256    2.2044 H   0  0  0  0  0  0  0  0  0  0  0  0
   10.5457   -7.0441    3.2066 H   0  0  0  0  0  0  0  0  0  0  0  0
    9.2202   -5.0045    3.6186 H   0  0  0  0  0  0  0  0  0  0  0  0
    6.8316   -4.9410    3.0370 H   0  0  0  0  0  0  0  0  0  0  0  0
    0.6778    2.6415   -3.7095 H   0  0  0  0  0  0  0  0  0  0  0  0
    0.6702    1.3835   -4.9451 H   0  0  0  0  0  0  0  0  0  0  0  0
   -0.8418    1.8874   -4.1939 H   0  0  0  0  0  0  0  0  0  0  0  0
    2.1239    2.7010   -2.0135 H   0  0  0  0  0  0  0  0  0  0  0  0
    0.8080    3.6355   -1.2890 H   0  0  0  0  0  0  0  0  0  0  0  0
    2.2349    3.2342   -0.3416 H   0  0  0  0  0  0  0  0  0  0  0  0
   -4.4854   -3.8205   -0.0375 H   0  0  0  0  0  0  0  0  0  0  0  0
   -3.8560   -5.3903    0.4740 H   0  0  0  0  0  0  0  0  0  0  0  0
   -3.9865   -2.7532    2.1172 H   0  0  0  0  0  0  0  0  0  0  0  0
   -2.3517   -2.7584    2.7777 H   0  0  0  0  0  0  0  0  0  0  0  0
   -4.1940   -5.1968    2.6840 H   0  0  0  0  0  0  0  0  0  0  0  0
   -3.8699   -4.1912    4.0910 H   0  0  0  0  0  0  0  0  0  0  0  0
   -2.5701   -5.1439    3.3846 H   0  0  0  0  0  0  0  0  0  0  0  0
   -2.2042   -5.3419   -1.3918 H   0  0  0  0  0  0  0  0  0  0  0  0
   -3.8609   -5.2209   -1.9874 H   0  0  0  0  0  0  0  0  0  0  0  0
   -2.8400   -3.7825   -1.9148 H   0  0  0  0  0  0  0  0  0  0  0  0
  1  2  1  0  0  0  0
  2  3  2  0  0  0  0
  3  4  1  0  0  0  0
  4  5  2  0  0  0  0
  5  6  1  0  0  0  0
  6  1  2  0  0  0  0
  1  7  1  0  0  0  0
  7  8  1  0  0  0  0
  8  9  2  0  0  0  0
  9  2  1  0  0  0  0
  8 10  1  0  0  0  0
 10 11  2  0  0  0  0
 11 12  1  0  0  0  0
 12  9  1  0  0  0  0
  4 13  1  0  0  0  0
 13 14  1  0  0  0  0
 14 15  2  0  0  0  0
 15  5  1  0  0  0  0
 14 16  1  0  0  0  0
 16 17  2  0  0  0  0
 17 18  1  0  0  0  0
 18 15  1  0  0  0  0
 11 19  1  0  0  0  0
 17 20  1  0  0  0  0
  7 21  1  0  0  0  0
  7 22  1  0  0  0  0
 19 23  2  0  0  0  0
 23 24  1  0  0  0  0
 24 25  2  0  0  0  0
 25 26  1  0  0  0  0
 26 27  2  0  0  0  0
 27 19  1  0  0  0  0
 20 28  2  0  0  0  0
 28 29  1  0  0  0  0
 29 30  2  0  0  0  0
 30 31  1  0  0  0  0
 31 32  2  0  0  0  0
 32 20  1  0  0  0  0
 25 33  1  0  0  0  0
 33 34  2  0  0  0  0
 30 35  1  0  0  0  0
 35 36  2  0  0  0  0
 36 37  1  0  0  0  0
 37 38  1  0  0  0  0
 38 39  1  0  0  0  0
 39 40  1  0  0  0  0
 40 36  1  0  0  0  0
 34 41  1  0  0  0  0
 41 42  1  0  0  0  0
 42 43  1  0  0  0  0
 43 44  1  0  0  0  0
 44 34  1  0  0  0  0
 42 45  1  0  0  0  0
 41 46  2  0  0  0  0
 43 47  2  0  0  0  0
 37 48  2  0  0  0  0
 38 49  1  0  0  0  0
 39 50  2  0  0  0  0
 45 51  1  0  0  0  0
 49 52  1  0  0  0  0
 26 53  1  0  0  0  0
 53 54  2  0  0  0  0
 54 55  1  0  0  0  0
 55 56  2  0  0  0  0
 56 27  1  0  0  0  0
 54 57  1  0  0  0  0
 55 58  1  0  0  0  0
 58 59  2  0  0  0  0
 59 60  1  0  0  0  0
 60 61  2  0  0  0  0
 61 62  1  0  0  0  0
 62 63  2  0  0  0  0
 63 58  1  0  0  0  0
 57 64  2  0  0  0  0
 64 65  1  0  0  0  0
 65 66  2  0  0  0  0
 66 67  1  0  0  0  0
 67 68  2  0  0  0  0
 68 57  1  0  0  0  0
 31 69  1  0  0  0  0
 69 70  2  0  0  0  0
 70 71  1  0  0  0  0
 71 72  2  0  0  0  0
 72 32  1  0  0  0  0
 70 73  1  0  0  0  0
 71 74  1  0  0  0  0
 74 75  2  0  0  0  0
 75 76  1  0  0  0  0
 76 77  2  0  0  0  0
 77 78  1  0  0  0  0
 78 79  2  0  0  0  0
 79 74  1  0  0  0  0
 73 80  2  0  0  0  0
 80 81  1  0  0  0  0
 81 82  2  0  0  0  0
 82 83  1  0  0  0  0
 83 84  2  0  0  0  0
 84 73  1  0  0  0  0
 21 85  1  0  0  0  0
 22 86  1  0  0  0  0
 13 87  1  0  0  0  0
 13 88  1  0  0  0  0
 88 89  1  0  0  0  0
 87 90  1  0  0  0  0
 47 91  1  0  0  0  0
 47 92  1  0  0  0  0
 50 93  1  0  0  0  0
 50 94  1  0  0  0  0
 94 95  3  0  0  0  0
 93 96  3  0  0  0  0
 91 97  3  0  0  0  0
 92 98  3  0  0  0  0
  3 99  1  0  0  0  0
  6100  1  0  0  0  0
 10101  1  0  0  0  0
 16102  1  0  0  0  0
 21103  1  0  0  0  0
 21104  1  0  0  0  0
 22105  1  0  0  0  0
 22106  1  0  0  0  0
 23107  1  0  0  0  0
 24108  1  0  0  0  0
 28109  1  0  0  0  0
 29110  1  0  0  0  0
 33111  1  0  0  0  0
 35112  1  0  0  0  0
 45113  1  0  0  0  0
 45114  1  0  0  0  0
 49115  1  0  0  0  0
 49116  1  0  0  0  0
 51117  1  0  0  0  0
 51118  1  0  0  0  0
 51119  1  0  0  0  0
 52120  1  0  0  0  0
 52121  1  0  0  0  0
 52122  1  0  0  0  0
 59123  1  0  0  0  0
 60124  1  0  0  0  0
 61125  1  0  0  0  0
 62126  1  0  0  0  0
 63127  1  0  0  0  0
 64128  1  0  0  0  0
 65129  1  0  0  0  0
 66130  1  0  0  0  0
 67131  1  0  0  0  0
 68132  1  0  0  0  0
 75133  1  0  0  0  0
 76134  1  0  0  0  0
 77135  1  0  0  0  0
 78136  1  0  0  0  0
 79137  1  0  0  0  0
 80138  1  0  0  0  0
 81139  1  0  0  0  0
 82140  1  0  0  0  0
 83141  1  0  0  0  0
 84142  1  0  0  0  0
 85143  1  0  0  0  0
 85144  1  0  0  0  0
 85145  1  0  0  0  0
 86146  1  0  0  0  0
 86147  1  0  0  0  0
 86148  1  0  0  0  0
 87149  1  0  0  0  0
 87150  1  0  0  0  0
 88151  1  0  0  0  0
 88152  1  0  0  0  0
 89153  1  0  0  0  0
 89154  1  0  0  0  0
 89155  1  0  0  0  0
 90156  1  0  0  0  0
 90157  1  0  0  0  0
 90158  1  0  0  0  0
M  END
