SeTIC.sdf
  xtb     12222121273D
 energy: -224.932157017035 gnorm: 0.000328477526 xtb: 6.4.1 (unknown)
138152  0     0  0            999 V2000
    0.5571    1.2787   -0.5981 C   0  0  0  0  0  0  0  0  0  0  0  0
    0.9059    2.2241    0.3605 C   0  0  0  0  0  0  0  0  0  0  0  0
   -0.0686    3.1029    0.7818 C   0  0  0  0  0  0  0  0  0  0  0  0
   -1.3807    3.0052    0.2604 C   0  0  0  0  0  0  0  0  0  0  0  0
   -1.7248    2.0751   -0.7125 C   0  0  0  0  0  0  0  0  0  0  0  0
   -0.7422    1.2160   -1.1470 C   0  0  0  0  0  0  0  0  0  0  0  0
    0.1070    4.2119    1.8331 C   0  0  0  0  0  0  0  0  0  0  0  0
   -1.3384    4.4861    2.0888 C   0  0  0  0  0  0  0  0  0  0  0  0
   -2.2236    3.9652    0.9454 C   0  0  0  0  0  0  0  0  0  0  0  0
   -0.8549    0.0791   -2.1446 C   0  0  0  0  0  0  0  0  0  0  0  0
    0.5244   -0.5188   -2.0491 C   0  0  0  0  0  0  0  0  0  0  0  0
    1.3178    0.2149   -1.1815 C   0  0  0  0  0  0  0  0  0  0  0  0
    0.7579    3.7366    3.1140 C   0  0  0  0  0  0  0  0  0  0  0  0
    0.8346    5.3662    1.1712 C   0  0  0  0  0  0  0  0  0  0  0  0
   -1.0374    0.5371   -3.5818 C   0  0  0  0  0  0  0  0  0  0  0  0
   -1.9680   -0.8435   -1.6866 C   0  0  0  0  0  0  0  0  0  0  0  0
    1.1840   -1.5957   -2.6388 C   0  0  0  0  0  0  0  0  0  0  0  0
    2.5273   -1.7512   -2.2346 C   0  0  0  0  0  0  0  0  0  0  0  0
    3.0653   -0.4246   -1.0153 Se  0  0  0  0  0  2  0  0  0  0  0  0
    0.7260   -2.8267   -3.7430 S   0  0  0  0  0  0  0  0  0  0  0  0
    2.3335   -3.5596   -3.6465 C   0  0  0  0  0  0  0  0  0  0  0  0
    3.1665   -2.8455   -2.7992 C   0  0  0  0  0  0  0  0  0  0  0  0
   -2.3179    4.3032    2.9924 C   0  0  0  0  0  0  0  0  0  0  0  0
   -3.3247    3.8172    1.9960 C   0  0  0  0  0  0  0  0  0  0  0  0
   -3.7271    5.1006    0.4415 Se  0  0  0  0  0  2  0  0  0  0  0  0
   -2.7619    3.9138    4.6351 S   0  0  0  0  0  0  0  0  0  0  0  0
   -4.0859    2.8976    3.9874 C   0  0  0  0  0  0  0  0  0  0  0  0
   -4.2236    2.9244    2.6130 C   0  0  0  0  0  0  0  0  0  0  0  0
    1.4802    4.6123    3.9127 C   0  0  0  0  0  0  0  0  0  0  0  0
    1.9997    4.1897    5.1217 C   0  0  0  0  0  0  0  0  0  0  0  0
    1.8014    2.8908    5.5703 C   0  0  0  0  0  0  0  0  0  0  0  0
    1.0662    2.0230    4.7742 C   0  0  0  0  0  0  0  0  0  0  0  0
    0.5438    2.4403    3.5651 C   0  0  0  0  0  0  0  0  0  0  0  0
    0.1492    6.5102    0.7890 C   0  0  0  0  0  0  0  0  0  0  0  0
    0.8103    7.5461    0.1554 C   0  0  0  0  0  0  0  0  0  0  0  0
    2.1699    7.4651   -0.1127 C   0  0  0  0  0  0  0  0  0  0  0  0
    2.8519    6.3171    0.2714 C   0  0  0  0  0  0  0  0  0  0  0  0
    2.1953    5.2798    0.9049 C   0  0  0  0  0  0  0  0  0  0  0  0
   -0.7419    1.8347   -3.9731 C   0  0  0  0  0  0  0  0  0  0  0  0
   -0.8490    2.2033   -5.3023 C   0  0  0  0  0  0  0  0  0  0  0  0
   -1.2423    1.2886   -6.2693 C   0  0  0  0  0  0  0  0  0  0  0  0
   -1.5274   -0.0118   -5.8714 C   0  0  0  0  0  0  0  0  0  0  0  0
   -1.4264   -0.3852   -4.5456 C   0  0  0  0  0  0  0  0  0  0  0  0
   -3.2818   -0.5753   -2.0517 C   0  0  0  0  0  0  0  0  0  0  0  0
   -4.3140   -1.3639   -1.5820 C   0  0  0  0  0  0  0  0  0  0  0  0
   -4.0655   -2.4364   -0.7343 C   0  0  0  0  0  0  0  0  0  0  0  0
   -2.7511   -2.7001   -0.3747 C   0  0  0  0  0  0  0  0  0  0  0  0
   -1.7140   -1.9104   -0.8373 C   0  0  0  0  0  0  0  0  0  0  0  0
    2.5278   -4.7105   -4.4325 C   0  0  0  0  0  0  0  0  0  0  0  0
    3.5752   -5.5882   -4.5189 C   0  0  0  0  0  0  0  0  0  0  0  0
    3.5821   -6.7358   -5.4128 C   0  0  0  0  0  0  0  0  0  0  0  0
    4.7059   -7.5891   -5.0334 C   0  0  0  0  0  0  0  0  0  0  0  0
    5.4356   -6.9447   -4.0209 C   0  0  0  0  0  0  0  0  0  0  0  0
    4.7986   -5.6559   -3.6862 C   0  0  0  0  0  0  0  0  0  0  0  0
    5.1188   -8.8314   -5.4896 C   0  0  0  0  0  0  0  0  0  0  0  0
    6.2547   -9.3994   -4.9277 C   0  0  0  0  0  0  0  0  0  0  0  0
    6.9748   -8.7517   -3.9340 C   0  0  0  0  0  0  0  0  0  0  0  0
    6.5680   -7.5098   -3.4677 C   0  0  0  0  0  0  0  0  0  0  0  0
    5.2192   -4.8508   -2.8804 O   0  0  0  0  0  0  0  0  0  0  0  0
    2.7457   -6.9639   -6.4738 C   0  0  0  0  0  0  0  0  0  0  0  0
    2.8221   -8.0983   -7.3100 C   0  0  0  0  0  0  0  0  0  0  0  0
    1.7232   -6.1025   -6.9267 C   0  0  0  0  0  0  0  0  0  0  0  0
    2.8227   -8.9961   -8.0255 N   0  0  0  0  0  0  0  0  0  0  0  0
    0.8877   -5.4563   -7.3786 N   0  0  0  0  0  0  0  0  0  0  0  0
    2.4018    2.4257    6.8654 C   0  0  0  0  0  0  0  0  0  0  0  0
    3.8188    1.8947    6.6386 C   0  0  0  0  0  0  0  0  0  0  0  0
    2.8765    8.5706   -0.8428 C   0  0  0  0  0  0  0  0  0  0  0  0
    2.8171    8.3348   -2.3534 C   0  0  0  0  0  0  0  0  0  0  0  0
   -1.3035    1.6757   -7.7185 C   0  0  0  0  0  0  0  0  0  0  0  0
    0.0253    1.3612   -8.4090 C   0  0  0  0  0  0  0  0  0  0  0  0
   -5.1879   -3.3125   -0.2594 C   0  0  0  0  0  0  0  0  0  0  0  0
   -5.4770   -4.4125   -1.2829 C   0  0  0  0  0  0  0  0  0  0  0  0
   -4.9224    2.0560    4.7570 C   0  0  0  0  0  0  0  0  0  0  0  0
   -4.9842    1.8308    6.1026 C   0  0  0  0  0  0  0  0  0  0  0  0
   -5.8802    0.8895    6.7525 C   0  0  0  0  0  0  0  0  0  0  0  0
   -5.6374    0.9717    8.1916 C   0  0  0  0  0  0  0  0  0  0  0  0
   -4.6165    1.9090    8.4286 C   0  0  0  0  0  0  0  0  0  0  0  0
   -4.1718    2.4903    7.1499 C   0  0  0  0  0  0  0  0  0  0  0  0
   -6.2168    0.3096    9.2637 C   0  0  0  0  0  0  0  0  0  0  0  0
   -5.7636    0.5970   10.5445 C   0  0  0  0  0  0  0  0  0  0  0  0
   -4.7536    1.5222   10.7680 C   0  0  0  0  0  0  0  0  0  0  0  0
   -4.1669    2.1917    9.7038 C   0  0  0  0  0  0  0  0  0  0  0  0
   -3.3254    3.3470    7.0064 O   0  0  0  0  0  0  0  0  0  0  0  0
   -6.7789    0.0449    6.1517 C   0  0  0  0  0  0  0  0  0  0  0  0
   -6.9972   -0.0916    4.7648 C   0  0  0  0  0  0  0  0  0  0  0  0
   -7.6215   -0.8440    6.8529 C   0  0  0  0  0  0  0  0  0  0  0  0
   -8.3358   -1.5906    7.3533 N   0  0  0  0  0  0  0  0  0  0  0  0
   -7.2333   -0.2832    3.6564 N   0  0  0  0  0  0  0  0  0  0  0  0
    1.9056    2.2405    0.7688 H   0  0  0  0  0  0  0  0  0  0  0  0
   -2.7332    2.0301   -1.0943 H   0  0  0  0  0  0  0  0  0  0  0  0
    4.1856   -3.1303   -2.6091 H   0  0  0  0  0  0  0  0  0  0  0  0
   -4.9872    2.3702    2.0935 H   0  0  0  0  0  0  0  0  0  0  0  0
    1.6325    5.6315    3.5895 H   0  0  0  0  0  0  0  0  0  0  0  0
    2.5592    4.8845    5.7317 H   0  0  0  0  0  0  0  0  0  0  0  0
    0.8899    1.0105    5.1090 H   0  0  0  0  0  0  0  0  0  0  0  0
   -0.0408    1.7529    2.9688 H   0  0  0  0  0  0  0  0  0  0  0  0
   -0.9081    6.5973    0.9979 H   0  0  0  0  0  0  0  0  0  0  0  0
    0.2613    8.4318   -0.1308 H   0  0  0  0  0  0  0  0  0  0  0  0
    3.9119    6.2369    0.0762 H   0  0  0  0  0  0  0  0  0  0  0  0
    2.7476    4.4034    1.2101 H   0  0  0  0  0  0  0  0  0  0  0  0
   -0.4277    2.5635   -3.2398 H   0  0  0  0  0  0  0  0  0  0  0  0
   -0.6206    3.2197   -5.5900 H   0  0  0  0  0  0  0  0  0  0  0  0
   -1.8309   -0.7418   -6.6074 H   0  0  0  0  0  0  0  0  0  0  0  0
   -1.6578   -1.3995   -4.2541 H   0  0  0  0  0  0  0  0  0  0  0  0
   -3.4953    0.2498   -2.7158 H   0  0  0  0  0  0  0  0  0  0  0  0
   -5.3302   -1.1407   -1.8739 H   0  0  0  0  0  0  0  0  0  0  0  0
   -2.5341   -3.5299    0.2828 H   0  0  0  0  0  0  0  0  0  0  0  0
   -0.7009   -2.1284   -0.5303 H   0  0  0  0  0  0  0  0  0  0  0  0
    1.6682   -4.9399   -5.0521 H   0  0  0  0  0  0  0  0  0  0  0  0
    4.5782   -9.3607   -6.2568 H   0  0  0  0  0  0  0  0  0  0  0  0
    6.5815  -10.3681   -5.2749 H   0  0  0  0  0  0  0  0  0  0  0  0
    7.8555   -9.2196   -3.5205 H   0  0  0  0  0  0  0  0  0  0  0  0
    7.1095   -6.9879   -2.6937 H   0  0  0  0  0  0  0  0  0  0  0  0
    1.7848    1.6345    7.2957 H   0  0  0  0  0  0  0  0  0  0  0  0
    2.4376    3.2550    7.5744 H   0  0  0  0  0  0  0  0  0  0  0  0
    4.4527    2.6743    6.2219 H   0  0  0  0  0  0  0  0  0  0  0  0
    3.8029    1.0589    5.9424 H   0  0  0  0  0  0  0  0  0  0  0  0
    4.2541    1.5574    7.5764 H   0  0  0  0  0  0  0  0  0  0  0  0
    3.9206    8.6159   -0.5264 H   0  0  0  0  0  0  0  0  0  0  0  0
    2.4065    9.5281   -0.6097 H   0  0  0  0  0  0  0  0  0  0  0  0
    3.2927    7.3901   -2.6078 H   0  0  0  0  0  0  0  0  0  0  0  0
    3.3273    9.1351   -2.8843 H   0  0  0  0  0  0  0  0  0  0  0  0
    1.7833    8.2980   -2.6898 H   0  0  0  0  0  0  0  0  0  0  0  0
   -1.5135    2.7432   -7.8092 H   0  0  0  0  0  0  0  0  0  0  0  0
   -2.1047    1.1250   -8.2151 H   0  0  0  0  0  0  0  0  0  0  0  0
    0.2452    0.2983   -8.3400 H   0  0  0  0  0  0  0  0  0  0  0  0
    0.8367    1.9098   -7.9355 H   0  0  0  0  0  0  0  0  0  0  0  0
   -0.0164    1.6400   -9.4592 H   0  0  0  0  0  0  0  0  0  0  0  0
   -6.0878   -2.7126   -0.1115 H   0  0  0  0  0  0  0  0  0  0  0  0
   -4.9226   -3.7696    0.6959 H   0  0  0  0  0  0  0  0  0  0  0  0
   -6.2908   -5.0463   -0.9390 H   0  0  0  0  0  0  0  0  0  0  0  0
   -5.7563   -3.9764   -2.2394 H   0  0  0  0  0  0  0  0  0  0  0  0
   -4.5947   -5.0306   -1.4342 H   0  0  0  0  0  0  0  0  0  0  0  0
   -5.6213    1.4999    4.1436 H   0  0  0  0  0  0  0  0  0  0  0  0
   -7.0031   -0.4136    9.1241 H   0  0  0  0  0  0  0  0  0  0  0  0
   -6.2108    0.0859   11.3839 H   0  0  0  0  0  0  0  0  0  0  0  0
   -4.4249    1.7218   11.7767 H   0  0  0  0  0  0  0  0  0  0  0  0
   -3.3809    2.9164    9.8506 H   0  0  0  0  0  0  0  0  0  0  0  0
  1  2  2  0  0  0  0
  2  3  1  0  0  0  0
  3  4  2  0  0  0  0
  4  5  1  0  0  0  0
  5  6  2  0  0  0  0
  6  1  1  0  0  0  0
  3  7  1  0  0  0  0
  7  8  1  0  0  0  0
  8  9  2  0  0  0  0
  9  4  1  0  0  0  0
  6 10  1  0  0  0  0
 10 11  1  0  0  0  0
 11 12  2  0  0  0  0
 12  1  1  0  0  0  0
  7 13  1  0  0  0  0
  7 14  1  0  0  0  0
 10 15  1  0  0  0  0
 10 16  1  0  0  0  0
 11 17  1  0  0  0  0
 17 18  2  0  0  0  0
 18 19  1  0  0  0  0
 19 12  1  0  0  0  0
 17 20  1  0  0  0  0
 20 21  1  0  0  0  0
 21 22  2  0  0  0  0
 22 18  1  0  0  0  0
  8 23  1  0  0  0  0
 23 24  2  0  0  0  0
 24 25  1  0  0  0  0
 25  9  1  0  0  0  0
 23 26  1  0  0  0  0
 26 27  1  0  0  0  0
 27 28  2  0  0  0  0
 28 24  1  0  0  0  0
 13 29  2  0  0  0  0
 29 30  1  0  0  0  0
 30 31  2  0  0  0  0
 31 32  1  0  0  0  0
 32 33  2  0  0  0  0
 33 13  1  0  0  0  0
 14 34  2  0  0  0  0
 34 35  1  0  0  0  0
 35 36  2  0  0  0  0
 36 37  1  0  0  0  0
 37 38  2  0  0  0  0
 38 14  1  0  0  0  0
 15 39  2  0  0  0  0
 39 40  1  0  0  0  0
 40 41  2  0  0  0  0
 41 42  1  0  0  0  0
 42 43  2  0  0  0  0
 43 15  1  0  0  0  0
 16 44  2  0  0  0  0
 44 45  1  0  0  0  0
 45 46  2  0  0  0  0
 46 47  1  0  0  0  0
 47 48  2  0  0  0  0
 48 16  1  0  0  0  0
 21 49  1  0  0  0  0
 49 50  2  0  0  0  0
 50 51  1  0  0  0  0
 51 52  1  0  0  0  0
 52 53  2  0  0  0  0
 53 54  1  0  0  0  0
 54 50  1  0  0  0  0
 52 55  1  0  0  0  0
 55 56  2  0  0  0  0
 56 57  1  0  0  0  0
 57 58  2  0  0  0  0
 58 53  1  0  0  0  0
 54 59  2  0  0  0  0
 51 60  2  0  0  0  0
 60 61  1  0  0  0  0
 60 62  1  0  0  0  0
 61 63  3  0  0  0  0
 62 64  3  0  0  0  0
 31 65  1  0  0  0  0
 65 66  1  0  0  0  0
 36 67  1  0  0  0  0
 67 68  1  0  0  0  0
 41 69  1  0  0  0  0
 69 70  1  0  0  0  0
 46 71  1  0  0  0  0
 71 72  1  0  0  0  0
 27 73  1  0  0  0  0
 73 74  2  0  0  0  0
 74 75  1  0  0  0  0
 75 76  1  0  0  0  0
 76 77  2  0  0  0  0
 77 78  1  0  0  0  0
 78 74  1  0  0  0  0
 76 79  1  0  0  0  0
 79 80  2  0  0  0  0
 80 81  1  0  0  0  0
 81 82  2  0  0  0  0
 82 77  1  0  0  0  0
 78 83  2  0  0  0  0
 75 84  2  0  0  0  0
 84 85  1  0  0  0  0
 84 86  1  0  0  0  0
 86 87  3  0  0  0  0
 85 88  3  0  0  0  0
  2 89  1  0  0  0  0
  5 90  1  0  0  0  0
 22 91  1  0  0  0  0
 28 92  1  0  0  0  0
 29 93  1  0  0  0  0
 30 94  1  0  0  0  0
 32 95  1  0  0  0  0
 33 96  1  0  0  0  0
 34 97  1  0  0  0  0
 35 98  1  0  0  0  0
 37 99  1  0  0  0  0
 38100  1  0  0  0  0
 39101  1  0  0  0  0
 40102  1  0  0  0  0
 42103  1  0  0  0  0
 43104  1  0  0  0  0
 44105  1  0  0  0  0
 45106  1  0  0  0  0
 47107  1  0  0  0  0
 48108  1  0  0  0  0
 49109  1  0  0  0  0
 55110  1  0  0  0  0
 56111  1  0  0  0  0
 57112  1  0  0  0  0
 58113  1  0  0  0  0
 65114  1  0  0  0  0
 65115  1  0  0  0  0
 66116  1  0  0  0  0
 66117  1  0  0  0  0
 66118  1  0  0  0  0
 67119  1  0  0  0  0
 67120  1  0  0  0  0
 68121  1  0  0  0  0
 68122  1  0  0  0  0
 68123  1  0  0  0  0
 69124  1  0  0  0  0
 69125  1  0  0  0  0
 70126  1  0  0  0  0
 70127  1  0  0  0  0
 70128  1  0  0  0  0
 71129  1  0  0  0  0
 71130  1  0  0  0  0
 72131  1  0  0  0  0
 72132  1  0  0  0  0
 72133  1  0  0  0  0
 73134  1  0  0  0  0
 79135  1  0  0  0  0
 80136  1  0  0  0  0
 81137  1  0  0  0  0
 82138  1  0  0  0  0
M  END
