SCF done       -145.257422313669          0.000427119064
 OpenBabel12282109493D

 81 89  0  0  0  0  0  0  0  0999 V2000
   -0.5615   -0.9024    0.4875 C   0  0  0  0  0  0  0  0  0  0  0  0
    5.7033    3.5973    0.1629 C   0  0  0  0  0  0  0  0  0  0  0  0
    5.8596    5.0085    0.2680 C   0  0  0  0  0  0  0  0  0  0  0  0
    7.1628    5.6078    0.1586 C   0  0  0  0  0  0  0  0  0  0  0  0
    8.3302    4.8246   -0.0623 C   0  0  0  0  0  0  0  0  0  0  0  0
    8.1279    3.4503   -0.1518 C   0  0  0  0  0  0  0  0  0  0  0  0
    6.8730    2.8689   -0.0420 C   0  0  0  0  0  0  0  0  0  0  0  0
    4.9126    5.9234    0.4689 N   0  0  0  0  0  0  0  0  0  0  0  0
    5.5920    7.3819    0.5155 S   0  0  0  0  0  0  0  0  0  0  0  0
    7.1151    6.9311    0.2834 N   0  0  0  0  0  0  0  0  0  0  0  0
   -1.4887   -1.9856    0.5116 C   0  0  0  0  0  0  0  0  0  0  0  0
   -2.8917   -1.7741    0.6301 C   0  0  0  0  0  0  0  0  0  0  0  0
   -3.7968   -2.8916    0.6642 C   0  0  0  0  0  0  0  0  0  0  0  0
   -3.3310   -4.2341    0.5889 C   0  0  0  0  0  0  0  0  0  0  0  0
   -1.9534   -4.3900    0.4640 C   0  0  0  0  0  0  0  0  0  0  0  0
   -1.0782   -3.3140    0.4254 C   0  0  0  0  0  0  0  0  0  0  0  0
   -3.5393   -0.6134    0.7168 N   0  0  0  0  0  0  0  0  0  0  0  0
   -5.1194   -0.9003    0.8284 S   0  0  0  0  0  0  0  0  0  0  0  0
   -5.0641   -2.5035    0.7743 N   0  0  0  0  0  0  0  0  0  0  0  0
   -0.8292    0.4534    0.6063 C   0  0  0  0  0  0  0  0  0  0  0  0
    0.3188    1.2280    0.5496 C   0  0  0  0  0  0  0  0  0  0  0  0
    1.4789    0.4668    0.3822 C   0  0  0  0  0  0  0  0  0  0  0  0
    1.1590   -1.2132    0.2988 S   0  0  0  0  0  0  0  0  0  0  0  0
    0.6518    2.6980    0.6224 C   0  0  0  0  0  0  0  0  0  0  0  0
    2.1523    2.6507    0.4694 C   0  0  0  0  0  0  0  0  0  0  0  0
    2.5929    1.3315    0.3312 C   0  0  0  0  0  0  0  0  0  0  0  0
    3.1884    3.5706    0.4295 C   0  0  0  0  0  0  0  0  0  0  0  0
    4.4266    2.9690    0.2580 C   0  0  0  0  0  0  0  0  0  0  0  0
    4.2914    1.2192    0.1476 S   0  0  0  0  0  0  0  0  0  0  0  0
    0.2395    3.3067    1.9756 C   0  0  0  0  0  0  0  0  0  0  0  0
   -0.0106    3.4866   -0.5225 C   0  0  0  0  0  0  0  0  0  0  0  0
    0.8370    2.5720    3.1693 C   0  0  0  0  0  0  0  0  0  0  0  0
    0.3453    2.9492   -1.9031 C   0  0  0  0  0  0  0  0  0  0  0  0
   -4.2901   -5.2861    0.6518 C   0  0  0  0  0  0  0  0  0  0  0  0
   -4.1133   -6.6291    0.6420 C   0  0  0  0  0  0  0  0  0  0  0  0
   -5.2609   -7.5390    0.7350 C   0  0  0  0  0  0  0  0  0  0  0  0
   -4.8341   -8.8580    0.7251 N   0  0  0  0  0  0  0  0  0  0  0  0
   -3.5019   -9.0801    0.6273 C   0  0  0  0  0  0  0  0  0  0  0  0
   -2.6308   -7.5503    0.5421 S   0  0  0  0  0  0  0  0  0  0  0  0
   -2.7731  -10.5384    0.6032 S   0  0  0  0  0  0  0  0  0  0  0  0
   -5.7949   -9.9426    0.7871 C   0  0  0  0  0  0  0  0  0  0  0  0
   -6.1195  -10.4720   -0.6039 C   0  0  0  0  0  0  0  0  0  0  0  0
   -6.4233   -7.2162    0.8217 O   0  0  0  0  0  0  0  0  0  0  0  0
    9.5827    5.4946   -0.1759 C   0  0  0  0  0  0  0  0  0  0  0  0
   10.8178    4.9972   -0.4257 C   0  0  0  0  0  0  0  0  0  0  0  0
   11.9819    5.8857   -0.5192 C   0  0  0  0  0  0  0  0  0  0  0  0
   13.1249    5.1564   -0.8087 N   0  0  0  0  0  0  0  0  0  0  0  0
   12.9904    3.8154   -0.9402 C   0  0  0  0  0  0  0  0  0  0  0  0
   11.3103    3.3418   -0.6978 S   0  0  0  0  0  0  0  0  0  0  0  0
   14.1863    2.7617   -1.2841 S   0  0  0  0  0  0  0  0  0  0  0  0
   14.4089    5.8189   -0.9345 C   0  0  0  0  0  0  0  0  0  0  0  0
   15.1995    5.7446    0.3654 C   0  0  0  0  0  0  0  0  0  0  0  0
   11.9767    7.0871   -0.3799 O   0  0  0  0  0  0  0  0  0  0  0  0
    8.9746    2.8021   -0.3119 H   0  0  0  0  0  0  0  0  0  0  0  0
    6.7967    1.7943   -0.1234 H   0  0  0  0  0  0  0  0  0  0  0  0
   -1.5395   -5.3832    0.3938 H   0  0  0  0  0  0  0  0  0  0  0  0
   -0.0212   -3.5157    0.3287 H   0  0  0  0  0  0  0  0  0  0  0  0
   -1.8312    0.8207    0.7283 H   0  0  0  0  0  0  0  0  0  0  0  0
    3.0880    4.6365    0.5160 H   0  0  0  0  0  0  0  0  0  0  0  0
    0.5603    4.3501    1.9940 H   0  0  0  0  0  0  0  0  0  0  0  0
   -0.8498    3.2851    2.0447 H   0  0  0  0  0  0  0  0  0  0  0  0
   -1.0930    3.4460   -0.3856 H   0  0  0  0  0  0  0  0  0  0  0  0
    0.3023    4.5298   -0.4472 H   0  0  0  0  0  0  0  0  0  0  0  0
    1.9237    2.5874    3.1282 H   0  0  0  0  0  0  0  0  0  0  0  0
    0.5228    3.0493    4.0942 H   0  0  0  0  0  0  0  0  0  0  0  0
    0.5074    1.5357    3.1899 H   0  0  0  0  0  0  0  0  0  0  0  0
    0.0276    1.9143   -2.0083 H   0  0  0  0  0  0  0  0  0  0  0  0
   -0.1505    3.5389   -2.6702 H   0  0  0  0  0  0  0  0  0  0  0  0
    1.4184    2.9995   -2.0727 H   0  0  0  0  0  0  0  0  0  0  0  0
   -5.3227   -4.9634    0.7295 H   0  0  0  0  0  0  0  0  0  0  0  0
   -5.3713  -10.7354    1.4083 H   0  0  0  0  0  0  0  0  0  0  0  0
   -6.6912   -9.5330    1.2588 H   0  0  0  0  0  0  0  0  0  0  0  0
   -5.2241  -10.8690   -1.0764 H   0  0  0  0  0  0  0  0  0  0  0  0
   -6.8542  -11.2679   -0.5262 H   0  0  0  0  0  0  0  0  0  0  0  0
   -6.5278   -9.6773   -1.2240 H   0  0  0  0  0  0  0  0  0  0  0  0
    9.5418    6.5716   -0.0532 H   0  0  0  0  0  0  0  0  0  0  0  0
   14.9607    5.3365   -1.7448 H   0  0  0  0  0  0  0  0  0  0  0  0
   14.1944    6.8587   -1.1921 H   0  0  0  0  0  0  0  0  0  0  0  0
   15.4008    4.7085    0.6272 H   0  0  0  0  0  0  0  0  0  0  0  0
   16.1458    6.2631    0.2440 H   0  0  0  0  0  0  0  0  0  0  0  0
   14.6429    6.2149    1.1727 H   0  0  0  0  0  0  0  0  0  0  0  0
  1 11  1  0  0  0  0
  1 20  2  0  0  0  0
  2 28  1  0  0  0  0
  2  3  1  0  0  0  0
  3  8  2  0  0  0  0
  4  3  1  0  0  0  0
  4 10  2  0  0  0  0
  5  4  1  0  0  0  0
  6  5  2  0  0  0  0
  6  7  1  0  0  0  0
  7  2  2  0  0  0  0
  8  9  1  0  0  0  0
 10  9  1  0  0  0  0
 11 12  1  0  0  0  0
 12 13  1  0  0  0  0
 12 17  2  0  0  0  0
 13 19  2  0  0  0  0
 14 34  1  0  0  0  0
 14 13  1  0  0  0  0
 15 14  2  0  0  0  0
 16 15  1  0  0  0  0
 16 11  2  0  0  0  0
 17 18  1  0  0  0  0
 19 18  1  0  0  0  0
 20 58  1  0  0  0  0
 21 20  1  0  0  0  0
 21 24  1  0  0  0  0
 22 21  2  0  0  0  0
 23 22  1  0  0  0  0
 23  1  1  0  0  0  0
 24 30  1  0  0  0  0
 25 24  1  0  0  0  0
 26 22  1  0  0  0  0
 26 25  2  0  0  0  0
 27 25  1  0  0  0  0
 27 59  1  0  0  0  0
 28 27  2  0  0  0  0
 29 28  1  0  0  0  0
 29 26  1  0  0  0  0
 30 60  1  0  0  0  0
 30 61  1  0  0  0  0
 30 32  1  0  0  0  0
 31 63  1  0  0  0  0
 31 62  1  0  0  0  0
 31 24  1  0  0  0  0
 32 66  1  0  0  0  0
 32 65  1  0  0  0  0
 33 31  1  0  0  0  0
 34 70  1  0  0  0  0
 35 34  2  0  0  0  0
 35 36  1  0  0  0  0
 36 43  2  0  0  0  0
 37 36  1  0  0  0  0
 37 41  1  0  0  0  0
 38 37  1  0  0  0  0
 39 38  1  0  0  0  0
 39 35  1  0  0  0  0
 40 38  2  0  0  0  0
 41 72  1  0  0  0  0
 41 71  1  0  0  0  0
 42 74  1  0  0  0  0
 42 41  1  0  0  0  0
 44  5  1  0  0  0  0
 44 76  1  0  0  0  0
 45 44  2  0  0  0  0
 46 45  1  0  0  0  0
 46 53  2  0  0  0  0
 47 46  1  0  0  0  0
 48 47  1  0  0  0  0
 48 49  1  0  0  0  0
 49 45  1  0  0  0  0
 50 48  2  0  0  0  0
 51 47  1  0  0  0  0
 51 52  1  0  0  0  0
 52 79  1  0  0  0  0
 52 81  1  0  0  0  0
 54  6  1  0  0  0  0
 55  7  1  0  0  0  0
 56 15  1  0  0  0  0
 57 16  1  0  0  0  0
 64 32  1  0  0  0  0
 67 33  1  0  0  0  0
 68 33  1  0  0  0  0
 69 33  1  0  0  0  0
 73 42  1  0  0  0  0
 75 42  1  0  0  0  0
 77 51  1  0  0  0  0
 78 51  1  0  0  0  0
 80 52  1  0  0  0  0
M  END
