SCF done       -182.980942257830          0.000850193149
 OpenBabel12282109493D

 94104  0  0  1  0  0  0  0  0999 V2000
   -4.0214   17.7864  -24.1797 C   0  0  0  0  0  0  0  0  0  0  0  0
   -3.6527   16.8219  -23.5316 O   0  0  0  0  0  0  0  0  0  0  0  0
   -4.3961   17.7797  -25.6074 C   0  0  0  0  0  0  0  0  0  0  0  0
   -4.4019   16.7210  -26.4913 C   0  0  0  0  0  0  0  0  0  0  0  0
   -4.7885   16.9628  -27.8038 C   0  0  0  0  0  0  0  0  0  0  0  0
   -4.8070   15.6732  -28.9377 Cl  0  0  0  0  0  0  0  0  0  0  0  0
   -5.1599   18.2511  -28.2022 C   0  0  0  0  0  0  0  0  0  0  0  0
   -5.6335   18.5377  -29.8280 Cl  0  0  0  0  0  0  0  0  0  0  0  0
   -5.1532   19.3149  -27.3053 C   0  0  0  0  0  0  0  0  0  0  0  0
   -4.7678   19.0779  -25.9966 C   0  0  0  0  0  0  0  0  0  0  0  0
   -4.6517   19.9672  -24.8403 C   0  0  0  0  0  0  0  0  0  0  0  0
   -4.9456   21.3071  -24.8466 C   0  0  0  0  0  0  0  0  0  0  0  0
   -4.8472   22.1808  -23.7439 C   0  0  0  0  0  0  0  0  0  0  0  0
   -4.7959   22.9568  -22.8977 N   0  0  0  0  0  0  0  0  0  0  0  0
   -5.3993   22.0112  -25.9823 C   0  0  0  0  0  0  0  0  0  0  0  0
   -5.7694   22.6465  -26.8639 N   0  0  0  0  0  0  0  0  0  0  0  0
   -4.1796   19.1686  -23.7272 C   0  0  0  0  0  0  0  0  0  0  0  0
   -3.9059   19.6486  -22.4665 C   0  0  0  0  0  0  0  0  0  0  0  0
   -3.4282   19.0046  -21.3238 C   0  0  0  0  0  0  0  0  0  0  0  0
   -3.0455   17.2842  -21.2191 S   0  0  0  0  0  0  0  0  0  0  0  0
   -2.5543   17.4813  -19.5804 C   0  0  0  0  0  0  0  0  0  0  0  0
   -2.6845   18.8136  -19.1462 C   0  0  0  0  0  0  0  0  0  0  0  0
   -3.1763   19.6783  -20.1129 C   0  0  0  0  0  0  0  0  0  0  0  0
   -3.4411   21.1237  -19.8474 C   0  0  0  0  0  0  0  0  0  0  0  0
   -4.9125   21.3491  -19.4874 C   0  0  0  0  0  0  0  0  0  0  0  0
   -2.1568   19.0672  -17.4919 S   0  0  0  0  0  0  0  0  0  0  0  0
   -1.7533   17.3885  -17.3996 C   0  0  0  0  0  0  0  0  0  0  0  0
   -2.0342   16.6719  -18.5678 C   0  0  0  0  0  0  0  0  0  0  0  0
   -1.6851   15.3544  -18.4141 N   0  0  0  0  0  0  0  0  0  0  0  0
   -1.4459   14.6078  -19.6328 C   0  0  0  0  0  0  0  0  0  0  0  0
   -1.1531   15.2071  -17.1385 C   0  0  0  0  0  0  0  0  0  0  0  0
   -1.1686   16.4873  -16.5024 C   0  0  0  0  0  0  0  0  0  0  0  0
   -0.5782   16.7148  -15.2400 C   0  0  0  0  0  0  0  0  0  0  0  0
   -0.4835   17.8487  -14.5627 N   0  0  0  0  0  0  0  0  0  0  0  0
    0.3658   17.5666  -13.2136 S   0  0  0  0  0  0  0  0  0  0  0  0
    0.6401   15.9892  -13.4411 N   0  0  0  0  0  0  0  0  0  0  0  0
    0.0766   15.6256  -14.5819 C   0  0  0  0  0  0  0  0  0  0  0  0
   -0.0149   14.3383  -15.1548 C   0  0  0  0  0  0  0  0  0  0  0  0
   -0.6840   14.0930  -16.3875 C   0  0  0  0  0  0  0  0  0  0  0  0
   -0.7586   12.7236  -16.5680 N   0  0  0  0  0  0  0  0  0  0  0  0
   -1.5101   11.9971  -17.5608 C   0  0  0  0  0  0  0  0  0  0  0  0
   -0.6124   11.4447  -18.6711 C   0  0  0  0  0  0  0  0  0  0  0  0
   -0.1338   12.1019  -15.5040 C   0  0  0  0  0  0  0  0  0  0  0  0
    0.3605   13.0949  -14.6352 C   0  0  0  0  0  0  0  0  0  0  0  0
    1.1731   12.4875  -13.2651 S   0  0  0  0  0  0  0  0  0  0  0  0
    0.8372   10.8475  -13.8273 C   0  0  1  0  0  0  0  0  0  0  0  0
    0.1098   10.8072  -15.0401 C   0  0  0  0  0  0  0  0  0  0  0  0
    1.9724    9.5089  -12.0013 C   0  0  0  0  0  0  0  0  0  0  0  0
    2.3364    8.2168  -11.4555 C   0  0  0  0  0  0  0  0  0  0  0  0
    2.0331    6.9758  -11.9585 C   0  0  0  0  0  0  0  0  0  0  0  0
    2.4241    5.7606  -11.3575 C   0  0  0  0  0  0  0  0  0  0  0  0
    2.7016    4.7333  -10.9265 N   0  0  0  0  0  0  0  0  0  0  0  0
    1.2988    6.7111  -13.1323 C   0  0  0  0  0  0  0  0  0  0  0  0
    0.7161    6.4007  -14.0735 N   0  0  0  0  0  0  0  0  0  0  0  0
    3.1150    8.4574  -10.2405 C   0  0  0  0  0  0  0  0  0  0  0  0
    3.7115    7.5883   -9.3420 C   0  0  0  0  0  0  0  0  0  0  0  0
    4.4101    8.1205   -8.2633 C   0  0  0  0  0  0  0  0  0  0  0  0
    5.1548    7.0490   -7.1459 Cl  0  0  0  0  0  0  0  0  0  0  0  0
    4.5163    9.5025   -8.0766 C   0  0  0  0  0  0  0  0  0  0  0  0
    5.3889   10.1241   -6.7347 Cl  0  0  0  0  0  0  0  0  0  0  0  0
    3.9180   10.3773   -8.9755 C   0  0  0  0  0  0  0  0  0  0  0  0
    3.2269    9.8439  -10.0429 C   0  0  0  0  0  0  0  0  0  0  0  0
    2.5159   10.5540  -11.1273 C   0  0  0  0  0  0  0  0  0  0  0  0
    2.4186   11.7594  -11.2484 O   0  0  0  0  0  0  0  0  0  0  0  0
   -0.0259   14.8454  -20.1429 C   0  0  0  0  0  0  0  0  0  0  0  0
   -0.3900    9.5212  -15.6265 C   0  0  0  0  0  0  0  0  0  0  0  0
   -1.6790    9.0729  -14.9292 C   0  0  0  0  0  0  0  0  0  0  0  0
    1.2485    9.6907  -13.1566 C   0  0  0  0  0  0  0  0  0  0  0  0
   -4.1123   15.7331  -26.1699 H   0  0  0  0  0  0  0  0  0  0  0  0
   -5.4456   20.2924  -27.6514 H   0  0  0  0  0  0  0  0  0  0  0  0
   -4.0736   20.7067  -22.3206 H   0  0  0  0  0  0  0  0  0  0  0  0
   -2.8173   21.4359  -19.0075 H   0  0  0  0  0  0  0  0  0  0  0  0
   -3.1827   21.7369  -20.7119 H   0  0  0  0  0  0  0  0  0  0  0  0
   -5.1781   20.7742  -18.6034 H   0  0  0  0  0  0  0  0  0  0  0  0
   -5.0832   22.4023  -19.2845 H   0  0  0  0  0  0  0  0  0  0  0  0
   -5.5607   21.0477  -20.3068 H   0  0  0  0  0  0  0  0  0  0  0  0
   -1.6268   13.5484  -19.4965 H   0  0  0  0  0  0  0  0  0  0  0  0
   -2.1639   14.9760  -20.3702 H   0  0  0  0  0  0  0  0  0  0  0  0
   -2.0208   11.1709  -17.0590 H   0  0  0  0  0  0  0  0  0  0  0  0
   -2.2874   12.6545  -17.9542 H   0  0  0  0  0  0  0  0  0  0  0  0
    0.0884   10.7177  -18.2690 H   0  0  0  0  0  0  0  0  0  0  0  0
   -1.2175   10.9569  -19.4311 H   0  0  0  0  0  0  0  0  0  0  0  0
   -0.0250   12.2307  -19.1362 H   0  0  0  0  0  0  0  0  0  0  0  0
    3.6542    6.5180   -9.4511 H   0  0  0  0  0  0  0  0  0  0  0  0
    3.9909   11.4455   -8.8460 H   0  0  0  0  0  0  0  0  0  0  0  0
    0.1278   15.9021  -20.3489 H   0  0  0  0  0  0  0  0  0  0  0  0
    0.7082   14.5308  -19.4031 H   0  0  0  0  0  0  0  0  0  0  0  0
    0.1344   14.2887  -21.0618 H   0  0  0  0  0  0  0  0  0  0  0  0
   -0.5850    9.6336  -16.6898 H   0  0  0  0  0  0  0  0  0  0  0  0
    0.3581    8.7338  -15.5247 H   0  0  0  0  0  0  0  0  0  0  0  0
   -2.4594    9.8245  -15.0349 H   0  0  0  0  0  0  0  0  0  0  0  0
   -2.0282    8.1404  -15.3640 H   0  0  0  0  0  0  0  0  0  0  0  0
   -1.5054    8.9124  -13.8685 H   0  0  0  0  0  0  0  0  0  0  0  0
    0.9477    8.7752  -13.6450 H   0  0  0  0  0  0  0  0  0  0  0  0
  1 17  1  0  0  0  0
  1  2  2  0  0  0  0
  3  1  1  0  0  0  0
  4 69  1  0  0  0  0
  4  3  2  0  0  0  0
  5  4  1  0  0  0  0
  6  5  1  0  0  0  0
  7  5  2  0  0  0  0
  7  9  1  0  0  0  0
  8  7  1  0  0  0  0
  9 10  2  0  0  0  0
 10  3  1  0  0  0  0
 10 11  1  0  0  0  0
 11 17  1  0  0  0  0
 12 11  2  0  0  0  0
 12 13  1  0  0  0  0
 13 14  3  0  0  0  0
 15 12  1  0  0  0  0
 16 15  3  0  0  0  0
 17 18  2  0  0  0  0
 18 71  1  0  0  0  0
 18 19  1  0  0  0  0
 19 20  1  0  0  0  0
 19 23  2  0  0  0  0
 20 21  1  0  0  0  0
 21 22  2  0  0  0  0
 21 28  1  0  0  0  0
 22 26  1  0  0  0  0
 23 24  1  0  0  0  0
 23 22  1  0  0  0  0
 24 25  1  0  0  0  0
 24 72  1  0  0  0  0
 25 75  1  0  0  0  0
 25 74  1  0  0  0  0
 26 27  1  0  0  0  0
 27 32  1  0  0  0  0
 28 29  1  0  0  0  0
 28 27  2  0  0  0  0
 29 31  1  0  0  0  0
 30 77  1  0  0  0  0
 30 29  1  0  0  0  0
 31 32  1  0  0  0  0
 31 39  2  0  0  0  0
 32 33  2  0  0  0  0
 33 37  1  0  0  0  0
 33 34  1  0  0  0  0
 34 35  1  0  0  0  0
 36 35  1  0  0  0  0
 37 36  2  0  0  0  0
 38 44  2  0  0  0  0
 38 37  1  0  0  0  0
 39 38  1  0  0  0  0
 40 39  1  0  0  0  0
 40 43  1  0  0  0  0
 41 79  1  0  0  0  0
 41 40  1  0  0  0  0
 42 81  1  0  0  0  0
 42 41  1  0  0  0  0
 43 47  2  0  0  0  0
 43 44  1  0  0  0  0
 44 45  1  0  0  0  0
 46 45  1  0  0  0  0
 46 68  1  6  0  0  0
 47 46  1  0  0  0  0
 48 49  1  0  0  0  0
 48 63  1  0  0  0  0
 49 55  1  0  0  0  0
 50 49  2  0  0  0  0
 50 51  1  0  0  0  0
 51 52  3  0  0  0  0
 53 50  1  0  0  0  0
 54 53  3  0  0  0  0
 55 62  2  0  0  0  0
 55 56  1  0  0  0  0
 56 57  2  0  0  0  0
 57 59  1  0  0  0  0
 57 58  1  0  0  0  0
 59 60  1  0  0  0  0
 61 85  1  0  0  0  0
 61 59  2  0  0  0  0
 62 61  1  0  0  0  0
 63 62  1  0  0  0  0
 64 63  2  0  0  0  0
 65 30  1  0  0  0  0
 65 87  1  0  0  0  0
 66 90  1  0  0  0  0
 66 47  1  0  0  0  0
 66 67  1  0  0  0  0
 67 93  1  0  0  0  0
 68 48  2  0  0  0  0
 70  9  1  0  0  0  0
 73 24  1  0  0  0  0
 76 25  1  0  0  0  0
 78 30  1  0  0  0  0
 80 41  1  0  0  0  0
 82 42  1  0  0  0  0
 83 42  1  0  0  0  0
 84 56  1  0  0  0  0
 86 65  1  0  0  0  0
 88 65  1  0  0  0  0
 89 66  1  0  0  0  0
 91 67  1  0  0  0  0
 92 67  1  0  0  0  0
 94 68  1  0  0  0  0
M  RAD  2  34   2  46   2
M  END
