SCF done       -212.275230314889          0.000508249392
 OpenBabel12282109493D

113124  0  0  0  0  0  0  0  0999 V2000
    3.1610   -0.8644   -9.9667 C   0  0  0  0  0  0  0  0  0  0  0  0
    1.9984   -1.0481   -9.6566 O   0  0  0  0  0  0  0  0  0  0  0  0
    4.0224   -1.8050  -10.7141 C   0  0  0  0  0  0  0  0  0  0  0  0
    3.7072   -3.0602  -11.1940 C   0  0  0  0  0  0  0  0  0  0  0  0
    4.6994   -3.7591  -11.8629 C   0  0  0  0  0  0  0  0  0  0  0  0
    5.9659   -3.2016  -12.0378 C   0  0  0  0  0  0  0  0  0  0  0  0
    6.2806   -1.9389  -11.5566 C   0  0  0  0  0  0  0  0  0  0  0  0
    5.2940   -1.2331  -10.8866 C   0  0  0  0  0  0  0  0  0  0  0  0
    5.3026    0.0932  -10.2648 C   0  0  0  0  0  0  0  0  0  0  0  0
    6.3734    0.9500  -10.2569 C   0  0  0  0  0  0  0  0  0  0  0  0
    6.4016    2.2319   -9.6690 C   0  0  0  0  0  0  0  0  0  0  0  0
    6.5092    3.2830   -9.2182 N   0  0  0  0  0  0  0  0  0  0  0  0
    7.6205    0.6631  -10.8522 C   0  0  0  0  0  0  0  0  0  0  0  0
    8.6570    0.4934  -11.3149 N   0  0  0  0  0  0  0  0  0  0  0  0
    3.9925    0.3075   -9.6869 C   0  0  0  0  0  0  0  0  0  0  0  0
    3.5994    1.4180   -8.9756 C   0  0  0  0  0  0  0  0  0  0  0  0
  -10.5041    9.4860    2.0660 C   0  0  0  0  0  0  0  0  0  0  0  0
   -9.5514    9.1639    1.3794 O   0  0  0  0  0  0  0  0  0  0  0  0
  -10.5307   10.5804    3.0590 C   0  0  0  0  0  0  0  0  0  0  0  0
   -9.5102   11.4375    3.4185 C   0  0  0  0  0  0  0  0  0  0  0  0
   -9.7830   12.3890    4.3883 C   0  0  0  0  0  0  0  0  0  0  0  0
  -11.0479   12.4664    4.9710 C   0  0  0  0  0  0  0  0  0  0  0  0
  -12.0729   11.6047    4.6080 C   0  0  0  0  0  0  0  0  0  0  0  0
  -11.8084   10.6498    3.6391 C   0  0  0  0  0  0  0  0  0  0  0  0
  -12.6521    9.6092    3.0466 C   0  0  0  0  0  0  0  0  0  0  0  0
  -13.9690    9.3925    3.3610 C   0  0  0  0  0  0  0  0  0  0  0  0
  -14.8012    8.4025    2.7974 C   0  0  0  0  0  0  0  0  0  0  0  0
  -15.5456    7.6277    2.3909 N   0  0  0  0  0  0  0  0  0  0  0  0
  -14.6909   10.1494    4.3085 C   0  0  0  0  0  0  0  0  0  0  0  0
  -15.3347   10.7238    5.0654 N   0  0  0  0  0  0  0  0  0  0  0  0
  -11.8395    8.8878    2.0894 C   0  0  0  0  0  0  0  0  0  0  0  0
  -12.2467    7.8060    1.3424 C   0  0  0  0  0  0  0  0  0  0  0  0
  -11.5552    7.0320    0.4075 C   0  0  0  0  0  0  0  0  0  0  0  0
   -9.8913    7.2541   -0.1218 S   0  0  0  0  0  0  0  0  0  0  0  0
  -10.0441    5.8968   -1.1483 C   0  0  0  0  0  0  0  0  0  0  0  0
  -11.3120    5.2861   -1.0954 C   0  0  0  0  0  0  0  0  0  0  0  0
  -12.1582    5.9310   -0.2290 C   0  0  0  0  0  0  0  0  0  0  0  0
   -9.2381    5.1584   -2.0380 C   0  0  0  0  0  0  0  0  0  0  0  0
   -9.9696    4.0798   -2.5513 C   0  0  0  0  0  0  0  0  0  0  0  0
  -11.3835    4.0956   -2.0246 C   0  0  0  0  0  0  0  0  0  0  0  0
   -7.6198    5.1919   -2.6023 S   0  0  0  0  0  0  0  0  0  0  0  0
   -7.9120    3.7259   -3.5167 C   0  0  0  0  0  0  0  0  0  0  0  0
   -9.2142    3.2625   -3.3764 C   0  0  0  0  0  0  0  0  0  0  0  0
   -6.8779    3.1295   -4.2752 C   0  0  0  0  0  0  0  0  0  0  0  0
   -3.3085    2.6266   -5.8458 C   0  0  0  0  0  0  0  0  0  0  0  0
   -2.6498    1.3135   -6.7978 S   0  0  0  0  0  0  0  0  0  0  0  0
   -1.1435    2.1326   -6.8555 C   0  0  0  0  0  0  0  0  0  0  0  0
   -1.1557    3.3608   -6.1831 C   0  0  0  0  0  0  0  0  0  0  0  0
   -2.3813    3.6363   -5.6063 C   0  0  0  0  0  0  0  0  0  0  0  0
    0.1372    1.9246   -7.4108 C   0  0  0  0  0  0  0  0  0  0  0  0
    0.9507    3.0310   -7.0914 C   0  0  0  0  0  0  0  0  0  0  0  0
    0.1961    4.0323   -6.2489 C   0  0  0  0  0  0  0  0  0  0  0  0
    0.9241    0.7391   -8.3544 S   0  0  0  0  0  0  0  0  0  0  0  0
    2.3822    1.7239   -8.3619 C   0  0  0  0  0  0  0  0  0  0  0  0
    2.2030    2.9203   -7.6421 C   0  0  0  0  0  0  0  0  0  0  0  0
    0.7558    4.1218   -4.8117 C   0  0  0  0  0  0  0  0  0  0  0  0
    2.1883    4.6265   -4.7069 C   0  0  0  0  0  0  0  0  0  0  0  0
    0.1224    5.4128   -6.9204 C   0  0  0  0  0  0  0  0  0  0  0  0
   -0.5599    5.3675   -8.2827 C   0  0  0  0  0  0  0  0  0  0  0  0
  -12.4060    4.4150   -3.1385 C   0  0  0  0  0  0  0  0  0  0  0  0
  -12.5160    3.3599   -4.2307 C   0  0  0  0  0  0  0  0  0  0  0  0
  -11.7327    2.7955   -1.2839 C   0  0  0  0  0  0  0  0  0  0  0  0
  -10.8226    2.5367   -0.0890 C   0  0  0  0  0  0  0  0  0  0  0  0
  -11.2837   13.3937    5.9058 F   0  0  0  0  0  0  0  0  0  0  0  0
   -8.8235   13.2407    4.7699 F   0  0  0  0  0  0  0  0  0  0  0  0
    4.4406   -4.9809  -12.3445 F   0  0  0  0  0  0  0  0  0  0  0  0
    6.9060   -3.8995  -12.6850 F   0  0  0  0  0  0  0  0  0  0  0  0
   -5.2942    3.8833   -4.3841 S   0  0  0  0  0  0  0  0  0  0  0  0
   -4.6463    2.5999   -5.3935 C   0  0  0  0  0  0  0  0  0  0  0  0
   -5.6318    1.6652   -5.6111 C   0  0  0  0  0  0  0  0  0  0  0  0
   -6.8742    1.9550   -4.9988 C   0  0  0  0  0  0  0  0  0  0  0  0
   -5.7478    0.3957   -6.3280 C   0  0  0  0  0  0  0  0  0  0  0  0
   -7.0576   -0.0154   -6.1110 N   0  0  0  0  0  0  0  0  0  0  0  0
   -7.8005    0.8639   -5.3346 C   0  0  0  0  0  0  0  0  0  0  0  0
   -7.6091   -1.2259   -6.6816 C   0  0  0  0  0  0  0  0  0  0  0  0
   -8.1496   -0.9783   -8.0854 C   0  0  0  0  0  0  0  0  0  0  0  0
   -8.9605    0.6960   -5.0353 O   0  0  0  0  0  0  0  0  0  0  0  0
   -4.9243   -0.2133   -6.9698 O   0  0  0  0  0  0  0  0  0  0  0  0
    2.7266   -3.4867  -11.0550 H   0  0  0  0  0  0  0  0  0  0  0  0
    7.2745   -1.5558  -11.7186 H   0  0  0  0  0  0  0  0  0  0  0  0
    4.3435    2.1946   -8.8468 H   0  0  0  0  0  0  0  0  0  0  0  0
   -8.5340   11.3729    2.9651 H   0  0  0  0  0  0  0  0  0  0  0  0
  -13.0309   11.7076    5.0902 H   0  0  0  0  0  0  0  0  0  0  0  0
  -13.2666    7.4734    1.4926 H   0  0  0  0  0  0  0  0  0  0  0  0
  -13.1752    5.6486   -0.0218 H   0  0  0  0  0  0  0  0  0  0  0  0
   -9.5498    2.3591   -3.8531 H   0  0  0  0  0  0  0  0  0  0  0  0
   -2.6280    4.5166   -5.0395 H   0  0  0  0  0  0  0  0  0  0  0  0
    2.9904    3.6490   -7.5666 H   0  0  0  0  0  0  0  0  0  0  0  0
    0.0975    4.7790   -4.2398 H   0  0  0  0  0  0  0  0  0  0  0  0
    0.6983    3.1255   -4.3663 H   0  0  0  0  0  0  0  0  0  0  0  0
    2.2879    5.6278   -5.1161 H   0  0  0  0  0  0  0  0  0  0  0  0
    2.4815    4.6602   -3.6602 H   0  0  0  0  0  0  0  0  0  0  0  0
    2.8724    3.9626   -5.2274 H   0  0  0  0  0  0  0  0  0  0  0  0
   -0.4235    6.0908   -6.2615 H   0  0  0  0  0  0  0  0  0  0  0  0
    1.1351    5.7971   -7.0434 H   0  0  0  0  0  0  0  0  0  0  0  0
   -1.5883    5.0258   -8.1912 H   0  0  0  0  0  0  0  0  0  0  0  0
   -0.5666    6.3594   -8.7277 H   0  0  0  0  0  0  0  0  0  0  0  0
   -0.0330    4.6941   -8.9548 H   0  0  0  0  0  0  0  0  0  0  0  0
  -13.3809    4.5505   -2.6660 H   0  0  0  0  0  0  0  0  0  0  0  0
  -12.1218    5.3684   -3.5913 H   0  0  0  0  0  0  0  0  0  0  0  0
  -12.8654    2.4120   -3.8321 H   0  0  0  0  0  0  0  0  0  0  0  0
  -13.2300    3.6933   -4.9804 H   0  0  0  0  0  0  0  0  0  0  0  0
  -11.5595    3.2019   -4.7200 H   0  0  0  0  0  0  0  0  0  0  0  0
  -12.7695    2.8544   -0.9479 H   0  0  0  0  0  0  0  0  0  0  0  0
  -11.6436    1.9638   -1.9827 H   0  0  0  0  0  0  0  0  0  0  0  0
  -10.9060    3.3346    0.6455 H   0  0  0  0  0  0  0  0  0  0  0  0
  -11.0975    1.6005    0.3901 H   0  0  0  0  0  0  0  0  0  0  0  0
   -9.7841    2.4668   -0.4049 H   0  0  0  0  0  0  0  0  0  0  0  0
   -6.8088   -1.9693   -6.7088 H   0  0  0  0  0  0  0  0  0  0  0  0
   -8.4086   -1.5627   -6.0176 H   0  0  0  0  0  0  0  0  0  0  0  0
   -7.3504   -0.6382   -8.7399 H   0  0  0  0  0  0  0  0  0  0  0  0
   -8.5629   -1.8987   -8.4874 H   0  0  0  0  0  0  0  0  0  0  0  0
   -8.9331   -0.2243   -8.0596 H   0  0  0  0  0  0  0  0  0  0  0  0
  1 15  1  0  0  0  0
  1  2  2  0  0  0  0
  3  1  1  0  0  0  0
  4 79  1  0  0  0  0
  4  3  2  0  0  0  0
  5  4  1  0  0  0  0
  6  5  2  0  0  0  0
  6  7  1  0  0  0  0
  7  8  2  0  0  0  0
  8  3  1  0  0  0  0
  8  9  1  0  0  0  0
  9 10  2  0  0  0  0
  9 15  1  0  0  0  0
 10 11  1  0  0  0  0
 11 12  3  0  0  0  0
 13 10  1  0  0  0  0
 14 13  3  0  0  0  0
 15 16  2  0  0  0  0
 16 81  1  0  0  0  0
 16 54  1  0  0  0  0
 17 31  1  0  0  0  0
 17 19  1  0  0  0  0
 18 17  2  0  0  0  0
 19 20  2  0  0  0  0
 19 24  1  0  0  0  0
 20 21  1  0  0  0  0
 21 65  1  0  0  0  0
 21 22  2  0  0  0  0
 22 64  1  0  0  0  0
 23 22  1  0  0  0  0
 23 83  1  0  0  0  0
 24 23  2  0  0  0  0
 25 26  2  0  0  0  0
 25 24  1  0  0  0  0
 26 29  1  0  0  0  0
 27 26  1  0  0  0  0
 28 27  3  0  0  0  0
 29 30  3  0  0  0  0
 31 25  1  0  0  0  0
 32 84  1  0  0  0  0
 32 31  2  0  0  0  0
 33 32  1  0  0  0  0
 34 33  1  0  0  0  0
 35 36  2  0  0  0  0
 35 34  1  0  0  0  0
 36 37  1  0  0  0  0
 37 85  1  0  0  0  0
 37 33  2  0  0  0  0
 38 35  1  0  0  0  0
 39 38  2  0  0  0  0
 39 40  1  0  0  0  0
 40 62  1  0  0  0  0
 40 36  1  0  0  0  0
 41 38  1  0  0  0  0
 42 43  2  0  0  0  0
 42 41  1  0  0  0  0
 43 39  1  0  0  0  0
 44 42  1  0  0  0  0
 45 49  2  0  0  0  0
 45 69  1  0  0  0  0
 46 45  1  0  0  0  0
 47 46  1  0  0  0  0
 47 48  2  0  0  0  0
 48 49  1  0  0  0  0
 49 87  1  0  0  0  0
 50 51  2  0  0  0  0
 50 47  1  0  0  0  0
 51 52  1  0  0  0  0
 52 48  1  0  0  0  0
 52 56  1  0  0  0  0
 53 50  1  0  0  0  0
 54 53  1  0  0  0  0
 54 55  2  0  0  0  0
 55 88  1  0  0  0  0
 55 51  1  0  0  0  0
 56 57  1  0  0  0  0
 56 90  1  0  0  0  0
 56 89  1  0  0  0  0
 57 92  1  0  0  0  0
 58 94  1  0  0  0  0
 58 52  1  0  0  0  0
 59 96  1  0  0  0  0
 59 58  1  0  0  0  0
 60 99  1  0  0  0  0
 60 40  1  0  0  0  0
 61101  1  0  0  0  0
 61 60  1  0  0  0  0
 62104  1  0  0  0  0
 62 63  1  0  0  0  0
 63107  1  0  0  0  0
 63106  1  0  0  0  0
 66  5  1  0  0  0  0
 67  6  1  0  0  0  0
 68 44  1  0  0  0  0
 69 68  1  0  0  0  0
 70 69  2  0  0  0  0
 70 71  1  0  0  0  0
 71 44  2  0  0  0  0
 72 73  1  0  0  0  0
 72 70  1  0  0  0  0
 73 74  1  0  0  0  0
 74 77  2  0  0  0  0
 74 71  1  0  0  0  0
 75 73  1  0  0  0  0
 75110  1  0  0  0  0
 76113  1  0  0  0  0
 76 75  1  0  0  0  0
 78 72  2  0  0  0  0
 80  7  1  0  0  0  0
 82 20  1  0  0  0  0
 86 43  1  0  0  0  0
 91 57  1  0  0  0  0
 93 57  1  0  0  0  0
 95 58  1  0  0  0  0
 97 59  1  0  0  0  0
 98 59  1  0  0  0  0
100 60  1  0  0  0  0
102 61  1  0  0  0  0
103 61  1  0  0  0  0
105 62  1  0  0  0  0
108 63  1  0  0  0  0
109 75  1  0  0  0  0
111 76  1  0  0  0  0
112 76  1  0  0  0  0
M  END
