SCF done       -245.715434607557          0.000711742569
 OpenBabel12282109493D

142155  0  0  0  0  0  0  0  0999 V2000
   13.1626   -6.5028   -1.1716 C   0  0  0  0  0  0  0  0  0  0  0  0
   14.5433   -6.6156   -1.2563 C   0  0  0  0  0  0  0  0  0  0  0  0
   15.3602   -5.5021   -1.4453 C   0  0  0  0  0  0  0  0  0  0  0  0
   14.8106   -4.2348   -1.5561 C   0  0  0  0  0  0  0  0  0  0  0  0
   13.4377   -4.1246   -1.4714 C   0  0  0  0  0  0  0  0  0  0  0  0
   12.6051   -5.2391   -1.2805 C   0  0  0  0  0  0  0  0  0  0  0  0
   12.6079   -2.9032   -1.5533 C   0  0  0  0  0  0  0  0  0  0  0  0
   11.2245   -3.3440   -1.3886 C   0  0  0  0  0  0  0  0  0  0  0  0
   11.2137   -4.7812   -1.2304 C   0  0  0  0  0  0  0  0  0  0  0  0
   10.1106   -2.5287   -1.3725 C   0  0  0  0  0  0  0  0  0  0  0  0
    9.9965   -1.1450   -1.4843 C   0  0  0  0  0  0  0  0  0  0  0  0
    8.7513   -0.4865   -1.4068 C   0  0  0  0  0  0  0  0  0  0  0  0
    8.8599    0.8753   -1.5188 C   0  0  0  0  0  0  0  0  0  0  0  0
   10.1981    1.2849   -1.6834 C   0  0  0  0  0  0  0  0  0  0  0  0
   11.3179   -0.0004   -1.7075 S   0  0  0  0  0  0  0  0  0  0  0  0
    7.9342    2.0738   -1.4757 C   0  0  0  0  0  0  0  0  0  0  0  0
    8.9307    3.1928   -1.6855 C   0  0  0  0  0  0  0  0  0  0  0  0
   10.2311    2.6862   -1.7837 C   0  0  0  0  0  0  0  0  0  0  0  0
    8.9026    4.5726   -1.8216 C   0  0  0  0  0  0  0  0  0  0  0  0
   10.1699    5.1171   -2.0066 C   0  0  0  0  0  0  0  0  0  0  0  0
   11.4198    3.8994   -2.0373 S   0  0  0  0  0  0  0  0  0  0  0  0
   10.5307    6.4958   -2.1240 C   0  0  0  0  0  0  0  0  0  0  0  0
    7.2875    2.1238   -0.0741 C   0  0  0  0  0  0  0  0  0  0  0  0
    6.8776    2.0257   -2.5903 C   0  0  0  0  0  0  0  0  0  0  0  0
    7.4920    1.8452   -3.9736 C   0  0  0  0  0  0  0  0  0  0  0  0
    6.4690    3.3748    0.2150 C   0  0  0  0  0  0  0  0  0  0  0  0
   13.0264   -1.7718   -1.7287 O   0  0  0  0  0  0  0  0  0  0  0  0
   15.1005   -7.8283   -1.1522 F   0  0  0  0  0  0  0  0  0  0  0  0
   16.6891   -5.6569   -1.5202 F   0  0  0  0  0  0  0  0  0  0  0  0
   10.1265   -5.6019   -1.0614 C   0  0  0  0  0  0  0  0  0  0  0  0
   10.2088   -7.0025   -0.9154 C   0  0  0  0  0  0  0  0  0  0  0  0
    8.7786   -5.1914   -1.0098 C   0  0  0  0  0  0  0  0  0  0  0  0
    7.6566   -4.9484   -0.9569 N   0  0  0  0  0  0  0  0  0  0  0  0
   10.2024   -8.1434   -0.7879 N   0  0  0  0  0  0  0  0  0  0  0  0
   11.8671   10.5857   -2.2304 C   0  0  0  0  0  0  0  0  0  0  0  0
   13.5630   10.9071   -2.4796 S   0  0  0  0  0  0  0  0  0  0  0  0
   13.2610   12.5919   -2.3015 C   0  0  0  0  0  0  0  0  0  0  0  0
   11.9118   12.8916   -2.0862 C   0  0  0  0  0  0  0  0  0  0  0  0
   11.1296   11.7481   -2.0349 C   0  0  0  0  0  0  0  0  0  0  0  0
   14.0032   13.7848   -2.2649 C   0  0  0  0  0  0  0  0  0  0  0  0
   13.1349   14.8668   -2.0229 C   0  0  0  0  0  0  0  0  0  0  0  0
   11.7057   14.3805   -1.9060 C   0  0  0  0  0  0  0  0  0  0  0  0
   15.6310   14.2605   -2.4199 S   0  0  0  0  0  0  0  0  0  0  0  0
   15.1709   15.9519   -2.1571 C   0  0  0  0  0  0  0  0  0  0  0  0
   13.7888   16.0774   -1.9808 C   0  0  0  0  0  0  0  0  0  0  0  0
   16.2183   16.8760   -2.1674 C   0  0  0  0  0  0  0  0  0  0  0  0
   16.2568   18.2325   -1.9246 C   0  0  0  0  0  0  0  0  0  0  0  0
   17.4741   19.0168   -2.0032 C   0  0  0  0  0  0  0  0  0  0  0  0
   17.1617   20.3729   -1.5486 C   0  0  0  0  0  0  0  0  0  0  0  0
   15.7941   20.4372   -1.2435 C   0  0  0  0  0  0  0  0  0  0  0  0
   15.1664   19.1169   -1.4810 C   0  0  0  0  0  0  0  0  0  0  0  0
   17.9554   21.4984   -1.3914 C   0  0  0  0  0  0  0  0  0  0  0  0
   17.3540   22.6608   -0.9317 C   0  0  0  0  0  0  0  0  0  0  0  0
   15.9930   22.7145   -0.6337 C   0  0  0  0  0  0  0  0  0  0  0  0
   15.1935   21.5936   -0.7881 C   0  0  0  0  0  0  0  0  0  0  0  0
   15.4541   23.8590   -0.1926 F   0  0  0  0  0  0  0  0  0  0  0  0
   18.1051   23.7572   -0.7700 F   0  0  0  0  0  0  0  0  0  0  0  0
   13.9880   18.8693   -1.3144 O   0  0  0  0  0  0  0  0  0  0  0  0
   18.7086   18.6146   -2.4476 C   0  0  0  0  0  0  0  0  0  0  0  0
   19.8431   19.4527   -2.4913 C   0  0  0  0  0  0  0  0  0  0  0  0
   19.0535   17.3391   -2.9429 C   0  0  0  0  0  0  0  0  0  0  0  0
   10.8835   15.0000   -3.0536 C   0  0  0  0  0  0  0  0  0  0  0  0
   11.1163   14.6373   -0.5050 C   0  0  0  0  0  0  0  0  0  0  0  0
   10.8779   16.1020   -0.1631 C   0  0  0  0  0  0  0  0  0  0  0  0
    9.4356   14.5344   -3.1270 C   0  0  0  0  0  0  0  0  0  0  0  0
   20.8086   20.0715   -2.5456 N   0  0  0  0  0  0  0  0  0  0  0  0
   19.4329   16.3441   -3.3750 N   0  0  0  0  0  0  0  0  0  0  0  0
    9.6446    7.5588   -1.9745 C   0  0  0  0  0  0  0  0  0  0  0  0
   10.0638    8.8802   -2.0231 C   0  0  0  0  0  0  0  0  0  0  0  0
   11.3961    9.2362   -2.2196 C   0  0  0  0  0  0  0  0  0  0  0  0
   12.3244    8.1741   -2.4089 C   0  0  0  0  0  0  0  0  0  0  0  0
   11.8938    6.8293   -2.3616 C   0  0  0  0  0  0  0  0  0  0  0  0
   13.6109    8.4483   -2.6601 N   0  0  0  0  0  0  0  0  0  0  0  0
   14.4775    7.4768   -2.8377 C   0  0  0  0  0  0  0  0  0  0  0  0
   14.0565    6.1139   -2.7023 C   0  0  0  0  0  0  0  0  0  0  0  0
   12.7879    5.8461   -2.4997 N   0  0  0  0  0  0  0  0  0  0  0  0
   14.9535    4.9574   -2.7322 C   0  0  0  0  0  0  0  0  0  0  0  0
   15.8404    7.8531   -3.2148 C   0  0  0  0  0  0  0  0  0  0  0  0
   16.4466    8.9574   -2.6197 C   0  0  0  0  0  0  0  0  0  0  0  0
   17.7220    9.3353   -2.9870 C   0  0  0  0  0  0  0  0  0  0  0  0
   18.4190    8.6353   -3.9652 C   0  0  0  0  0  0  0  0  0  0  0  0
   17.8036    7.5429   -4.5671 C   0  0  0  0  0  0  0  0  0  0  0  0
   16.5322    7.1511   -4.2009 C   0  0  0  0  0  0  0  0  0  0  0  0
   16.1811    4.9626   -2.0739 C   0  0  0  0  0  0  0  0  0  0  0  0
   16.9555    3.8190   -2.0460 C   0  0  0  0  0  0  0  0  0  0  0  0
   16.5365    2.6516   -2.6739 C   0  0  0  0  0  0  0  0  0  0  0  0
   15.3140    2.6557   -3.3374 C   0  0  0  0  0  0  0  0  0  0  0  0
   14.5287    3.7882   -3.3623 C   0  0  0  0  0  0  0  0  0  0  0  0
   17.3479    1.3922   -2.5993 C   0  0  0  0  0  0  0  0  0  0  0  0
   16.7623    0.4394   -1.5536 C   0  0  0  0  0  0  0  0  0  0  0  0
   19.8217    9.0204   -4.3314 C   0  0  0  0  0  0  0  0  0  0  0  0
   20.8255    8.2536   -3.4671 C   0  0  0  0  0  0  0  0  0  0  0  0
   12.5784   -7.3960   -1.0242 H   0  0  0  0  0  0  0  0  0  0  0  0
   15.4371   -3.3693   -1.7013 H   0  0  0  0  0  0  0  0  0  0  0  0
    9.1567   -3.0241   -1.2392 H   0  0  0  0  0  0  0  0  0  0  0  0
    7.8355   -1.0352   -1.2738 H   0  0  0  0  0  0  0  0  0  0  0  0
    8.0113    5.1733   -1.8084 H   0  0  0  0  0  0  0  0  0  0  0  0
    6.6512    1.2425    0.0304 H   0  0  0  0  0  0  0  0  0  0  0  0
    8.0862    2.0462    0.6678 H   0  0  0  0  0  0  0  0  0  0  0  0
    6.1930    1.2004   -2.3850 H   0  0  0  0  0  0  0  0  0  0  0  0
    6.3064    2.9546   -2.5743 H   0  0  0  0  0  0  0  0  0  0  0  0
    8.0410    0.9084   -4.0341 H   0  0  0  0  0  0  0  0  0  0  0  0
    6.7105    1.8338   -4.7295 H   0  0  0  0  0  0  0  0  0  0  0  0
    8.1770    2.6594   -4.1992 H   0  0  0  0  0  0  0  0  0  0  0  0
    5.6485    3.4840   -0.4890 H   0  0  0  0  0  0  0  0  0  0  0  0
    6.0474    3.3064    1.2152 H   0  0  0  0  0  0  0  0  0  0  0  0
    7.0935    4.2628    0.1717 H   0  0  0  0  0  0  0  0  0  0  0  0
   10.0716   11.7381   -1.8475 H   0  0  0  0  0  0  0  0  0  0  0  0
   13.3328   17.0381   -1.8317 H   0  0  0  0  0  0  0  0  0  0  0  0
   17.1753   16.4206   -2.3916 H   0  0  0  0  0  0  0  0  0  0  0  0
   19.0112   21.5122   -1.6048 H   0  0  0  0  0  0  0  0  0  0  0  0
   14.1405   21.6281   -0.5586 H   0  0  0  0  0  0  0  0  0  0  0  0
   10.9155   16.0847   -2.9455 H   0  0  0  0  0  0  0  0  0  0  0  0
   11.3843   14.7493   -3.9924 H   0  0  0  0  0  0  0  0  0  0  0  0
   10.1769   14.0874   -0.4253 H   0  0  0  0  0  0  0  0  0  0  0  0
   11.8071   14.2082    0.2258 H   0  0  0  0  0  0  0  0  0  0  0  0
   10.1534   16.5536   -0.8349 H   0  0  0  0  0  0  0  0  0  0  0  0
   10.4884   16.1751    0.8501 H   0  0  0  0  0  0  0  0  0  0  0  0
   11.8009   16.6716   -0.2111 H   0  0  0  0  0  0  0  0  0  0  0  0
    8.8947   14.7748   -2.2159 H   0  0  0  0  0  0  0  0  0  0  0  0
    8.9378   15.0321   -3.9562 H   0  0  0  0  0  0  0  0  0  0  0  0
    9.3821   13.4625   -3.2963 H   0  0  0  0  0  0  0  0  0  0  0  0
    8.5995    7.3576   -1.7971 H   0  0  0  0  0  0  0  0  0  0  0  0
    9.3249    9.6550   -1.8903 H   0  0  0  0  0  0  0  0  0  0  0  0
   15.9107    9.5044   -1.8598 H   0  0  0  0  0  0  0  0  0  0  0  0
   18.1824   10.1905   -2.5140 H   0  0  0  0  0  0  0  0  0  0  0  0
   18.3265    6.9960   -5.3384 H   0  0  0  0  0  0  0  0  0  0  0  0
   16.0636    6.3134   -4.6963 H   0  0  0  0  0  0  0  0  0  0  0  0
   16.5148    5.8525   -1.5606 H   0  0  0  0  0  0  0  0  0  0  0  0
   17.8996    3.8315   -1.5204 H   0  0  0  0  0  0  0  0  0  0  0  0
   14.9729    1.7576   -3.8309 H   0  0  0  0  0  0  0  0  0  0  0  0
   13.5808    3.7853   -3.8774 H   0  0  0  0  0  0  0  0  0  0  0  0
   17.3484    0.8969   -3.5727 H   0  0  0  0  0  0  0  0  0  0  0  0
   18.3804    1.6293   -2.3356 H   0  0  0  0  0  0  0  0  0  0  0  0
   15.7418    0.1655   -1.8111 H   0  0  0  0  0  0  0  0  0  0  0  0
   17.3628   -0.4652   -1.4922 H   0  0  0  0  0  0  0  0  0  0  0  0
   16.7514    0.9145   -0.5752 H   0  0  0  0  0  0  0  0  0  0  0  0
   20.0061    8.7928   -5.3830 H   0  0  0  0  0  0  0  0  0  0  0  0
   19.9630   10.0922   -4.1817 H   0  0  0  0  0  0  0  0  0  0  0  0
   20.7084    7.1816   -3.6108 H   0  0  0  0  0  0  0  0  0  0  0  0
   21.8427    8.5311   -3.7321 H   0  0  0  0  0  0  0  0  0  0  0  0
   20.6675    8.4776   -2.4145 H   0  0  0  0  0  0  0  0  0  0  0  0
  1 93  1  0  0  0  0
  2  1  1  0  0  0  0
  2 28  1  0  0  0  0
  3  2  2  0  0  0  0
  4  5  2  0  0  0  0
  4  3  1  0  0  0  0
  5  6  1  0  0  0  0
  6  9  1  0  0  0  0
  6  1  2  0  0  0  0
  7  5  1  0  0  0  0
  7  8  1  0  0  0  0
  8 10  1  0  0  0  0
  8  9  2  0  0  0  0
  9 30  1  0  0  0  0
 10 95  1  0  0  0  0
 11 12  2  0  0  0  0
 11 10  1  0  0  0  0
 12 96  1  0  0  0  0
 13 16  1  0  0  0  0
 13 12  1  0  0  0  0
 14 13  2  0  0  0  0
 15 14  1  0  0  0  0
 15 11  1  0  0  0  0
 16 23  1  0  0  0  0
 17 16  1  0  0  0  0
 18 17  2  0  0  0  0
 18 14  1  0  0  0  0
 19 97  1  0  0  0  0
 19 17  1  0  0  0  0
 20 19  2  0  0  0  0
 21 20  1  0  0  0  0
 21 18  1  0  0  0  0
 22 20  1  0  0  0  0
 22 68  2  0  0  0  0
 23 98  1  0  0  0  0
 23 26  1  0  0  0  0
 23 99  1  0  0  0  0
 24101  1  0  0  0  0
 24100  1  0  0  0  0
 24 16  1  0  0  0  0
 25 24  1  0  0  0  0
 26106  1  0  0  0  0
 27  7  2  0  0  0  0
 29  3  1  0  0  0  0
 30 32  1  0  0  0  0
 30 31  1  0  0  0  0
 31 34  3  0  0  0  0
 32 33  3  0  0  0  0
 35 70  1  0  0  0  0
 35 39  2  0  0  0  0
 36 37  1  0  0  0  0
 36 35  1  0  0  0  0
 37 40  1  0  0  0  0
 37 38  2  0  0  0  0
 38 39  1  0  0  0  0
 38 42  1  0  0  0  0
 39108  1  0  0  0  0
 40 41  2  0  0  0  0
 41 45  1  0  0  0  0
 41 42  1  0  0  0  0
 42 63  1  0  0  0  0
 43 40  1  0  0  0  0
 43 44  1  0  0  0  0
 44 45  2  0  0  0  0
 45109  1  0  0  0  0
 46 44  1  0  0  0  0
 46 47  2  0  0  0  0
 47 51  1  0  0  0  0
 48 47  1  0  0  0  0
 48 49  1  0  0  0  0
 49 52  2  0  0  0  0
 49 50  1  0  0  0  0
 50 55  2  0  0  0  0
 51 58  2  0  0  0  0
 51 50  1  0  0  0  0
 52 53  1  0  0  0  0
 53 57  1  0  0  0  0
 53 54  2  0  0  0  0
 54 56  1  0  0  0  0
 55 54  1  0  0  0  0
 55112  1  0  0  0  0
 59 48  2  0  0  0  0
 60 59  1  0  0  0  0
 61 59  1  0  0  0  0
 62113  1  0  0  0  0
 62 42  1  0  0  0  0
 63115  1  0  0  0  0
 63 64  1  0  0  0  0
 63116  1  0  0  0  0
 64118  1  0  0  0  0
 65 62  1  0  0  0  0
 65120  1  0  0  0  0
 66 60  3  0  0  0  0
 67 61  3  0  0  0  0
 68123  1  0  0  0  0
 69 68  1  0  0  0  0
 69124  1  0  0  0  0
 70 69  2  0  0  0  0
 71 72  1  0  0  0  0
 71 70  1  0  0  0  0
 72 22  1  0  0  0  0
 73 71  2  0  0  0  0
 74 75  2  0  0  0  0
 74 73  1  0  0  0  0
 75 76  1  0  0  0  0
 76 72  2  0  0  0  0
 77 75  1  0  0  0  0
 77 84  2  0  0  0  0
 78 74  1  0  0  0  0
 78 79  2  0  0  0  0
 79125  1  0  0  0  0
 80 79  1  0  0  0  0
 80126  1  0  0  0  0
 81 80  2  0  0  0  0
 82 83  2  0  0  0  0
 82 81  1  0  0  0  0
 83 78  1  0  0  0  0
 84 85  1  0  0  0  0
 84129  1  0  0  0  0
 85130  1  0  0  0  0
 86 89  1  0  0  0  0
 86 85  2  0  0  0  0
 87 86  1  0  0  0  0
 88 87  2  0  0  0  0
 88 77  1  0  0  0  0
 89134  1  0  0  0  0
 89 90  1  0  0  0  0
 90136  1  0  0  0  0
 90137  1  0  0  0  0
 91139  1  0  0  0  0
 91 81  1  0  0  0  0
 91 92  1  0  0  0  0
 92142  1  0  0  0  0
 94  4  1  0  0  0  0
102 25  1  0  0  0  0
103 25  1  0  0  0  0
104 25  1  0  0  0  0
105 26  1  0  0  0  0
107 26  1  0  0  0  0
110 46  1  0  0  0  0
111 52  1  0  0  0  0
114 62  1  0  0  0  0
117 64  1  0  0  0  0
119 64  1  0  0  0  0
121 65  1  0  0  0  0
122 65  1  0  0  0  0
127 82  1  0  0  0  0
128 83  1  0  0  0  0
131 87  1  0  0  0  0
132 88  1  0  0  0  0
133 89  1  0  0  0  0
135 90  1  0  0  0  0
138 91  1  0  0  0  0
140 92  1  0  0  0  0
141 92  1  0  0  0  0
M  RAD  2  10   2  30   2
M  END
