X1-PCIC.sdf
  xtb     12222116373D
 energy: -200.417871797115 gnorm: 0.000866033271 xtb: 6.4.1 (unknown)
116128  0     0  0            999 V2000
   -2.9641   -2.2356   10.2743 C   0  0  0  0  0  0  0  0  0  0  0  0
   -2.5965   -1.3972    9.4704 O   0  0  0  0  0  0  0  0  0  0  0  0
   -2.6252   -2.3023   11.7011 C   0  0  0  0  0  0  0  0  0  0  0  0
   -3.2721   -3.4396   12.2839 C   0  0  0  0  0  0  0  0  0  0  0  0
   -4.0362   -4.1258   11.2583 C   0  0  0  0  0  0  0  0  0  0  0  0
   -4.7811   -5.2571   11.4815 C   0  0  0  0  0  0  0  0  0  0  0  0
   -5.5393   -5.9574   10.5256 C   0  0  0  0  0  0  0  0  0  0  0  0
   -6.1826   -6.5733    9.7985 N   0  0  0  0  0  0  0  0  0  0  0  0
   -4.8496   -5.8424   12.7619 C   0  0  0  0  0  0  0  0  0  0  0  0
   -4.9130   -6.3347   13.7970 N   0  0  0  0  0  0  0  0  0  0  0  0
   -3.8398   -3.3911   10.0237 C   0  0  0  0  0  0  0  0  0  0  0  0
   -4.3778   -3.7416    8.8070 C   0  0  0  0  0  0  0  0  0  0  0  0
    7.2536    4.5173   -7.3949 C   0  0  0  0  0  0  0  0  0  0  0  0
    6.8742    5.2017   -6.4652 O   0  0  0  0  0  0  0  0  0  0  0  0
    8.5210    4.6760   -8.1216 C   0  0  0  0  0  0  0  0  0  0  0  0
    8.5968    3.7083   -9.1718 C   0  0  0  0  0  0  0  0  0  0  0  0
    7.3906    2.9035   -9.1557 C   0  0  0  0  0  0  0  0  0  0  0  0
    7.1348    1.9048  -10.0622 C   0  0  0  0  0  0  0  0  0  0  0  0
    8.0645    1.5886  -11.0741 C   0  0  0  0  0  0  0  0  0  0  0  0
    8.8079    1.3125  -11.9043 N   0  0  0  0  0  0  0  0  0  0  0  0
    5.9859    1.0948  -10.1380 C   0  0  0  0  0  0  0  0  0  0  0  0
    5.0850    0.3946  -10.2771 N   0  0  0  0  0  0  0  0  0  0  0  0
    6.5741    3.3699   -8.0458 C   0  0  0  0  0  0  0  0  0  0  0  0
    5.3995    2.7509   -7.6873 C   0  0  0  0  0  0  0  0  0  0  0  0
    4.4937    2.9831   -6.6447 C   0  0  0  0  0  0  0  0  0  0  0  0
    3.1847    1.7984   -6.4855 S   0  0  0  0  0  0  0  0  0  0  0  0
    2.6134    2.6016   -5.0946 C   0  0  0  0  0  0  0  0  0  0  0  0
    3.3712    3.7422   -4.7775 C   0  0  0  0  0  0  0  0  0  0  0  0
    4.4173    3.9572   -5.6474 C   0  0  0  0  0  0  0  0  0  0  0  0
    1.6269    2.4246   -4.1052 C   0  0  0  0  0  0  0  0  0  0  0  0
    1.7403    3.4419   -3.1530 C   0  0  0  0  0  0  0  0  0  0  0  0
    2.8296    4.4140   -3.5361 C   0  0  0  0  0  0  0  0  0  0  0  0
    0.4354    1.2634   -3.6897 S   0  0  0  0  0  0  0  0  0  0  0  0
    0.1071    2.1174   -2.1929 C   0  0  0  0  0  0  0  0  0  0  0  0
    0.8855    3.2614   -2.0776 C   0  0  0  0  0  0  0  0  0  0  0  0
   -0.7830    1.5812   -1.2075 C   0  0  0  0  0  0  0  0  0  0  0  0
   -0.9718    2.2160    0.0426 C   0  0  0  0  0  0  0  0  0  0  0  0
   -1.6960    1.5938    1.0850 C   0  0  0  0  0  0  0  0  0  0  0  0
   -2.3039    0.3401    0.9680 C   0  0  0  0  0  0  0  0  0  0  0  0
   -2.2180   -0.2379   -0.3155 C   0  0  0  0  0  0  0  0  0  0  0  0
   -1.4730    0.3708   -1.3531 C   0  0  0  0  0  0  0  0  0  0  0  0
   -2.7855   -1.4280   -0.6585 N   0  0  0  0  0  0  0  0  0  0  0  0
   -2.5486   -1.7702   -1.8650 C   0  0  0  0  0  0  0  0  0  0  0  0
   -1.5446   -0.6354   -2.7682 S   0  0  0  0  0  0  0  0  0  0  0  0
   -2.9078   -0.3622    2.0622 C   0  0  0  0  0  0  0  0  0  0  0  0
   -2.4896    0.0275    3.7190 S   0  0  0  0  0  0  0  0  0  0  0  0
   -3.4205   -1.3009    4.2734 C   0  0  0  0  0  0  0  0  0  0  0  0
   -4.0376   -1.9987    3.2333 C   0  0  0  0  0  0  0  0  0  0  0  0
   -3.7565   -1.4548    1.9879 C   0  0  0  0  0  0  0  0  0  0  0  0
   -3.7263   -1.9137    5.5043 C   0  0  0  0  0  0  0  0  0  0  0  0
   -4.5620   -3.0189    5.2524 C   0  0  0  0  0  0  0  0  0  0  0  0
   -4.8460   -3.1585    3.7711 C   0  0  0  0  0  0  0  0  0  0  0  0
   -3.3073   -1.7202    7.1488 S   0  0  0  0  0  0  0  0  0  0  0  0
   -4.2410   -3.1578    7.5453 C   0  0  0  0  0  0  0  0  0  0  0  0
   -4.8411   -3.7165    6.4021 C   0  0  0  0  0  0  0  0  0  0  0  0
   -6.3318   -2.9235    3.4351 C   0  0  0  0  0  0  0  0  0  0  0  0
   -7.2846   -3.9855    3.9666 C   0  0  0  0  0  0  0  0  0  0  0  0
   -4.3019   -4.5182    3.2903 C   0  0  0  0  0  0  0  0  0  0  0  0
   -4.4202   -4.7671    1.7924 C   0  0  0  0  0  0  0  0  0  0  0  0
    3.8977    4.5456   -2.4398 C   0  0  0  0  0  0  0  0  0  0  0  0
    4.5583    3.2147   -2.0996 C   0  0  0  0  0  0  0  0  0  0  0  0
    2.2550    5.7889   -3.9438 C   0  0  0  0  0  0  0  0  0  0  0  0
    1.5103    6.5221   -2.8361 C   0  0  0  0  0  0  0  0  0  0  0  0
   -3.0626   -2.9988   -2.5169 C   0  0  0  0  0  0  0  0  0  0  0  0
   -4.0307   -2.6580   -3.6510 C   0  0  0  0  0  0  0  0  0  0  0  0
   -0.4842    3.4452    0.3694 N   0  0  0  0  0  0  0  0  0  0  0  0
   -0.7826    3.8100    1.5567 C   0  0  0  0  0  0  0  0  0  0  0  0
   -1.7196    2.6355    2.4756 S   0  0  0  0  0  0  0  0  0  0  0  0
   -0.3848    5.1004    2.1700 C   0  0  0  0  0  0  0  0  0  0  0  0
    0.5488    4.8851    3.3618 C   0  0  0  0  0  0  0  0  0  0  0  0
    9.7520    3.7979   -9.8855 C   0  0  0  0  0  0  0  0  0  0  0  0
   10.7529    5.0654   -9.2776 S   0  0  0  0  0  0  0  0  0  0  0  0
    9.6100    5.4813   -8.0530 C   0  0  0  0  0  0  0  0  0  0  0  0
   -1.8818   -1.5949   12.5875 C   0  0  0  0  0  0  0  0  0  0  0  0
   -1.9595   -2.3109   14.1562 S   0  0  0  0  0  0  0  0  0  0  0  0
   -3.0035   -3.5726   13.6107 C   0  0  0  0  0  0  0  0  0  0  0  0
   -5.0020   -4.6277    8.7987 H   0  0  0  0  0  0  0  0  0  0  0  0
    5.1254    1.8972   -8.2967 H   0  0  0  0  0  0  0  0  0  0  0  0
    5.1286    4.7599   -5.5856 H   0  0  0  0  0  0  0  0  0  0  0  0
    0.8220    3.8932   -1.2123 H   0  0  0  0  0  0  0  0  0  0  0  0
   -4.1289   -1.8074    1.0457 H   0  0  0  0  0  0  0  0  0  0  0  0
   -5.4336   -4.6119    6.4682 H   0  0  0  0  0  0  0  0  0  0  0  0
   -6.4287   -2.8538    2.3506 H   0  0  0  0  0  0  0  0  0  0  0  0
   -6.6137   -1.9527    3.8511 H   0  0  0  0  0  0  0  0  0  0  0  0
   -8.3051   -3.7231    3.6966 H   0  0  0  0  0  0  0  0  0  0  0  0
   -7.2283   -4.0494    5.0495 H   0  0  0  0  0  0  0  0  0  0  0  0
   -7.0655   -4.9626    3.5453 H   0  0  0  0  0  0  0  0  0  0  0  0
   -4.8258   -5.3051    3.8347 H   0  0  0  0  0  0  0  0  0  0  0  0
   -3.2479   -4.5707    3.5752 H   0  0  0  0  0  0  0  0  0  0  0  0
   -5.4554   -4.7284    1.4648 H   0  0  0  0  0  0  0  0  0  0  0  0
   -4.0294   -5.7556    1.5605 H   0  0  0  0  0  0  0  0  0  0  0  0
   -3.8446   -4.0359    1.2319 H   0  0  0  0  0  0  0  0  0  0  0  0
    4.6572    5.2516   -2.7804 H   0  0  0  0  0  0  0  0  0  0  0  0
    3.4294    4.9487   -1.5414 H   0  0  0  0  0  0  0  0  0  0  0  0
    5.0729    2.8050   -2.9655 H   0  0  0  0  0  0  0  0  0  0  0  0
    3.8178    2.4917   -1.7640 H   0  0  0  0  0  0  0  0  0  0  0  0
    5.2864    3.3537   -1.3042 H   0  0  0  0  0  0  0  0  0  0  0  0
    3.0839    6.4050   -4.2979 H   0  0  0  0  0  0  0  0  0  0  0  0
    1.5741    5.6331   -4.7844 H   0  0  0  0  0  0  0  0  0  0  0  0
    2.1681    6.7525   -2.0026 H   0  0  0  0  0  0  0  0  0  0  0  0
    1.1189    7.4595   -3.2247 H   0  0  0  0  0  0  0  0  0  0  0  0
    0.6754    5.9292   -2.4727 H   0  0  0  0  0  0  0  0  0  0  0  0
   -3.5634   -3.6042   -1.7598 H   0  0  0  0  0  0  0  0  0  0  0  0
   -2.2210   -3.5669   -2.9205 H   0  0  0  0  0  0  0  0  0  0  0  0
   -4.3919   -3.5703   -4.1177 H   0  0  0  0  0  0  0  0  0  0  0  0
   -4.8830   -2.1018   -3.2678 H   0  0  0  0  0  0  0  0  0  0  0  0
   -3.5323   -2.0544   -4.4061 H   0  0  0  0  0  0  0  0  0  0  0  0
    0.1075    5.7040    1.4059 H   0  0  0  0  0  0  0  0  0  0  0  0
   -1.2823    5.6257    2.5060 H   0  0  0  0  0  0  0  0  0  0  0  0
    1.4513    4.3662    3.0477 H   0  0  0  0  0  0  0  0  0  0  0  0
    0.8297    5.8429    3.7912 H   0  0  0  0  0  0  0  0  0  0  0  0
    0.0552    4.2912    4.1276 H   0  0  0  0  0  0  0  0  0  0  0  0
   10.0915    3.2162  -10.7185 H   0  0  0  0  0  0  0  0  0  0  0  0
    9.8179    6.2822   -7.3724 H   0  0  0  0  0  0  0  0  0  0  0  0
   -1.2982   -0.7107   12.4277 H   0  0  0  0  0  0  0  0  0  0  0  0
   -3.3381   -4.3152   14.3069 H   0  0  0  0  0  0  0  0  0  0  0  0
  1  2  2  0  0  0  0
  1  3  1  0  0  0  0
  3  4  1  0  0  0  0
  4  5  1  0  0  0  0
  5  6  2  0  0  0  0
  6  7  1  0  0  0  0
  7  8  3  0  0  0  0
  6  9  1  0  0  0  0
  9 10  3  0  0  0  0
  5 11  1  0  0  0  0
  1 11  1  0  0  0  0
 11 12  2  0  0  0  0
 13 14  2  0  0  0  0
 13 15  1  0  0  0  0
 15 16  1  0  0  0  0
 16 17  1  0  0  0  0
 17 18  2  0  0  0  0
 18 19  1  0  0  0  0
 19 20  3  0  0  0  0
 18 21  1  0  0  0  0
 21 22  3  0  0  0  0
 17 23  1  0  0  0  0
 13 23  1  0  0  0  0
 23 24  2  0  0  0  0
 24 25  1  0  0  0  0
 25 26  1  0  0  0  0
 26 27  1  0  0  0  0
 27 28  2  0  0  0  0
 28 29  1  0  0  0  0
 29 25  2  0  0  0  0
 27 30  1  0  0  0  0
 30 31  2  0  0  0  0
 31 32  1  0  0  0  0
 32 28  1  0  0  0  0
 30 33  1  0  0  0  0
 33 34  1  0  0  0  0
 34 35  2  0  0  0  0
 35 31  1  0  0  0  0
 34 36  1  0  0  0  0
 36 37  1  0  0  0  0
 37 38  2  0  0  0  0
 38 39  1  0  0  0  0
 39 40  2  0  0  0  0
 40 41  1  0  0  0  0
 40 42  1  0  0  0  0
 42 43  2  0  0  0  0
 43 44  1  0  0  0  0
 44 41  1  0  0  0  0
 39 45  1  0  0  0  0
 45 46  1  0  0  0  0
 46 47  1  0  0  0  0
 47 48  2  0  0  0  0
 48 49  1  0  0  0  0
 49 45  2  0  0  0  0
 47 50  1  0  0  0  0
 50 51  2  0  0  0  0
 51 52  1  0  0  0  0
 52 48  1  0  0  0  0
 50 53  1  0  0  0  0
 53 54  1  0  0  0  0
 54 55  2  0  0  0  0
 55 51  1  0  0  0  0
 54 12  1  0  0  0  0
 52 56  1  0  0  0  0
 56 57  1  0  0  0  0
 52 58  1  0  0  0  0
 58 59  1  0  0  0  0
 32 60  1  0  0  0  0
 60 61  1  0  0  0  0
 32 62  1  0  0  0  0
 62 63  1  0  0  0  0
 43 64  1  0  0  0  0
 64 65  1  0  0  0  0
 41 36  2  0  0  0  0
 37 66  1  0  0  0  0
 66 67  2  0  0  0  0
 67 68  1  0  0  0  0
 68 38  1  0  0  0  0
 67 69  1  0  0  0  0
 69 70  1  0  0  0  0
 16 71  2  0  0  0  0
 71 72  1  0  0  0  0
 72 73  1  0  0  0  0
 73 15  2  0  0  0  0
  3 74  2  0  0  0  0
 74 75  1  0  0  0  0
 75 76  1  0  0  0  0
 76  4  2  0  0  0  0
 12 77  1  0  0  0  0
 24 78  1  0  0  0  0
 29 79  1  0  0  0  0
 35 80  1  0  0  0  0
 49 81  1  0  0  0  0
 55 82  1  0  0  0  0
 56 83  1  0  0  0  0
 56 84  1  0  0  0  0
 57 85  1  0  0  0  0
 57 86  1  0  0  0  0
 57 87  1  0  0  0  0
 58 88  1  0  0  0  0
 58 89  1  0  0  0  0
 59 90  1  0  0  0  0
 59 91  1  0  0  0  0
 59 92  1  0  0  0  0
 60 93  1  0  0  0  0
 60 94  1  0  0  0  0
 61 95  1  0  0  0  0
 61 96  1  0  0  0  0
 61 97  1  0  0  0  0
 62 98  1  0  0  0  0
 62 99  1  0  0  0  0
 63100  1  0  0  0  0
 63101  1  0  0  0  0
 63102  1  0  0  0  0
 64103  1  0  0  0  0
 64104  1  0  0  0  0
 65105  1  0  0  0  0
 65106  1  0  0  0  0
 65107  1  0  0  0  0
 69108  1  0  0  0  0
 69109  1  0  0  0  0
 70110  1  0  0  0  0
 70111  1  0  0  0  0
 70112  1  0  0  0  0
 71113  1  0  0  0  0
 73114  1  0  0  0  0
 74115  1  0  0  0  0
 76116  1  0  0  0  0
M  END
