Y6-Se.sdf
  xtb     12222116483D
 energy: -191.143798891609 gnorm: 0.000329792430 xtb: 6.4.1 (unknown)
 97108  0     0  0            999 V2000
    7.1172   -1.1799    4.3012 C   0  0  0  0  0  0  0  0  0  0  0  0
    6.4170   -0.2147    4.0853 O   0  0  0  0  0  0  0  0  0  0  0  0
    8.5983   -1.2013    4.3430 C   0  0  0  0  0  0  0  0  0  0  0  0
    9.4707   -0.1436    4.1820 C   0  0  0  0  0  0  0  0  0  0  0  0
   10.8284   -0.4159    4.2372 C   0  0  0  0  0  0  0  0  0  0  0  0
   11.7100    0.5797    4.0863 F   0  0  0  0  0  0  0  0  0  0  0  0
   11.2862   -1.7175    4.4450 C   0  0  0  0  0  0  0  0  0  0  0  0
   12.6024   -1.9510    4.4846 F   0  0  0  0  0  0  0  0  0  0  0  0
   10.4099   -2.7807    4.6056 C   0  0  0  0  0  0  0  0  0  0  0  0
    9.0509   -2.5149    4.5528 C   0  0  0  0  0  0  0  0  0  0  0  0
    7.8912   -3.3954    4.6715 C   0  0  0  0  0  0  0  0  0  0  0  0
    7.9118   -4.7195    5.0212 C   0  0  0  0  0  0  0  0  0  0  0  0
    9.0914   -5.4563    5.2551 C   0  0  0  0  0  0  0  0  0  0  0  0
   10.0215   -6.1000    5.4485 N   0  0  0  0  0  0  0  0  0  0  0  0
    6.7519   -5.4951    5.2337 C   0  0  0  0  0  0  0  0  0  0  0  0
    5.8456   -6.1670    5.4456 N   0  0  0  0  0  0  0  0  0  0  0  0
    6.7078   -2.5922    4.4547 C   0  0  0  0  0  0  0  0  0  0  0  0
    5.4589   -3.0657    4.1475 C   0  0  0  0  0  0  0  0  0  0  0  0
    4.2783   -2.3012    4.0647 C   0  0  0  0  0  0  0  0  0  0  0  0
    3.1243   -2.7640    2.8116 S   0  0  0  0  0  0  0  0  0  0  0  0
    2.0979   -1.4565    3.2541 C   0  0  0  0  0  0  0  0  0  0  0  0
    2.5938   -0.7641    4.3700 C   0  0  0  0  0  0  0  0  0  0  0  0
    3.8287   -1.2334    4.8374 C   0  0  0  0  0  0  0  0  0  0  0  0
    4.5059   -0.7394    6.0702 C   0  0  0  0  0  0  0  0  0  0  0  0
    3.5591   -0.6593    7.2663 C   0  0  0  0  0  0  0  0  0  0  0  0
    1.5611    0.5654    4.8532 S   0  0  0  0  0  0  0  0  0  0  0  0
    0.5015    0.2033    3.5394 C   0  0  0  0  0  0  0  0  0  0  0  0
    0.9151   -0.8935    2.7724 C   0  0  0  0  0  0  0  0  0  0  0  0
    0.0452   -1.0956    1.7314 N   0  0  0  0  0  0  0  0  0  0  0  0
   -0.0699   -2.4153    1.1471 C   0  0  0  0  0  0  0  0  0  0  0  0
   -0.9244   -0.1132    1.8111 C   0  0  0  0  0  0  0  0  0  0  0  0
   -0.6870    0.6825    2.9654 C   0  0  0  0  0  0  0  0  0  0  0  0
   -1.6000    1.6796    3.3889 C   0  0  0  0  0  0  0  0  0  0  0  0
   -1.5042    2.4209    4.4746 N   0  0  0  0  0  0  0  0  0  0  0  0
   -2.9356    3.4424    4.5932 Se  0  0  0  0  0  2  0  0  0  0  0  0
   -3.6211    2.7960    3.1033 N   0  0  0  0  0  0  0  0  0  0  0  0
   -2.7942    1.8956    2.6110 C   0  0  0  0  0  0  0  0  0  0  0  0
   -2.9291    1.2135    1.3756 C   0  0  0  0  0  0  0  0  0  0  0  0
   -1.9665    0.2636    0.9290 C   0  0  0  0  0  0  0  0  0  0  0  0
   -2.2389   -0.0653   -0.3805 N   0  0  0  0  0  0  0  0  0  0  0  0
   -1.3890   -0.6901   -1.3711 C   0  0  0  0  0  0  0  0  0  0  0  0
   -1.9691   -2.0068   -1.8868 C   0  0  0  0  0  0  0  0  0  0  0  0
   -3.3572    0.6288   -0.7611 C   0  0  0  0  0  0  0  0  0  0  0  0
   -3.8203    1.4063    0.3120 C   0  0  0  0  0  0  0  0  0  0  0  0
   -5.2070    2.3649   -0.0661 S   0  0  0  0  0  0  0  0  0  0  0  0
   -5.1412    1.7531   -1.7094 C   0  0  0  0  0  0  0  0  0  0  0  0
   -4.0965    0.8345   -1.9274 C   0  0  0  0  0  0  0  0  0  0  0  0
   -4.0428    0.2967   -3.5623 S   0  0  0  0  0  0  0  0  0  0  0  0
   -5.4236    1.3227   -3.9596 C   0  0  0  0  0  0  0  0  0  0  0  0
   -5.8957    2.0332   -2.8380 C   0  0  0  0  0  0  0  0  0  0  0  0
   -7.0798    2.9426   -2.8186 C   0  0  0  0  0  0  0  0  0  0  0  0
   -8.3788    2.1415   -2.6912 C   0  0  0  0  0  0  0  0  0  0  0  0
   -5.9739    1.4637   -5.2334 C   0  0  0  0  0  0  0  0  0  0  0  0
   -5.6325    0.8859   -6.4360 C   0  0  0  0  0  0  0  0  0  0  0  0
   -6.2662    1.1693   -7.7069 C   0  0  0  0  0  0  0  0  0  0  0  0
   -7.2880    2.0493   -7.9576 C   0  0  0  0  0  0  0  0  0  0  0  0
   -7.8421    2.2739   -9.2360 C   0  0  0  0  0  0  0  0  0  0  0  0
   -8.3361    2.5048  -10.2458 N   0  0  0  0  0  0  0  0  0  0  0  0
   -7.9344    2.8593   -7.0006 C   0  0  0  0  0  0  0  0  0  0  0  0
   -8.5091    3.5525   -6.2867 N   0  0  0  0  0  0  0  0  0  0  0  0
   -5.6005    0.3470   -8.7198 C   0  0  0  0  0  0  0  0  0  0  0  0
   -5.8042    0.2282  -10.0853 C   0  0  0  0  0  0  0  0  0  0  0  0
   -4.9921   -0.6475  -10.7918 C   0  0  0  0  0  0  0  0  0  0  0  0
   -5.1728   -0.7753  -12.1109 F   0  0  0  0  0  0  0  0  0  0  0  0
   -3.9959   -1.3938  -10.1627 C   0  0  0  0  0  0  0  0  0  0  0  0
   -3.2342   -2.2257  -10.8837 F   0  0  0  0  0  0  0  0  0  0  0  0
   -3.7866   -1.2820   -8.7975 C   0  0  0  0  0  0  0  0  0  0  0  0
   -4.5952   -0.4105   -8.0961 C   0  0  0  0  0  0  0  0  0  0  0  0
   -4.5780   -0.1030   -6.6507 C   0  0  0  0  0  0  0  0  0  0  0  0
   -3.8261   -0.5919   -5.8252 O   0  0  0  0  0  0  0  0  0  0  0  0
   -0.5211   -3.4394    2.1881 C   0  0  0  0  0  0  0  0  0  0  0  0
    9.1144    0.8608    4.0177 H   0  0  0  0  0  0  0  0  0  0  0  0
   10.8102   -3.7700    4.7560 H   0  0  0  0  0  0  0  0  0  0  0  0
    5.3633   -4.1058    3.8565 H   0  0  0  0  0  0  0  0  0  0  0  0
    5.3383   -1.4028    6.3114 H   0  0  0  0  0  0  0  0  0  0  0  0
    4.9218    0.2502    5.8607 H   0  0  0  0  0  0  0  0  0  0  0  0
    2.7780    0.0775    7.1034 H   0  0  0  0  0  0  0  0  0  0  0  0
    3.0951   -1.6261    7.4490 H   0  0  0  0  0  0  0  0  0  0  0  0
    4.1186   -0.3730    8.1530 H   0  0  0  0  0  0  0  0  0  0  0  0
   -0.7989   -2.3930    0.3451 H   0  0  0  0  0  0  0  0  0  0  0  0
    0.9075   -2.6994    0.7451 H   0  0  0  0  0  0  0  0  0  0  0  0
   -0.3934   -0.8223   -0.9460 H   0  0  0  0  0  0  0  0  0  0  0  0
   -1.3011    0.0017   -2.2161 H   0  0  0  0  0  0  0  0  0  0  0  0
   -2.2627   -2.6654   -1.0720 H   0  0  0  0  0  0  0  0  0  0  0  0
   -2.8462   -1.8167   -2.4985 H   0  0  0  0  0  0  0  0  0  0  0  0
   -1.2309   -2.5143   -2.5009 H   0  0  0  0  0  0  0  0  0  0  0  0
   -6.9851    3.6068   -1.9575 H   0  0  0  0  0  0  0  0  0  0  0  0
   -7.1201    3.5554   -3.7203 H   0  0  0  0  0  0  0  0  0  0  0  0
   -8.3731    1.5541   -1.7761 H   0  0  0  0  0  0  0  0  0  0  0  0
   -8.5017    1.4678   -3.5360 H   0  0  0  0  0  0  0  0  0  0  0  0
   -9.2266    2.8198   -2.6662 H   0  0  0  0  0  0  0  0  0  0  0  0
   -6.8006    2.1598   -5.2658 H   0  0  0  0  0  0  0  0  0  0  0  0
   -6.5584    0.7810  -10.6204 H   0  0  0  0  0  0  0  0  0  0  0  0
   -3.0175   -1.8566   -8.3066 H   0  0  0  0  0  0  0  0  0  0  0  0
   -0.6335   -4.4114    1.7162 H   0  0  0  0  0  0  0  0  0  0  0  0
    0.2066   -3.5292    2.9897 H   0  0  0  0  0  0  0  0  0  0  0  0
   -1.4771   -3.1452    2.6163 H   0  0  0  0  0  0  0  0  0  0  0  0
  1  2  2  0  0  0  0
  1  3  1  0  0  0  0
  3  4  2  0  0  0  0
  4  5  1  0  0  0  0
  5  6  1  0  0  0  0
  5  7  2  0  0  0  0
  7  8  1  0  0  0  0
  7  9  1  0  0  0  0
  9 10  2  0  0  0  0
  3 10  1  0  0  0  0
 10 11  1  0  0  0  0
 11 12  2  0  0  0  0
 12 13  1  0  0  0  0
 13 14  3  0  0  0  0
 12 15  1  0  0  0  0
 15 16  3  0  0  0  0
 11 17  1  0  0  0  0
  1 17  1  0  0  0  0
 17 18  2  0  0  0  0
 18 19  1  0  0  0  0
 19 20  1  0  0  0  0
 20 21  1  0  0  0  0
 21 22  2  0  0  0  0
 22 23  1  0  0  0  0
 23 24  1  0  0  0  0
 24 25  1  0  0  0  0
 19 23  2  0  0  0  0
 22 26  1  0  0  0  0
 26 27  1  0  0  0  0
 27 28  2  0  0  0  0
 21 28  1  0  0  0  0
 28 29  1  0  0  0  0
 29 30  1  0  0  0  0
 29 31  1  0  0  0  0
 31 32  2  0  0  0  0
 27 32  1  0  0  0  0
 32 33  1  0  0  0  0
 33 34  2  0  0  0  0
 34 35  1  0  0  0  0
 35 36  1  0  0  0  0
 36 37  2  0  0  0  0
 33 37  1  0  0  0  0
 37 38  1  0  0  0  0
 38 39  2  0  0  0  0
 31 39  1  0  0  0  0
 39 40  1  0  0  0  0
 40 41  1  0  0  0  0
 41 42  1  0  0  0  0
 40 43  1  0  0  0  0
 43 44  2  0  0  0  0
 38 44  1  0  0  0  0
 44 45  1  0  0  0  0
 45 46  1  0  0  0  0
 46 47  2  0  0  0  0
 43 47  1  0  0  0  0
 47 48  1  0  0  0  0
 48 49  1  0  0  0  0
 49 50  2  0  0  0  0
 46 50  1  0  0  0  0
 50 51  1  0  0  0  0
 51 52  1  0  0  0  0
 49 53  1  0  0  0  0
 53 54  2  0  0  0  0
 54 55  1  0  0  0  0
 55 56  2  0  0  0  0
 56 57  1  0  0  0  0
 57 58  3  0  0  0  0
 56 59  1  0  0  0  0
 59 60  3  0  0  0  0
 55 61  1  0  0  0  0
 61 62  2  0  0  0  0
 62 63  1  0  0  0  0
 63 64  1  0  0  0  0
 63 65  2  0  0  0  0
 65 66  1  0  0  0  0
 65 67  1  0  0  0  0
 67 68  2  0  0  0  0
 61 68  1  0  0  0  0
 68 69  1  0  0  0  0
 69 70  2  0  0  0  0
 54 69  1  0  0  0  0
 30 71  1  0  0  0  0
  4 72  1  0  0  0  0
  9 73  1  0  0  0  0
 18 74  1  0  0  0  0
 24 75  1  0  0  0  0
 24 76  1  0  0  0  0
 25 77  1  0  0  0  0
 25 78  1  0  0  0  0
 25 79  1  0  0  0  0
 30 80  1  0  0  0  0
 30 81  1  0  0  0  0
 41 82  1  0  0  0  0
 41 83  1  0  0  0  0
 42 84  1  0  0  0  0
 42 85  1  0  0  0  0
 42 86  1  0  0  0  0
 51 87  1  0  0  0  0
 51 88  1  0  0  0  0
 52 89  1  0  0  0  0
 52 90  1  0  0  0  0
 52 91  1  0  0  0  0
 53 92  1  0  0  0  0
 62 93  1  0  0  0  0
 67 94  1  0  0  0  0
 71 95  1  0  0  0  0
 71 96  1  0  0  0  0
 71 97  1  0  0  0  0
M  END
