SCF done       -191.106734523080          0.000864817790
 OpenBabel12282109493D

 97106  0  0  1  0  0  0  0  0999 V2000
    3.8470   -4.1636    0.5121 C   0  0  0  0  0  0  0  0  0  0  0  0
    3.4824   -4.5287   -0.5915 O   0  0  0  0  0  0  0  0  0  0  0  0
    4.7774   -4.8854    1.4036 C   0  0  0  0  0  0  0  0  0  0  0  0
    5.4216   -6.0860    1.1805 C   0  0  0  0  0  0  0  0  0  0  0  0
    6.2532   -6.5639    2.1804 C   0  0  0  0  0  0  0  0  0  0  0  0
    6.8984   -7.7230    2.0076 F   0  0  0  0  0  0  0  0  0  0  0  0
    6.4235   -5.8474    3.3655 C   0  0  0  0  0  0  0  0  0  0  0  0
    7.2315   -6.3320    4.3136 F   0  0  0  0  0  0  0  0  0  0  0  0
    5.7753   -4.6412    3.5886 C   0  0  0  0  0  0  0  0  0  0  0  0
    4.9421   -4.1558    2.5931 C   0  0  0  0  0  0  0  0  0  0  0  0
    4.1305   -2.9397    2.5165 C   0  0  0  0  0  0  0  0  0  0  0  0
    4.0381   -1.9926    3.5028 C   0  0  0  0  0  0  0  0  0  0  0  0
    3.2604   -0.8163    3.4483 C   0  0  0  0  0  0  0  0  0  0  0  0
    2.6566    0.1607    3.4832 N   0  0  0  0  0  0  0  0  0  0  0  0
    4.7201   -2.0663    4.7368 C   0  0  0  0  0  0  0  0  0  0  0  0
    5.2439   -2.0635    5.7576 N   0  0  0  0  0  0  0  0  0  0  0  0
    3.4631   -2.9470    1.2290 C   0  0  0  0  0  0  0  0  0  0  0  0
    2.6141   -1.9680    0.7704 C   0  0  0  0  0  0  0  0  0  0  0  0
    1.9091   -1.8506   -0.4307 C   0  0  1  0  0  0  0  0  0  0  0  0
    1.9285   -3.0350   -1.7377 S   0  0  0  0  0  0  0  0  0  0  0  0
    0.8443   -2.0592   -2.6550 C   0  0  0  0  0  0  0  0  0  0  0  0
    0.4996   -0.8755   -1.9761 C   0  0  0  0  0  0  0  0  0  0  0  0
    1.0846   -0.7484   -0.7239 C   0  0  0  0  0  0  0  0  0  0  0  0
    0.8871    0.4510    0.1432 C   0  0  0  0  0  0  0  0  0  0  0  0
    2.0281    1.4548   -0.0482 C   0  0  0  0  0  0  0  0  0  0  0  0
   -0.5917    0.1622   -2.8723 S   0  0  0  0  0  0  0  0  0  0  0  0
   -0.5806   -0.9952   -4.1553 C   0  0  0  0  0  0  0  0  0  0  0  0
    0.2105   -2.1251   -3.8991 C   0  0  0  0  0  0  0  0  0  0  0  0
    0.1811   -2.9700   -4.9750 N   0  0  0  0  0  0  0  0  0  0  0  0
    1.1687   -4.0221   -5.0830 C   0  0  0  0  0  0  0  0  0  0  0  0
   -0.6357   -2.4039   -5.9364 C   0  0  0  0  0  0  0  0  0  0  0  0
   -1.0926   -1.1390   -5.4490 C   0  0  0  0  0  0  0  0  0  0  0  0
   -1.8215   -0.2474   -6.2638 C   0  0  0  0  0  0  0  0  0  0  0  0
   -2.2742    0.9615   -5.9658 N   0  0  0  0  0  0  0  0  0  0  0  0
   -2.9565    1.5911   -7.2897 S   0  0  0  0  0  0  0  0  0  0  0  0
   -2.7038    0.3512   -8.2900 N   0  0  0  0  0  0  0  0  0  0  0  0
   -2.0778   -0.6088   -7.6283 C   0  0  0  0  0  0  0  0  0  0  0  0
   -1.7141   -1.9016   -8.0663 C   0  0  1  0  0  0  0  0  0  0  0  0
   -1.0717   -2.8282   -7.2143 C   0  0  0  0  0  0  0  0  0  0  0  0
   -0.9824   -4.0406   -7.8852 N   0  0  0  0  0  0  0  0  0  0  0  0
   -0.9222   -5.3719   -7.3197 C   0  0  0  0  0  0  0  0  0  0  0  0
   -2.1955   -5.6874   -6.5371 C   0  0  0  0  0  0  0  0  0  0  0  0
   -1.5351   -3.8921   -9.1381 C   0  0  2  0  0  0  0  0  0  0  0  0
   -1.9833   -2.5335   -9.3081 C   0  0  0  0  0  0  0  0  0  0  0  0
   -2.6577   -1.8937  -10.6813 S   0  0  0  0  0  0  0  0  0  0  0  0
   -1.7928   -5.6900  -10.9731 C   0  0  0  0  0  0  0  0  0  0  0  0
   -1.6452   -4.8745  -10.0582 C   0  0  0  0  0  0  0  0  0  0  0  0
   -2.8075   -7.2721  -14.4359 S   0  0  0  0  0  0  0  0  0  0  0  0
   -2.5602   -6.2240  -13.1690 C   0  0  0  0  0  0  0  0  0  0  0  0
   -1.9148   -6.5986  -11.9664 C   0  0  1  0  0  0  0  0  0  0  0  0
   -1.3478   -7.9745  -11.8043 C   0  0  0  0  0  0  0  0  0  0  0  0
    0.0378   -8.0443  -12.4529 C   0  0  0  0  0  0  0  0  0  0  0  0
   -3.0980   -4.8910  -13.3899 C   0  0  0  0  0  0  0  0  0  0  0  0
   -2.3708   -3.7548  -13.4369 C   0  0  0  0  0  0  0  0  0  0  0  0
   -2.8504   -2.4014  -13.6995 C   0  0  0  0  0  0  0  0  0  0  0  0
   -4.1506   -2.0042  -13.8247 C   0  0  0  0  0  0  0  0  0  0  0  0
   -4.5534   -0.6750  -14.0830 C   0  0  0  0  0  0  0  0  0  0  0  0
   -4.9440    0.3790  -14.3115 N   0  0  0  0  0  0  0  0  0  0  0  0
   -5.2734   -2.8500  -13.6895 C   0  0  0  0  0  0  0  0  0  0  0  0
   -6.2317   -3.4720  -13.5808 N   0  0  0  0  0  0  0  0  0  0  0  0
   -1.6804   -1.5299  -13.7517 C   0  0  0  0  0  0  0  0  0  0  0  0
   -1.5744   -0.1630  -13.9638 C   0  0  0  0  0  0  0  0  0  0  0  0
   -0.3119    0.4067  -13.9234 C   0  0  0  0  0  0  0  0  0  0  0  0
   -0.1856    1.7223  -14.1254 F   0  0  0  0  0  0  0  0  0  0  0  0
    0.8306   -0.3577  -13.6788 C   0  0  0  0  0  0  0  0  0  0  0  0
    2.0306    0.2359  -13.6438 F   0  0  0  0  0  0  0  0  0  0  0  0
    0.7345   -1.7225  -13.4691 C   0  0  0  0  0  0  0  0  0  0  0  0
   -0.5243   -2.2915  -13.5077 C   0  0  0  0  0  0  0  0  0  0  0  0
   -0.8884   -3.7073  -13.3064 C   0  0  0  0  0  0  0  0  0  0  0  0
   -0.1337   -4.6334  -13.1156 O   0  0  0  0  0  0  0  0  0  0  0  0
    0.7970   -5.2540   -4.2598 C   0  0  0  0  0  0  0  0  0  0  0  0
    5.2867   -6.6363    0.2631 H   0  0  0  0  0  0  0  0  0  0  0  0
    5.9421   -4.1286    4.5215 H   0  0  0  0  0  0  0  0  0  0  0  0
    2.4517   -1.1353    1.4406 H   0  0  0  0  0  0  0  0  0  0  0  0
   -0.0544    0.9253   -0.1404 H   0  0  0  0  0  0  0  0  0  0  0  0
    0.8248    0.1705    1.1955 H   0  0  0  0  0  0  0  0  0  0  0  0
    2.0770    1.7796   -1.0848 H   0  0  0  0  0  0  0  0  0  0  0  0
    1.8614    2.3228    0.5826 H   0  0  0  0  0  0  0  0  0  0  0  0
    2.9831    1.0109    0.2228 H   0  0  0  0  0  0  0  0  0  0  0  0
    1.3191   -4.2556   -6.1380 H   0  0  0  0  0  0  0  0  0  0  0  0
    2.1144   -3.6241   -4.6990 H   0  0  0  0  0  0  0  0  0  0  0  0
   -0.8236   -6.0627   -8.1613 H   0  0  0  0  0  0  0  0  0  0  0  0
   -0.0494   -5.4896   -6.6856 H   0  0  0  0  0  0  0  0  0  0  0  0
   -3.0650   -5.6159   -7.1869 H   0  0  0  0  0  0  0  0  0  0  0  0
   -2.1451   -6.6965   -6.1373 H   0  0  0  0  0  0  0  0  0  0  0  0
   -2.3244   -4.9879   -5.7132 H   0  0  0  0  0  0  0  0  0  0  0  0
   -1.2731   -8.2222  -10.7438 H   0  0  0  0  0  0  0  0  0  0  0  0
   -2.0084   -8.6920  -12.2954 H   0  0  0  0  0  0  0  0  0  0  0  0
    0.6956   -7.2912  -12.0265 H   0  0  0  0  0  0  0  0  0  0  0  0
    0.4716   -9.0286  -12.2962 H   0  0  0  0  0  0  0  0  0  0  0  0
   -0.0398   -7.8617  -13.5210 H   0  0  0  0  0  0  0  0  0  0  0  0
   -4.1520   -4.8650  -13.6357 H   0  0  0  0  0  0  0  0  0  0  0  0
   -2.4261    0.4698  -14.1511 H   0  0  0  0  0  0  0  0  0  0  0  0
    1.6144   -2.3167  -13.2803 H   0  0  0  0  0  0  0  0  0  0  0  0
    0.8460   -5.0207   -3.1999 H   0  0  0  0  0  0  0  0  0  0  0  0
   -0.2073   -5.6010   -4.4865 H   0  0  0  0  0  0  0  0  0  0  0  0
    1.5031   -6.0546   -4.4612 H   0  0  0  0  0  0  0  0  0  0  0  0
  1 17  1  0  0  0  0
  1  3  1  0  0  0  0
  2  1  2  0  0  0  0
  3 10  1  0  0  0  0
  4  3  2  0  0  0  0
  4  5  1  0  0  0  0
  5  7  2  0  0  0  0
  6  5  1  0  0  0  0
  7  9  1  0  0  0  0
  7  8  1  0  0  0  0
  9 73  1  0  0  0  0
 10  9  2  0  0  0  0
 11 10  1  0  0  0  0
 11 12  2  0  0  0  0
 12 15  1  0  0  0  0
 13 14  3  0  0  0  0
 13 12  1  0  0  0  0
 15 16  3  0  0  0  0
 17 11  1  0  0  0  0
 18 17  2  0  0  0  0
 18 74  1  0  0  0  0
 19 18  1  1  0  0  0
 20 19  1  0  0  0  0
 21 22  1  0  0  0  0
 21 20  1  0  0  0  0
 22 23  2  0  0  0  0
 23 19  1  0  0  0  0
 23 24  1  0  0  0  0
 24 76  1  0  0  0  0
 25 24  1  0  0  0  0
 25 79  1  0  0  0  0
 25 78  1  0  0  0  0
 26 22  1  0  0  0  0
 27 28  1  0  0  0  0
 27 26  1  0  0  0  0
 28 21  2  0  0  0  0
 29 28  1  0  0  0  0
 30 29  1  0  0  0  0
 30 81  1  0  0  0  0
 30 71  1  0  0  0  0
 31 32  1  0  0  0  0
 31 29  1  0  0  0  0
 32 27  2  0  0  0  0
 33 34  2  0  0  0  0
 33 32  1  0  0  0  0
 35 34  1  0  0  0  0
 36 37  2  0  0  0  0
 36 35  1  0  0  0  0
 37 33  1  0  0  0  0
 38 44  1  1  0  0  0
 38 37  1  0  0  0  0
 38 39  1  0  0  0  0
 39 31  2  0  0  0  0
 40 41  1  0  0  0  0
 40 39  1  0  0  0  0
 41 83  1  0  0  0  0
 41 42  1  0  0  0  0
 42 85  1  0  0  0  0
 42 86  1  0  0  0  0
 43 47  1  1  0  0  0
 43 40  1  0  0  0  0
 44 43  1  0  0  0  0
 45 44  2  0  0  0  0
 46 47  3  0  0  0  0
 48 49  2  0  0  0  0
 49 50  1  0  0  0  0
 50 51  1  0  0  0  0
 50 46  1  6  0  0  0
 51 87  1  0  0  0  0
 52 90  1  0  0  0  0
 52 89  1  0  0  0  0
 52 51  1  0  0  0  0
 53 49  1  0  0  0  0
 54 53  2  0  0  0  0
 54 69  1  0  0  0  0
 55 54  1  0  0  0  0
 56 55  2  0  0  0  0
 56 59  1  0  0  0  0
 57 56  1  0  0  0  0
 58 57  3  0  0  0  0
 59 60  3  0  0  0  0
 61 55  1  0  0  0  0
 61 68  2  0  0  0  0
 62 63  2  0  0  0  0
 62 61  1  0  0  0  0
 63 65  1  0  0  0  0
 64 63  1  0  0  0  0
 65 66  1  0  0  0  0
 65 67  2  0  0  0  0
 67 94  1  0  0  0  0
 68 67  1  0  0  0  0
 68 69  1  0  0  0  0
 69 70  2  0  0  0  0
 71 95  1  0  0  0  0
 72  4  1  0  0  0  0
 75 24  1  0  0  0  0
 77 25  1  0  0  0  0
 80 30  1  0  0  0  0
 82 41  1  0  0  0  0
 84 42  1  0  0  0  0
 88 51  1  0  0  0  0
 91 52  1  0  0  0  0
 92 53  1  0  0  0  0
 93 62  1  0  0  0  0
 96 71  1  0  0  0  0
 97 71  1  0  0  0  0
M  RAD  4  19   2  38   2  43   2  50   2
M  END
