YITI-2F.sdf
  xtb     12222116533D
 energy: -179.189869929903 gnorm: 0.000400686392 xtb: 6.4.1 (unknown)
106115  0     0  0            999 V2000
   -3.4241    0.7919    4.8380 C   0  0  0  0  0  0  0  0  0  0  0  0
   -3.7211    0.7841    3.4248 C   0  0  0  0  0  0  0  0  0  0  0  0
   -3.6945   -0.4305    2.7215 C   0  0  0  0  0  0  0  0  0  0  0  0
   -3.6024   -0.4105    1.3532 C   0  0  0  0  0  0  0  0  0  0  0  0
   -3.6424    0.8202    0.6537 C   0  0  0  0  0  0  0  0  0  0  0  0
   -3.8705    2.0064    1.3441 C   0  0  0  0  0  0  0  0  0  0  0  0
   -3.8594    1.9848    2.7224 C   0  0  0  0  0  0  0  0  0  0  0  0
   -3.4098   -1.5689    0.3873 C   0  0  0  0  0  0  0  0  0  0  0  0
   -3.1984   -0.8060   -0.8939 C   0  0  0  0  0  0  0  0  0  0  0  0
   -3.3491    0.5403   -0.7223 C   0  0  0  0  0  0  0  0  0  0  0  0
   -4.7222   -2.3798    0.3659 C   0  0  0  0  0  0  0  0  0  0  0  0
   -2.1478   -2.4087    0.6746 C   0  0  0  0  0  0  0  0  0  0  0  0
   -4.7752   -3.4830   -0.6819 C   0  0  0  0  0  0  0  0  0  0  0  0
   -2.1933   -3.3427    1.8781 C   0  0  0  0  0  0  0  0  0  0  0  0
   -2.7315   -1.0802   -2.2238 C   0  0  0  0  0  0  0  0  0  0  0  0
   -2.6457    0.1596   -2.8977 C   0  0  0  0  0  0  0  0  0  0  0  0
   -3.0357    1.3056   -1.9780 C   0  0  0  0  0  0  0  0  0  0  0  0
   -1.7682    2.1872   -1.8565 C   0  0  0  0  0  0  0  0  0  0  0  0
   -4.2395    2.1030   -2.5001 C   0  0  0  0  0  0  0  0  0  0  0  0
   -1.8052    3.3196   -0.8407 C   0  0  0  0  0  0  0  0  0  0  0  0
   -5.4594    1.2195   -2.7339 C   0  0  0  0  0  0  0  0  0  0  0  0
   -2.2783   -2.2389   -2.8478 C   0  0  0  0  0  0  0  0  0  0  0  0
   -1.6466   -2.1357   -4.0690 C   0  0  0  0  0  0  0  0  0  0  0  0
   -1.5167   -0.9046   -4.7193 C   0  0  0  0  0  0  0  0  0  0  0  0
   -2.0858    0.2424   -4.1475 C   0  0  0  0  0  0  0  0  0  0  0  0
   -3.7217   -0.1558    5.8037 C   0  0  0  0  0  0  0  0  0  0  0  0
   -3.0923    0.0971    7.0091 C   0  0  0  0  0  0  0  0  0  0  0  0
   -2.2565    1.2169    6.9876 C   0  0  0  0  0  0  0  0  0  0  0  0
   -2.3491    2.0057    5.4329 S   0  0  0  0  0  0  0  0  0  0  0  0
   -1.3979    1.5388    8.0484 C   0  0  0  0  0  0  0  0  0  0  0  0
   -0.3823    2.4606    8.1140 C   0  0  0  0  0  0  0  0  0  0  0  0
    0.5668    2.6004    9.2012 C   0  0  0  0  0  0  0  0  0  0  0  0
    1.5941    3.5497    8.7652 C   0  0  0  0  0  0  0  0  0  0  0  0
    1.2541    4.0296    7.4886 C   0  0  0  0  0  0  0  0  0  0  0  0
   -0.0049    3.3992    7.0500 C   0  0  0  0  0  0  0  0  0  0  0  0
    2.7582    3.9861    9.3756 C   0  0  0  0  0  0  0  0  0  0  0  0
    3.5408    4.8938    8.6740 C   0  0  0  0  0  0  0  0  0  0  0  0
    3.2125    5.3761    7.4158 C   0  0  0  0  0  0  0  0  0  0  0  0
    2.0457    4.9371    6.8107 C   0  0  0  0  0  0  0  0  0  0  0  0
   -0.5988    3.6293    6.0122 O   0  0  0  0  0  0  0  0  0  0  0  0
    0.5384    1.9796   10.4222 C   0  0  0  0  0  0  0  0  0  0  0  0
   -0.4536    1.0800   10.8662 C   0  0  0  0  0  0  0  0  0  0  0  0
    1.5103    2.1676   11.4283 C   0  0  0  0  0  0  0  0  0  0  0  0
    2.2651    2.2711   12.2867 N   0  0  0  0  0  0  0  0  0  0  0  0
   -1.2172    0.3430   11.3058 N   0  0  0  0  0  0  0  0  0  0  0  0
   -0.6292   -0.7650   -5.8506 C   0  0  0  0  0  0  0  0  0  0  0  0
   -0.6953    0.1240   -6.9106 C   0  0  0  0  0  0  0  0  0  0  0  0
    0.4443    0.1027   -7.6946 C   0  0  0  0  0  0  0  0  0  0  0  0
    1.4350   -0.7661   -7.2295 C   0  0  0  0  0  0  0  0  0  0  0  0
    0.8642   -1.6316   -5.8249 S   0  0  0  0  0  0  0  0  0  0  0  0
    2.7251   -0.8034   -7.7780 C   0  0  0  0  0  0  0  0  0  0  0  0
    3.8599   -1.4285   -7.3238 C   0  0  0  0  0  0  0  0  0  0  0  0
    5.1937   -1.2646   -7.8684 C   0  0  0  0  0  0  0  0  0  0  0  0
    6.1241   -1.9312   -6.9538 C   0  0  0  0  0  0  0  0  0  0  0  0
    5.3869   -2.5453   -5.9266 C   0  0  0  0  0  0  0  0  0  0  0  0
    3.9500   -2.2882   -6.1370 C   0  0  0  0  0  0  0  0  0  0  0  0
    7.5064   -2.0165   -6.9528 C   0  0  0  0  0  0  0  0  0  0  0  0
    8.0980   -2.7206   -5.9121 C   0  0  0  0  0  0  0  0  0  0  0  0
    7.3796   -3.3336   -4.8965 C   0  0  0  0  0  0  0  0  0  0  0  0
    5.9966   -3.2461   -4.9036 C   0  0  0  0  0  0  0  0  0  0  0  0
    3.0371   -2.7170   -5.4547 O   0  0  0  0  0  0  0  0  0  0  0  0
    5.5530   -0.6191   -9.0221 C   0  0  0  0  0  0  0  0  0  0  0  0
    6.8825   -0.5001   -9.4810 C   0  0  0  0  0  0  0  0  0  0  0  0
    4.6680    0.0055   -9.9261 C   0  0  0  0  0  0  0  0  0  0  0  0
    4.0185    0.5330  -10.7130 N   0  0  0  0  0  0  0  0  0  0  0  0
    7.9384   -0.3632   -9.9095 N   0  0  0  0  0  0  0  0  0  0  0  0
    4.6782    5.3236    9.2437 F   0  0  0  0  0  0  0  0  0  0  0  0
    9.4376   -2.8083   -5.8868 F   0  0  0  0  0  0  0  0  0  0  0  0
   -3.6629   -1.3538    3.2766 H   0  0  0  0  0  0  0  0  0  0  0  0
   -4.0163    2.9365    0.8192 H   0  0  0  0  0  0  0  0  0  0  0  0
   -3.9462    2.9065    3.2785 H   0  0  0  0  0  0  0  0  0  0  0  0
   -4.8818   -2.8049    1.3580 H   0  0  0  0  0  0  0  0  0  0  0  0
   -5.5391   -1.6773    0.1792 H   0  0  0  0  0  0  0  0  0  0  0  0
   -1.3143   -1.7120    0.7981 H   0  0  0  0  0  0  0  0  0  0  0  0
   -1.9373   -3.0051   -0.2132 H   0  0  0  0  0  0  0  0  0  0  0  0
   -3.9838   -4.2120   -0.5294 H   0  0  0  0  0  0  0  0  0  0  0  0
   -5.7291   -4.0021   -0.6147 H   0  0  0  0  0  0  0  0  0  0  0  0
   -4.6853   -3.0677   -1.6821 H   0  0  0  0  0  0  0  0  0  0  0  0
   -2.2440   -2.7915    2.8118 H   0  0  0  0  0  0  0  0  0  0  0  0
   -1.2824   -3.9381    1.8965 H   0  0  0  0  0  0  0  0  0  0  0  0
   -3.0376   -4.0243    1.8239 H   0  0  0  0  0  0  0  0  0  0  0  0
   -1.5766    2.6123   -2.8440 H   0  0  0  0  0  0  0  0  0  0  0  0
   -0.9293    1.5295   -1.6140 H   0  0  0  0  0  0  0  0  0  0  0  0
   -4.4951    2.8790   -1.7775 H   0  0  0  0  0  0  0  0  0  0  0  0
   -3.9579    2.5908   -3.4357 H   0  0  0  0  0  0  0  0  0  0  0  0
   -0.8999    3.9148   -0.9426 H   0  0  0  0  0  0  0  0  0  0  0  0
   -2.6555    3.9757   -1.0064 H   0  0  0  0  0  0  0  0  0  0  0  0
   -1.8400    2.9344    0.1738 H   0  0  0  0  0  0  0  0  0  0  0  0
   -5.7757    0.7500   -1.8050 H   0  0  0  0  0  0  0  0  0  0  0  0
   -5.2340    0.4362   -3.4544 H   0  0  0  0  0  0  0  0  0  0  0  0
   -6.2856    1.8138   -3.1173 H   0  0  0  0  0  0  0  0  0  0  0  0
   -2.3619   -3.2025   -2.3710 H   0  0  0  0  0  0  0  0  0  0  0  0
   -1.2210   -3.0141   -4.5311 H   0  0  0  0  0  0  0  0  0  0  0  0
   -1.9879    1.1902   -4.6553 H   0  0  0  0  0  0  0  0  0  0  0  0
   -4.3870   -0.9842    5.6352 H   0  0  0  0  0  0  0  0  0  0  0  0
   -3.1949   -0.5190    7.8855 H   0  0  0  0  0  0  0  0  0  0  0  0
   -1.5265    0.8920    8.9082 H   0  0  0  0  0  0  0  0  0  0  0  0
    3.0781    3.6527   10.3486 H   0  0  0  0  0  0  0  0  0  0  0  0
    3.8704    6.0795    6.9305 H   0  0  0  0  0  0  0  0  0  0  0  0
    1.7546    5.2840    5.8316 H   0  0  0  0  0  0  0  0  0  0  0  0
   -1.5507    0.7455   -7.1087 H   0  0  0  0  0  0  0  0  0  0  0  0
    0.5898    0.7165   -8.5665 H   0  0  0  0  0  0  0  0  0  0  0  0
    2.8328   -0.1688   -8.6498 H   0  0  0  0  0  0  0  0  0  0  0  0
    8.1287   -1.5633   -7.7063 H   0  0  0  0  0  0  0  0  0  0  0  0
    7.9082   -3.8630   -4.1197 H   0  0  0  0  0  0  0  0  0  0  0  0
    5.3998   -3.7052   -4.1311 H   0  0  0  0  0  0  0  0  0  0  0  0
  1  2  1  0  0  0  0
  2  3  2  0  0  0  0
  3  4  1  0  0  0  0
  4  5  2  0  0  0  0
  5  6  1  0  0  0  0
  6  7  2  0  0  0  0
  7  2  1  0  0  0  0
  4  8  1  0  0  0  0
  8  9  1  0  0  0  0
  9 10  2  0  0  0  0
 10  5  1  0  0  0  0
  8 11  1  0  0  0  0
  8 12  1  0  0  0  0
 11 13  1  0  0  0  0
 12 14  1  0  0  0  0
  9 15  1  0  0  0  0
 15 16  2  0  0  0  0
 16 17  1  0  0  0  0
 17 10  1  0  0  0  0
 17 18  1  0  0  0  0
 17 19  1  0  0  0  0
 18 20  1  0  0  0  0
 19 21  1  0  0  0  0
 15 22  1  0  0  0  0
 22 23  2  0  0  0  0
 23 24  1  0  0  0  0
 24 25  2  0  0  0  0
 25 16  1  0  0  0  0
  1 26  2  0  0  0  0
 26 27  1  0  0  0  0
 27 28  2  0  0  0  0
 28 29  1  0  0  0  0
 29  1  1  0  0  0  0
 28 30  1  0  0  0  0
 30 31  2  0  0  0  0
 31 32  1  0  0  0  0
 32 33  1  0  0  0  0
 33 34  2  0  0  0  0
 34 35  1  0  0  0  0
 35 31  1  0  0  0  0
 33 36  1  0  0  0  0
 36 37  2  0  0  0  0
 37 38  1  0  0  0  0
 38 39  2  0  0  0  0
 39 34  1  0  0  0  0
 35 40  2  0  0  0  0
 32 41  2  0  0  0  0
 41 42  1  0  0  0  0
 41 43  1  0  0  0  0
 43 44  3  0  0  0  0
 42 45  3  0  0  0  0
 46 47  2  0  0  0  0
 47 48  1  0  0  0  0
 48 49  2  0  0  0  0
 49 50  1  0  0  0  0
 50 46  1  0  0  0  0
 49 51  1  0  0  0  0
 51 52  2  0  0  0  0
 52 53  1  0  0  0  0
 53 54  1  0  0  0  0
 54 55  2  0  0  0  0
 55 56  1  0  0  0  0
 56 52  1  0  0  0  0
 54 57  1  0  0  0  0
 57 58  2  0  0  0  0
 58 59  1  0  0  0  0
 59 60  2  0  0  0  0
 60 55  1  0  0  0  0
 56 61  2  0  0  0  0
 53 62  2  0  0  0  0
 62 63  1  0  0  0  0
 62 64  1  0  0  0  0
 64 65  3  0  0  0  0
 63 66  3  0  0  0  0
 24 46  1  0  0  0  0
 37 67  1  0  0  0  0
 58 68  1  0  0  0  0
  3 69  1  0  0  0  0
  6 70  1  0  0  0  0
  7 71  1  0  0  0  0
 11 72  1  0  0  0  0
 11 73  1  0  0  0  0
 12 74  1  0  0  0  0
 12 75  1  0  0  0  0
 13 76  1  0  0  0  0
 13 77  1  0  0  0  0
 13 78  1  0  0  0  0
 14 79  1  0  0  0  0
 14 80  1  0  0  0  0
 14 81  1  0  0  0  0
 18 82  1  0  0  0  0
 18 83  1  0  0  0  0
 19 84  1  0  0  0  0
 19 85  1  0  0  0  0
 20 86  1  0  0  0  0
 20 87  1  0  0  0  0
 20 88  1  0  0  0  0
 21 89  1  0  0  0  0
 21 90  1  0  0  0  0
 21 91  1  0  0  0  0
 22 92  1  0  0  0  0
 23 93  1  0  0  0  0
 25 94  1  0  0  0  0
 26 95  1  0  0  0  0
 27 96  1  0  0  0  0
 30 97  1  0  0  0  0
 36 98  1  0  0  0  0
 38 99  1  0  0  0  0
 39100  1  0  0  0  0
 47101  1  0  0  0  0
 48102  1  0  0  0  0
 51103  1  0  0  0  0
 57104  1  0  0  0  0
 59105  1  0  0  0  0
 60106  1  0  0  0  0
M  END
