SCF done       -183.509247066284          0.000532966665
 OpenBabel12282109493D

108119  0  0  0  0  0  0  0  0999 V2000
    4.9712   -1.6601    2.7067 C   0  0  0  0  0  0  0  0  0  0  0  0
    4.2523   -2.5522    3.9723 S   0  0  0  0  0  0  0  0  0  0  0  0
    4.5113   -4.0400    3.0691 C   0  0  0  0  0  0  0  0  0  0  0  0
    5.1809   -3.7953    1.8575 C   0  0  0  0  0  0  0  0  0  0  0  0
    5.4049   -2.4563    1.6387 C   0  0  0  0  0  0  0  0  0  0  0  0
    4.0143   -5.3062    3.3920 C   0  0  0  0  0  0  0  0  0  0  0  0
    3.1190   -5.6906    4.3631 C   0  0  0  0  0  0  0  0  0  0  0  0
    2.4893   -4.8064    5.3481 C   0  0  0  0  0  0  0  0  0  0  0  0
    1.4177   -5.5991    5.9811 C   0  0  0  0  0  0  0  0  0  0  0  0
    1.4396   -6.9056    5.4627 C   0  0  0  0  0  0  0  0  0  0  0  0
    2.5276   -7.0062    4.4866 C   0  0  0  0  0  0  0  0  0  0  0  0
    0.4847   -5.1980    6.9176 C   0  0  0  0  0  0  0  0  0  0  0  0
   -0.4587   -6.1188    7.3462 C   0  0  0  0  0  0  0  0  0  0  0  0
   -0.4308   -7.4034    6.8251 C   0  0  0  0  0  0  0  0  0  0  0  0
    0.5013   -7.8306    5.8882 C   0  0  0  0  0  0  0  0  0  0  0  0
    2.7751   -3.6501    5.6052 O   0  0  0  0  0  0  0  0  0  0  0  0
    2.8970   -8.1548    3.8354 C   0  0  0  0  0  0  0  0  0  0  0  0
    3.9605   -8.2722    2.9164 C   0  0  0  0  0  0  0  0  0  0  0  0
    2.2628   -9.4027    4.0114 C   0  0  0  0  0  0  0  0  0  0  0  0
    1.7916  -10.4453    4.1043 N   0  0  0  0  0  0  0  0  0  0  0  0
    4.8077   -8.4539    2.1620 N   0  0  0  0  0  0  0  0  0  0  0  0
   -1.3573   -8.2811    7.2438 F   0  0  0  0  0  0  0  0  0  0  0  0
    5.0374   -0.2820    2.3476 C   0  0  0  0  0  0  0  0  0  0  0  0
    5.4809   -0.2158    1.0065 C   0  0  0  0  0  0  0  0  0  0  0  0
    5.8710   -1.5868    0.5134 C   0  0  0  0  0  0  0  0  0  0  0  0
    4.6238    0.8567    3.0394 C   0  0  0  0  0  0  0  0  0  0  0  0
    4.5018    2.0220    2.3236 C   0  0  0  0  0  0  0  0  0  0  0  0
    4.8624    2.0736    0.9492 C   0  0  0  0  0  0  0  0  0  0  0  0
    5.4167    0.9652    0.3057 C   0  0  0  0  0  0  0  0  0  0  0  0
    3.9036    3.3429    2.7711 C   0  0  0  0  0  0  0  0  0  0  0  0
    3.9001    4.0862    1.4638 C   0  0  0  0  0  0  0  0  0  0  0  0
    4.4468    3.3516    0.4508 C   0  0  0  0  0  0  0  0  0  0  0  0
    4.7661    4.0235    3.8459 C   0  0  0  0  0  0  0  0  0  0  0  0
    2.4274    3.2035    3.2144 C   0  0  0  0  0  0  0  0  0  0  0  0
    2.1572    2.4305    4.4992 C   0  0  0  0  0  0  0  0  0  0  0  0
    6.1552    4.3822    3.3311 C   0  0  0  0  0  0  0  0  0  0  0  0
    3.2244    5.2298    0.9321 C   0  0  0  0  0  0  0  0  0  0  0  0
    3.3127    5.1440   -0.4837 C   0  0  0  0  0  0  0  0  0  0  0  0
    4.2638    4.0241   -0.8853 C   0  0  0  0  0  0  0  0  0  0  0  0
    5.5834    4.6816   -1.3462 C   0  0  0  0  0  0  0  0  0  0  0  0
    3.6525    3.0441   -1.9075 C   0  0  0  0  0  0  0  0  0  0  0  0
    6.7395    3.7054   -1.5184 C   0  0  0  0  0  0  0  0  0  0  0  0
    3.7410    3.4410   -3.3774 C   0  0  0  0  0  0  0  0  0  0  0  0
    2.4583    6.2138    1.5581 C   0  0  0  0  0  0  0  0  0  0  0  0
    1.6524    6.9928    0.7620 C   0  0  0  0  0  0  0  0  0  0  0  0
    1.6316    6.8021   -0.6396 C   0  0  0  0  0  0  0  0  0  0  0  0
    2.5217    5.9360   -1.2772 C   0  0  0  0  0  0  0  0  0  0  0  0
    0.6025    7.9946    1.1721 C   0  0  0  0  0  0  0  0  0  0  0  0
   -0.1537    8.1786   -0.1060 C   0  0  0  0  0  0  0  0  0  0  0  0
    0.5021    7.5084   -1.1471 C   0  0  0  0  0  0  0  0  0  0  0  0
   -1.3557    8.7158   -0.5022 C   0  0  0  0  0  0  0  0  0  0  0  0
   -1.6702    8.4098   -1.8378 C   0  0  0  0  0  0  0  0  0  0  0  0
   -0.3718    7.5104   -2.6139 S   0  0  0  0  0  0  0  0  0  0  0  0
   -2.9321    8.6803   -2.3751 C   0  0  0  0  0  0  0  0  0  0  0  0
   -3.5227    8.2286   -3.5326 C   0  0  0  0  0  0  0  0  0  0  0  0
   -2.8945    7.3624   -4.5342 C   0  0  0  0  0  0  0  0  0  0  0  0
   -3.9773    6.9370   -5.4420 C   0  0  0  0  0  0  0  0  0  0  0  0
   -5.1774    7.5581   -5.0550 C   0  0  0  0  0  0  0  0  0  0  0  0
   -4.9127    8.4110   -3.8932 C   0  0  0  0  0  0  0  0  0  0  0  0
   -3.9173    6.0572   -6.5054 C   0  0  0  0  0  0  0  0  0  0  0  0
   -5.0845    5.7801   -7.1998 C   0  0  0  0  0  0  0  0  0  0  0  0
   -6.2635    6.3947   -6.8069 C   0  0  0  0  0  0  0  0  0  0  0  0
   -6.3463    7.2870   -5.7457 C   0  0  0  0  0  0  0  0  0  0  0  0
   -1.7208    7.0459   -4.6176 O   0  0  0  0  0  0  0  0  0  0  0  0
   -5.8365    9.2226   -3.2867 C   0  0  0  0  0  0  0  0  0  0  0  0
   -5.5912   10.0666   -2.1837 C   0  0  0  0  0  0  0  0  0  0  0  0
   -7.1809    9.3370   -3.6988 C   0  0  0  0  0  0  0  0  0  0  0  0
   -8.2860    9.4752   -3.9774 N   0  0  0  0  0  0  0  0  0  0  0  0
   -5.4768   10.7799   -1.2903 N   0  0  0  0  0  0  0  0  0  0  0  0
   -7.3876    6.1089   -7.4843 F   0  0  0  0  0  0  0  0  0  0  0  0
    5.4237   -4.5903    1.1747 H   0  0  0  0  0  0  0  0  0  0  0  0
    4.3288   -6.0741    2.6949 H   0  0  0  0  0  0  0  0  0  0  0  0
    0.4954   -4.1874    7.2948 H   0  0  0  0  0  0  0  0  0  0  0  0
   -1.2140   -5.8580    8.0704 H   0  0  0  0  0  0  0  0  0  0  0  0
    0.4607   -8.8435    5.5238 H   0  0  0  0  0  0  0  0  0  0  0  0
    6.9515   -1.6592    0.3645 H   0  0  0  0  0  0  0  0  0  0  0  0
    5.3886   -1.8392   -0.4323 H   0  0  0  0  0  0  0  0  0  0  0  0
    4.3688    0.7842    4.0838 H   0  0  0  0  0  0  0  0  0  0  0  0
    5.7413    1.0143   -0.7221 H   0  0  0  0  0  0  0  0  0  0  0  0
    4.2587    4.9295    4.1837 H   0  0  0  0  0  0  0  0  0  0  0  0
    4.8661    3.3506    4.6985 H   0  0  0  0  0  0  0  0  0  0  0  0
    2.0306    4.2131    3.3320 H   0  0  0  0  0  0  0  0  0  0  0  0
    1.8777    2.7316    2.3957 H   0  0  0  0  0  0  0  0  0  0  0  0
    2.7535    2.8087    5.3249 H   0  0  0  0  0  0  0  0  0  0  0  0
    1.1078    2.5444    4.7639 H   0  0  0  0  0  0  0  0  0  0  0  0
    2.3516    1.3700    4.3752 H   0  0  0  0  0  0  0  0  0  0  0  0
    6.0906    5.0920    2.5093 H   0  0  0  0  0  0  0  0  0  0  0  0
    6.7456    4.8303    4.1269 H   0  0  0  0  0  0  0  0  0  0  0  0
    6.6731    3.4934    2.9771 H   0  0  0  0  0  0  0  0  0  0  0  0
    5.4006    5.2142   -2.2800 H   0  0  0  0  0  0  0  0  0  0  0  0
    5.8623    5.4254   -0.5950 H   0  0  0  0  0  0  0  0  0  0  0  0
    4.1403    2.0764   -1.7883 H   0  0  0  0  0  0  0  0  0  0  0  0
    2.6020    2.9074   -1.6379 H   0  0  0  0  0  0  0  0  0  0  0  0
    6.5052    2.9386   -2.2518 H   0  0  0  0  0  0  0  0  0  0  0  0
    7.6223    4.2417   -1.8604 H   0  0  0  0  0  0  0  0  0  0  0  0
    6.9789    3.2241   -0.5735 H   0  0  0  0  0  0  0  0  0  0  0  0
    4.7721    3.4871   -3.7167 H   0  0  0  0  0  0  0  0  0  0  0  0
    3.2246    2.6932   -3.9761 H   0  0  0  0  0  0  0  0  0  0  0  0
    3.2726    4.4006   -3.5703 H   0  0  0  0  0  0  0  0  0  0  0  0
    2.4547    6.3219    2.6322 H   0  0  0  0  0  0  0  0  0  0  0  0
    2.5117    5.8647   -2.3521 H   0  0  0  0  0  0  0  0  0  0  0  0
   -0.0312    7.6243    1.9796 H   0  0  0  0  0  0  0  0  0  0  0  0
    1.0603    8.9278    1.5106 H   0  0  0  0  0  0  0  0  0  0  0  0
   -2.0346    9.2631    0.1278 H   0  0  0  0  0  0  0  0  0  0  0  0
   -3.5576    9.2651   -1.7109 H   0  0  0  0  0  0  0  0  0  0  0  0
   -2.9797    5.5971   -6.7757 H   0  0  0  0  0  0  0  0  0  0  0  0
   -5.0968    5.0960   -8.0334 H   0  0  0  0  0  0  0  0  0  0  0  0
   -7.2981    7.7244   -5.4941 H   0  0  0  0  0  0  0  0  0  0  0  0
  1  2  1  0  0  0  0
  3  6  1  0  0  0  0
  3  2  1  0  0  0  0
  4  3  2  0  0  0  0
  5  4  1  0  0  0  0
  5  1  2  0  0  0  0
  6  7  2  0  0  0  0
  7 11  1  0  0  0  0
  7  8  1  0  0  0  0
  8 16  2  0  0  0  0
  8  9  1  0  0  0  0
  9 12  2  0  0  0  0
 10 15  2  0  0  0  0
 10  9  1  0  0  0  0
 11 10  1  0  0  0  0
 12 73  1  0  0  0  0
 12 13  1  0  0  0  0
 13 74  1  0  0  0  0
 14 22  1  0  0  0  0
 14 13  2  0  0  0  0
 15 14  1  0  0  0  0
 17 19  1  0  0  0  0
 17 11  2  0  0  0  0
 18 17  1  0  0  0  0
 19 20  3  0  0  0  0
 21 18  3  0  0  0  0
 23  1  1  0  0  0  0
 23 26  1  0  0  0  0
 24 23  2  0  0  0  0
 25 24  1  0  0  0  0
 25  5  1  0  0  0  0
 26 78  1  0  0  0  0
 27 30  1  0  0  0  0
 27 26  2  0  0  0  0
 28 27  1  0  0  0  0
 29 28  2  0  0  0  0
 29 24  1  0  0  0  0
 30 34  1  0  0  0  0
 30 33  1  0  0  0  0
 31 30  1  0  0  0  0
 32 28  1  0  0  0  0
 32 31  2  0  0  0  0
 33 80  1  0  0  0  0
 33 81  1  0  0  0  0
 34 82  1  0  0  0  0
 34 35  1  0  0  0  0
 35 85  1  0  0  0  0
 35 84  1  0  0  0  0
 36 33  1  0  0  0  0
 36 88  1  0  0  0  0
 37 31  1  0  0  0  0
 37 44  1  0  0  0  0
 38 37  2  0  0  0  0
 39 38  1  0  0  0  0
 39 32  1  0  0  0  0
 40 39  1  0  0  0  0
 40 91  1  0  0  0  0
 41 92  1  0  0  0  0
 41 93  1  0  0  0  0
 41 39  1  0  0  0  0
 42 40  1  0  0  0  0
 42 96  1  0  0  0  0
 43 41  1  0  0  0  0
 44100  1  0  0  0  0
 45 48  1  0  0  0  0
 45 44  2  0  0  0  0
 46 45  1  0  0  0  0
 47 46  2  0  0  0  0
 47 38  1  0  0  0  0
 48103  1  0  0  0  0
 48102  1  0  0  0  0
 49 48  1  0  0  0  0
 50 46  1  0  0  0  0
 50 49  2  0  0  0  0
 51 49  1  0  0  0  0
 51104  1  0  0  0  0
 52 51  2  0  0  0  0
 53 52  1  0  0  0  0
 53 50  1  0  0  0  0
 54 52  1  0  0  0  0
 54105  1  0  0  0  0
 55 54  2  0  0  0  0
 56 55  1  0  0  0  0
 57 58  1  0  0  0  0
 57 56  1  0  0  0  0
 58 59  1  0  0  0  0
 59 55  1  0  0  0  0
 59 65  2  0  0  0  0
 60 57  2  0  0  0  0
 61 62  2  0  0  0  0
 61 60  1  0  0  0  0
 62 63  1  0  0  0  0
 63108  1  0  0  0  0
 63 58  2  0  0  0  0
 64 56  2  0  0  0  0
 65 66  1  0  0  0  0
 66 69  3  0  0  0  0
 67 65  1  0  0  0  0
 68 67  3  0  0  0  0
 70 62  1  0  0  0  0
 71  4  1  0  0  0  0
 72  6  1  0  0  0  0
 75 15  1  0  0  0  0
 76 25  1  0  0  0  0
 77 25  1  0  0  0  0
 79 29  1  0  0  0  0
 83 34  1  0  0  0  0
 86 35  1  0  0  0  0
 87 36  1  0  0  0  0
 89 36  1  0  0  0  0
 90 40  1  0  0  0  0
 94 42  1  0  0  0  0
 95 42  1  0  0  0  0
 97 43  1  0  0  0  0
 98 43  1  0  0  0  0
 99 43  1  0  0  0  0
101 47  1  0  0  0  0
106 60  1  0  0  0  0
107 61  1  0  0  0  0
M  END
