ZITI-C.sdf
  xtb     12222116573D
 energy: -198.298768889987 gnorm: 0.000248532533 xtb: 6.4.1 (unknown)
114125  0     0  0            999 V2000
    1.2358   -3.8322   -3.3887 C   0  0  0  0  0  0  0  0  0  0  0  0
    0.5828   -5.4058   -3.4766 S   0  0  0  0  0  0  0  0  0  0  0  0
    0.5490   -5.2923   -5.2331 C   0  0  0  0  0  0  0  0  0  0  0  0
    1.0632   -4.0604   -5.6771 C   0  0  0  0  0  0  0  0  0  0  0  0
    1.4271   -3.2347   -4.6412 C   0  0  0  0  0  0  0  0  0  0  0  0
    0.0243   -6.2337   -6.1204 C   0  0  0  0  0  0  0  0  0  0  0  0
   -0.6469   -7.4133   -5.8862 C   0  0  0  0  0  0  0  0  0  0  0  0
   -0.9554   -7.9765   -4.5714 C   0  0  0  0  0  0  0  0  0  0  0  0
   -1.8075   -9.1584   -4.8256 C   0  0  0  0  0  0  0  0  0  0  0  0
   -1.9732   -9.3221   -6.2107 C   0  0  0  0  0  0  0  0  0  0  0  0
   -1.2354   -8.2612   -6.9010 C   0  0  0  0  0  0  0  0  0  0  0  0
   -2.3944  -10.0055   -3.9076 C   0  0  0  0  0  0  0  0  0  0  0  0
   -3.1724  -11.0425   -4.3972 C   0  0  0  0  0  0  0  0  0  0  0  0
   -3.3453  -11.2129   -5.7704 C   0  0  0  0  0  0  0  0  0  0  0  0
   -2.7516  -10.3626   -6.6921 C   0  0  0  0  0  0  0  0  0  0  0  0
   -0.5988   -7.5751   -3.4785 O   0  0  0  0  0  0  0  0  0  0  0  0
   -1.1386   -8.1319   -8.2630 C   0  0  0  0  0  0  0  0  0  0  0  0
   -1.7500   -9.0072   -9.1855 C   0  0  0  0  0  0  0  0  0  0  0  0
   -0.4202   -7.1305   -8.9490 C   0  0  0  0  0  0  0  0  0  0  0  0
    0.1392   -6.3554   -9.5866 N   0  0  0  0  0  0  0  0  0  0  0  0
   -2.2215   -9.6781   -9.9886 N   0  0  0  0  0  0  0  0  0  0  0  0
   -4.1058  -12.2200   -6.2158 F   0  0  0  0  0  0  0  0  0  0  0  0
    1.5365   -2.9009   -2.3514 C   0  0  0  0  0  0  0  0  0  0  0  0
    1.8955   -1.6805   -2.9696 C   0  0  0  0  0  0  0  0  0  0  0  0
    1.9389   -1.8340   -4.4741 C   0  0  0  0  0  0  0  0  0  0  0  0
    1.4458   -3.0155   -0.9645 C   0  0  0  0  0  0  0  0  0  0  0  0
    1.6472   -1.8783   -0.2232 C   0  0  0  0  0  0  0  0  0  0  0  0
    1.9472   -0.6343   -0.8397 C   0  0  0  0  0  0  0  0  0  0  0  0
    2.1047   -0.5445   -2.2237 C   0  0  0  0  0  0  0  0  0  0  0  0
    1.5026   -1.7122    1.2757 C   0  0  0  0  0  0  0  0  0  0  0  0
    1.6468   -0.2258    1.3934 C   0  0  0  0  0  0  0  0  0  0  0  0
    1.9359    0.3614    0.1945 C   0  0  0  0  0  0  0  0  0  0  0  0
    2.6190   -2.4631    2.0283 C   0  0  0  0  0  0  0  0  0  0  0  0
    0.1280   -2.2012    1.7668 C   0  0  0  0  0  0  0  0  0  0  0  0
   -1.0331   -1.4632    1.1116 C   0  0  0  0  0  0  0  0  0  0  0  0
    4.0170   -2.0203    1.6149 C   0  0  0  0  0  0  0  0  0  0  0  0
    1.4235    0.7700    2.3928 C   0  0  0  0  0  0  0  0  0  0  0  0
    1.5484    2.0350    1.7602 C   0  0  0  0  0  0  0  0  0  0  0  0
    1.9701    1.8637    0.3076 C   0  0  0  0  0  0  0  0  0  0  0  0
    3.3992    2.4298    0.1736 C   0  0  0  0  0  0  0  0  0  0  0  0
    0.9582    2.4488   -0.6994 C   0  0  0  0  0  0  0  0  0  0  0  0
    4.0613    2.1926   -1.1764 C   0  0  0  0  0  0  0  0  0  0  0  0
    0.8581    3.9672   -0.7729 C   0  0  0  0  0  0  0  0  0  0  0  0
    1.0759    0.6502    3.7381 C   0  0  0  0  0  0  0  0  0  0  0  0
    0.7812    1.8033    4.4247 C   0  0  0  0  0  0  0  0  0  0  0  0
    0.8609    3.0606    3.7806 C   0  0  0  0  0  0  0  0  0  0  0  0
    1.2969    3.1891    2.4611 C   0  0  0  0  0  0  0  0  0  0  0  0
    0.2885    1.9572    5.8473 C   0  0  0  0  0  0  0  0  0  0  0  0
    0.0059    3.4302    5.9020 C   0  0  0  0  0  0  0  0  0  0  0  0
    0.3663    4.0386    4.6928 C   0  0  0  0  0  0  0  0  0  0  0  0
   -0.5739    4.3131    6.7808 C   0  0  0  0  0  0  0  0  0  0  0  0
   -0.6989    5.6077    6.2452 C   0  0  0  0  0  0  0  0  0  0  0  0
   -0.0216    5.6989    4.6229 S   0  0  0  0  0  0  0  0  0  0  0  0
   -1.3549    6.6287    6.9352 C   0  0  0  0  0  0  0  0  0  0  0  0
   -1.7093    7.8987    6.5378 C   0  0  0  0  0  0  0  0  0  0  0  0
   -1.4393    8.4927    5.2281 C   0  0  0  0  0  0  0  0  0  0  0  0
   -2.1351    9.7979    5.2230 C   0  0  0  0  0  0  0  0  0  0  0  0
   -2.7563    9.9978    6.4667 C   0  0  0  0  0  0  0  0  0  0  0  0
   -2.4839    8.8385    7.3200 C   0  0  0  0  0  0  0  0  0  0  0  0
   -2.2204   10.7201    4.1997 C   0  0  0  0  0  0  0  0  0  0  0  0
   -2.9542   11.8721    4.4336 C   0  0  0  0  0  0  0  0  0  0  0  0
   -3.5768   12.0796    5.6639 C   0  0  0  0  0  0  0  0  0  0  0  0
   -3.4871   11.1532    6.6930 C   0  0  0  0  0  0  0  0  0  0  0  0
   -0.7829    8.0296    4.3130 O   0  0  0  0  0  0  0  0  0  0  0  0
   -2.8994    8.7070    8.6205 C   0  0  0  0  0  0  0  0  0  0  0  0
   -3.6572    9.6771    9.3102 C   0  0  0  0  0  0  0  0  0  0  0  0
   -2.6354    7.6088    9.4654 C   0  0  0  0  0  0  0  0  0  0  0  0
   -2.4665    6.7590   10.2199 N   0  0  0  0  0  0  0  0  0  0  0  0
   -4.2746   10.4221    9.9277 N   0  0  0  0  0  0  0  0  0  0  0  0
   -4.2835   13.1988    5.8611 F   0  0  0  0  0  0  0  0  0  0  0  0
   -3.7662  -11.8862   -3.5434 F   0  0  0  0  0  0  0  0  0  0  0  0
   -3.0691   12.7926    3.4677 F   0  0  0  0  0  0  0  0  0  0  0  0
    3.3547   -1.6581   -5.0310 C   0  0  0  0  0  0  0  0  0  0  0  0
   -0.9462    1.1073    6.1501 C   0  0  0  0  0  0  0  0  0  0  0  0
    1.1195   -3.8160   -6.7232 H   0  0  0  0  0  0  0  0  0  0  0  0
    0.1331   -5.9413   -7.1579 H   0  0  0  0  0  0  0  0  0  0  0  0
   -2.2589   -9.8679   -2.8468 H   0  0  0  0  0  0  0  0  0  0  0  0
   -2.9196  -10.5380   -7.7418 H   0  0  0  0  0  0  0  0  0  0  0  0
    1.2733   -1.1123   -4.9591 H   0  0  0  0  0  0  0  0  0  0  0  0
    1.1861   -3.9607   -0.5128 H   0  0  0  0  0  0  0  0  0  0  0  0
    2.3480    0.3902   -2.7042 H   0  0  0  0  0  0  0  0  0  0  0  0
    2.5052   -3.5321    1.8381 H   0  0  0  0  0  0  0  0  0  0  0  0
    2.4901   -2.2963    3.0997 H   0  0  0  0  0  0  0  0  0  0  0  0
    0.0438   -3.2691    1.5576 H   0  0  0  0  0  0  0  0  0  0  0  0
    0.0733   -2.0694    2.8488 H   0  0  0  0  0  0  0  0  0  0  0  0
   -1.9785   -1.8682    1.4642 H   0  0  0  0  0  0  0  0  0  0  0  0
   -0.9948   -1.5702    0.0298 H   0  0  0  0  0  0  0  0  0  0  0  0
   -1.0020   -0.4033    1.3543 H   0  0  0  0  0  0  0  0  0  0  0  0
    4.1735   -2.1827    0.5509 H   0  0  0  0  0  0  0  0  0  0  0  0
    4.1646   -0.9637    1.8268 H   0  0  0  0  0  0  0  0  0  0  0  0
    4.7649   -2.5883    2.1632 H   0  0  0  0  0  0  0  0  0  0  0  0
    3.3668    3.4996    0.3842 H   0  0  0  0  0  0  0  0  0  0  0  0
    4.0108    1.9648    0.9517 H   0  0  0  0  0  0  0  0  0  0  0  0
    1.2185    2.0702   -1.6884 H   0  0  0  0  0  0  0  0  0  0  0  0
   -0.0247    2.0406   -0.4485 H   0  0  0  0  0  0  0  0  0  0  0  0
    5.0541    2.6378   -1.1761 H   0  0  0  0  0  0  0  0  0  0  0  0
    3.4901    2.6468   -1.9819 H   0  0  0  0  0  0  0  0  0  0  0  0
    4.1679    1.1286   -1.3707 H   0  0  0  0  0  0  0  0  0  0  0  0
    1.8245    4.4223   -0.9719 H   0  0  0  0  0  0  0  0  0  0  0  0
    0.4527    4.3846    0.1433 H   0  0  0  0  0  0  0  0  0  0  0  0
    0.1863    4.2382   -1.5850 H   0  0  0  0  0  0  0  0  0  0  0  0
    1.0187   -0.3182    4.2107 H   0  0  0  0  0  0  0  0  0  0  0  0
    1.3988    4.1713    2.0292 H   0  0  0  0  0  0  0  0  0  0  0  0
    1.0854    1.6909    6.5513 H   0  0  0  0  0  0  0  0  0  0  0  0
   -0.9328    4.0731    7.7660 H   0  0  0  0  0  0  0  0  0  0  0  0
   -1.6701    6.3311    7.9281 H   0  0  0  0  0  0  0  0  0  0  0  0
   -1.7386   10.5537    3.2495 H   0  0  0  0  0  0  0  0  0  0  0  0
   -3.9892   11.3620    7.6231 H   0  0  0  0  0  0  0  0  0  0  0  0
    3.3599   -1.8298   -6.1042 H   0  0  0  0  0  0  0  0  0  0  0  0
    4.0314   -2.3679   -4.5607 H   0  0  0  0  0  0  0  0  0  0  0  0
    3.7151   -0.6514   -4.8352 H   0  0  0  0  0  0  0  0  0  0  0  0
   -1.7451    1.3464    5.4518 H   0  0  0  0  0  0  0  0  0  0  0  0
   -0.7107    0.0501    6.0607 H   0  0  0  0  0  0  0  0  0  0  0  0
   -1.2964    1.3007    7.1606 H   0  0  0  0  0  0  0  0  0  0  0  0
  1  2  1  0  0  0  0
  2  3  1  0  0  0  0
  3  4  2  0  0  0  0
  4  5  1  0  0  0  0
  5  1  2  0  0  0  0
  3  6  1  0  0  0  0
  6  7  2  0  0  0  0
  7  8  1  0  0  0  0
  8  9  1  0  0  0  0
  9 10  2  0  0  0  0
 10 11  1  0  0  0  0
 11  7  1  0  0  0  0
  9 12  1  0  0  0  0
 12 13  2  0  0  0  0
 13 14  1  0  0  0  0
 14 15  2  0  0  0  0
 15 10  1  0  0  0  0
  8 16  2  0  0  0  0
 11 17  2  0  0  0  0
 17 18  1  0  0  0  0
 17 19  1  0  0  0  0
 19 20  3  0  0  0  0
 18 21  3  0  0  0  0
 14 22  1  0  0  0  0
  1 23  1  0  0  0  0
 23 24  2  0  0  0  0
 24 25  1  0  0  0  0
 25  5  1  0  0  0  0
 23 26  1  0  0  0  0
 26 27  2  0  0  0  0
 27 28  1  0  0  0  0
 28 29  2  0  0  0  0
 29 24  1  0  0  0  0
 27 30  1  0  0  0  0
 30 31  1  0  0  0  0
 31 32  2  0  0  0  0
 32 28  1  0  0  0  0
 30 33  1  0  0  0  0
 30 34  1  0  0  0  0
 34 35  1  0  0  0  0
 33 36  1  0  0  0  0
 31 37  1  0  0  0  0
 37 38  2  0  0  0  0
 38 39  1  0  0  0  0
 39 32  1  0  0  0  0
 39 40  1  0  0  0  0
 39 41  1  0  0  0  0
 40 42  1  0  0  0  0
 41 43  1  0  0  0  0
 37 44  1  0  0  0  0
 44 45  2  0  0  0  0
 45 46  1  0  0  0  0
 46 47  2  0  0  0  0
 47 38  1  0  0  0  0
 45 48  1  0  0  0  0
 48 49  1  0  0  0  0
 49 50  2  0  0  0  0
 50 46  1  0  0  0  0
 49 51  1  0  0  0  0
 51 52  2  0  0  0  0
 52 53  1  0  0  0  0
 53 50  1  0  0  0  0
 54 55  2  0  0  0  0
 55 56  1  0  0  0  0
 56 57  1  0  0  0  0
 57 58  2  0  0  0  0
 58 59  1  0  0  0  0
 59 55  1  0  0  0  0
 57 60  1  0  0  0  0
 60 61  2  0  0  0  0
 61 62  1  0  0  0  0
 62 63  2  0  0  0  0
 63 58  1  0  0  0  0
 56 64  2  0  0  0  0
 59 65  2  0  0  0  0
 65 66  1  0  0  0  0
 65 67  1  0  0  0  0
 67 68  3  0  0  0  0
 66 69  3  0  0  0  0
 62 70  1  0  0  0  0
 52 54  1  0  0  0  0
 13 71  1  0  0  0  0
 61 72  1  0  0  0  0
 25 73  1  0  0  0  0
 48 74  1  0  0  0  0
  4 75  1  0  0  0  0
  6 76  1  0  0  0  0
 12 77  1  0  0  0  0
 15 78  1  0  0  0  0
 25 79  1  0  0  0  0
 26 80  1  0  0  0  0
 29 81  1  0  0  0  0
 33 82  1  0  0  0  0
 33 83  1  0  0  0  0
 34 84  1  0  0  0  0
 34 85  1  0  0  0  0
 35 86  1  0  0  0  0
 35 87  1  0  0  0  0
 35 88  1  0  0  0  0
 36 89  1  0  0  0  0
 36 90  1  0  0  0  0
 36 91  1  0  0  0  0
 40 92  1  0  0  0  0
 40 93  1  0  0  0  0
 41 94  1  0  0  0  0
 41 95  1  0  0  0  0
 42 96  1  0  0  0  0
 42 97  1  0  0  0  0
 42 98  1  0  0  0  0
 43 99  1  0  0  0  0
 43100  1  0  0  0  0
 43101  1  0  0  0  0
 44102  1  0  0  0  0
 47103  1  0  0  0  0
 48104  1  0  0  0  0
 51105  1  0  0  0  0
 54106  1  0  0  0  0
 60107  1  0  0  0  0
 63108  1  0  0  0  0
 73109  1  0  0  0  0
 73110  1  0  0  0  0
 73111  1  0  0  0  0
 74112  1  0  0  0  0
 74113  1  0  0  0  0
 74114  1  0  0  0  0
M  END
