76
DTC-F-C.sdf
C          5.57486       -1.37432       -0.02040
O          6.52983       -0.63143       -0.14491
C          5.72030       -2.79026        0.06829
C          4.50445       -3.41390        0.09160
C          3.40462       -2.39055        0.03372
C          2.06570       -2.66812        0.02948
C          1.59475       -4.04180        0.08474
N          1.25267       -5.14917        0.12970
C          1.03625       -1.64876       -0.00646
N          0.17500       -0.87299       -0.03408
C          4.12029       -1.03429       -0.00611
C          3.56256        0.22452       -0.02592
C          4.28598        1.54986       -0.03801
C          3.71892        2.83706       -0.05797
C          4.74806        3.72194       -0.03236
C          5.89021        2.97212       -0.01594
O          5.59413        1.68787       -0.02514
C          7.23922        3.53833       -0.00162
C          7.41298        4.94581       -0.00637
C          8.69289        5.49661        0.02064
C          9.76910        4.62080        0.04066
C          9.63046        3.25186        0.04111
C          8.36090        2.68189        0.02633
N         10.84661        2.63679        0.06213
C         11.11458        1.18854        0.08112
C         11.90225        0.76168        1.31253
C         11.74370        3.66123        0.07837
C         11.09973        4.87489        0.06745
C         11.76807        6.08627        0.08255
C         13.15942        6.06066        0.11258
C         13.85564        4.83986        0.12878
C         13.13553        3.64084        0.10690
C         15.32790        4.81484        0.16339
C         16.07058        3.66624        0.18271
C         17.36362        4.05181        0.21322
C         17.37719        5.45705        0.20965
O         16.12485        5.86924        0.18264
C         18.59850        6.34839        0.23420
C         18.64902        7.72496        0.23015
C         19.89293        8.62630        0.25673
C         21.22711        8.29154        0.27846
C         22.23026        9.34505        0.28450
N         23.00441       10.20910        0.28849
C         21.72755        6.91748        0.28836
N         22.13728        5.82972        0.29638
C         19.34760       10.03502        0.24727
C         17.98155       10.01014        0.21281
C         17.49025        8.67345        0.19510
O         16.30020        8.42560        0.14992
C          6.84945       -3.57547        0.11715
S          6.28844       -5.15983        0.18958
C          4.62514       -4.80400        0.15704
C         19.84395       11.34121        0.26354
S         18.50523       12.39237        0.23317
C         17.30860       11.21151        0.19912
H          2.49234        0.31077       -0.01826
H          2.71349        3.21619       -0.09075
H          4.65134        4.79893       -0.04119
H          6.56478        5.61668       -0.01652
H          8.83829        6.56856        0.02945
H          8.23885        1.61445        0.03107
H         10.16268        0.62408        0.08294
H         11.67285        0.88981       -0.82730
H         11.37775        1.04051        2.24734
H         12.09631       -0.31303        1.31009
H         12.90550        1.13112        1.28982
H         11.23442        7.02537        0.07347
H         13.67251        7.00528        0.12567
H         13.71253        2.79056        0.09785
H         15.74561        2.63715        0.17966
H         18.10755        3.27879        0.23316
H         19.52501        5.80089        0.25915
H          7.87182       -3.21437        0.10685
H          3.84702       -5.54524        0.18116
H         20.86723       11.66514        0.29038
H         16.23066       11.33215        0.17201
