76
DTC-T-C.sdf
C          1.28609        0.35531       -0.06266
O          2.27084       -0.33573       -0.10973
C          0.00544       -0.22291       -0.02450
C         -0.96808        0.72980       -0.06052
C         -0.35208        2.08669       -0.11913
C         -1.02541        3.27334       -0.18251
C         -2.46582        3.31715       -0.20144
N         -3.62294        3.32788       -0.21576
C         -0.39706        4.56903       -0.23238
N          0.05920        5.63235       -0.27415
C          1.14064        1.83024       -0.09221
C          2.11466        2.76210       -0.09329
C          3.57203        2.58072       -0.05420
C          4.38625        1.44185       -0.00788
C          5.72210        1.71524       -0.00167
C          5.97619        3.06219       -0.01456
S          4.55669        3.92700       -0.03837
C          7.27960        3.64333        0.00053
C          7.42436        5.05102       -0.00848
C          8.68983        5.61371        0.01757
C          9.75756        4.73572        0.03557
C          9.62616        3.36214        0.03494
C          8.39026        2.78593        0.02387
N         10.82291        2.73996        0.05346
C         11.09621        1.28628        0.07917
C         11.90005        0.86615        1.31559
C         11.70251        3.76217        0.07173
C         11.07114        4.98796        0.06182
C         11.73527        6.19847        0.08136
C         13.11743        6.14755        0.11495
C         13.77919        4.89361        0.12952
C         13.06104        3.68697        0.10819
C         15.20917        4.82832        0.16479
C         15.93508        3.66425        0.17953
C         17.27351        3.88497        0.21287
C         17.62775        5.23417        0.22529
S         16.22938        6.14339        0.19183
C         18.92015        5.91880        0.25602
C         20.16025        5.40272        0.28323
C         21.44187        6.20240        0.31236
C         21.60958        7.57340        0.32747
C         22.94603        8.12186        0.35762
N         24.01428        8.56848        0.38174
C         20.52597        8.58060        0.30996
N         19.68650        9.38992        0.29658
C         22.52216        5.15108        0.32353
C         21.96753        3.90152        0.31317
C         20.56523        3.97142        0.29406
O         19.89875        2.96592        0.29508
C         -0.37371       -1.53899        0.03059
S         -2.05523       -1.50340        0.03330
C         -2.24539        0.18584       -0.03674
C         23.91226        5.09720        0.34250
S         24.35145        3.44984        0.34627
C         22.79873        2.80780        0.32371
H          1.85159        3.79907       -0.12206
H          4.17035        0.41525        0.02731
H          6.46778        0.93212        0.03371
H          6.56680        5.71065       -0.01641
H          8.82830        6.68734        0.02661
H          8.30118        1.71169        0.01556
H         10.14760        0.71258        0.05561
H         11.66012        0.98447       -0.82547
H         11.34657        1.09434        2.24941
H         12.08322       -0.23039        1.28250
H         12.88568        1.36687        1.34188
H         11.21019        7.14506        0.07114
H         13.64917        7.08792        0.12607
H         13.52995        2.72256        0.11741
H         15.54516        2.65892        0.16357
H         17.83467        3.00114        0.22077
H         18.79250        6.98008        0.25291
H          0.30076       -2.38827        0.06323
H         -3.18600        0.70463       -0.05874
H         24.60323        5.91860        0.35355
H         22.47861        1.76911        0.31800
