83
DTC-F-F.sdf
C          5.64727       -1.49871       -0.01182
O          6.60705       -0.77840       -0.14750
C          5.77590       -2.92231        0.07203
C          4.55332       -3.52605        0.08775
C          3.47573       -2.49272        0.02743
C          2.14263       -2.77228       -0.00057
C          1.65293       -4.12962        0.02345
N          1.29195       -5.22924        0.04396
C          1.11378       -1.77806       -0.04642
N          0.24306       -1.01933       -0.08329
C          4.19792       -1.14081        0.00242
C          3.63936        0.12011       -0.01235
C          4.34501        1.45375       -0.01691
C          3.76866        2.73327       -0.03234
C          4.79209        3.62940        0.00754
C          5.94446        2.88936        0.01500
O          5.65619        1.60002       -0.01126
C          7.29555        3.47795        0.02477
C          8.44058        2.65230        0.03212
C          9.72250        3.22238        0.00933
C          9.83372        4.61551        0.00831
C          8.72583        5.44033        0.01913
C          7.44571        4.88390        0.01213
C          9.10110        6.91089        0.04999
C          8.53578        7.61256       -1.24929
C          8.99149        7.13366       -2.64876
C          8.58196        7.55619        1.38852
C          8.85758        9.06229        1.63080
C         10.61616        6.77280        0.02347
C         11.01304        5.44397        0.00444
C         12.36025        5.06944       -0.00679
C         13.33248        6.08180        0.00319
C         12.94352        7.43879        0.02260
C         11.57483        7.77302        0.02991
C         13.93876        8.52410        0.04043
C         15.29475        8.32273        0.03985
C         15.85841        9.55471        0.05796
C         14.80696       10.48843        0.06954
O         13.67631        9.81701        0.05556
C         14.90544       11.99543        0.09011
C         13.88062       12.91779        0.10261
C         13.99380       14.44620        0.12522
C         15.10769       15.25107        0.12507
C         14.91532       16.69871        0.14273
N         14.76749       17.85020        0.15673
C         16.50091       14.75142        0.10521
N         17.59917       14.35329        0.08951
C         12.56884       14.94335        0.14157
C         11.70428       13.88931        0.12246
C         12.40701       12.65067        0.09123
O         11.82391       11.58582        0.04528
C          6.88360       -3.73783        0.11993
S          6.28533       -5.31154        0.18335
C          4.63461       -4.91809        0.14709
C         11.89925       16.17057        0.16629
S         10.23364       15.83815        0.16506
C         10.35379       14.16184        0.13157
H          2.56958        0.20800       -0.01210
H          2.76534        3.09510       -0.07259
H          4.69241        4.70690       -0.00133
H          8.34034        1.57352        0.02458
H         10.60109        2.59048       -0.00573
H          6.58544        5.53953        0.02144
H          7.43205        7.49803       -1.23687
H          8.76370        8.69980       -1.20569
H          8.81697        6.06332       -2.81949
H          8.41027        7.67431       -3.42504
H         10.04052        7.38462       -2.88324
H          7.48662        7.42814        1.47797
H          9.06478        7.01902        2.22770
H          8.22334        9.71273        1.00203
H          8.56875        9.32863        2.66805
H          9.91743        9.34098        1.52048
H         12.65546        4.02656       -0.01794
H         14.38032        5.81052        0.00015
H         11.26000        8.79577        0.04579
H         15.85194        7.39600        0.02507
H         16.92679        9.61993        0.05705
H         15.91489       12.35727        0.09533
H          7.91406       -3.40776        0.11448
H          3.83585       -5.63921        0.16503
H         12.31035       17.16250        0.18238
H          9.55509       13.42988        0.11921
