83
DTC-T-F.sdf
C          1.50567        0.38071       -1.13030
O          2.53769       -0.15419       -1.47548
C          0.24561       -0.18901       -1.42464
C         -0.76846        0.62504       -1.01211
C         -0.21415        1.85535       -0.37385
C         -0.94211        2.89413        0.13431
C         -2.37967        2.88364        0.09042
N         -3.53541        2.86379        0.04964
C         -0.38427        4.06741        0.76839
N          0.01810        5.02603        1.28042
C          1.28607        1.67412       -0.42183
C          2.20524        2.53360        0.06970
C          3.66393        2.40372        0.04897
C          4.47945        1.26837        0.04931
C          5.81944        1.55381        0.02472
C          6.06661        2.90294        0.02274
S          4.63742        3.75097        0.05975
C          7.36234        3.51073        0.01460
C          8.50973        2.69270        0.00673
C          9.76133        3.27098       -0.00706
C          9.82325        4.65557        0.00060
C          8.71411        5.47838        0.01776
C          7.46033        4.91382        0.01772
C          9.06919        6.94901        0.05346
C          8.50680        7.66533       -1.24147
C          8.74216        9.18315       -1.43332
C          8.55833        7.59682        1.39294
C          9.10663        7.03494        2.72851
C         10.57098        6.78536        0.02441
C         10.96787        5.46025        0.00014
C         12.29253        5.04933       -0.01462
C         13.26141        6.03368       -0.00366
C         12.87646        7.38821        0.02094
C         11.52631        7.75985        0.03423
C         13.86688        8.42351        0.03516
C         15.22747        8.23541        0.02687
C         15.91925        9.41377        0.04685
C         15.09625       10.54050        0.07209
S         13.51133       10.04941        0.05287
C         15.42562       11.96017        0.09498
C         16.51780       12.54797        0.61356
C         16.79995       14.03246        0.60325
C         16.04740       15.07116        0.09590
C         16.58867       16.41580        0.22445
N         17.07138       17.46284        0.35655
C         14.73646       14.91660       -0.57804
N         13.70535       14.77933       -1.10637
C         18.13810       14.15354        1.28034
C         18.59490       12.92364        1.66270
C         17.67700       11.90915        1.30813
O         17.88486       10.74096        1.56781
C         -0.08560       -1.37131       -2.04041
S         -1.76860       -1.39230       -2.06592
C         -2.02445        0.10146       -1.29449
C         19.03204       15.16719        1.61906
S         20.35541       14.43573        2.39416
C         19.81022       12.84941        2.30219
H          1.88907        3.43684        0.54020
H          4.22831        0.23631        0.08408
H          6.57471        0.78292        0.02240
H          8.44629        1.61356        0.00218
H         10.65076        2.65435       -0.02258
H          6.58909        5.55436        0.03138
H          8.96107        7.17196       -2.12747
H          7.40674        7.51343       -1.29787
H          9.80075        9.47162       -1.38175
H          8.38018        9.49992       -2.42962
H          8.15433        9.81861       -0.75412
H          8.78969        8.68013        1.40326
H          7.45793        7.47700        1.43463
H         10.14785        7.33804        2.91587
H          8.56643        7.47608        3.58555
H          9.00046        5.94272        2.82630
H         12.57165        4.00382       -0.03015
H         14.29847        5.73234       -0.01112
H         11.22319        8.78367        0.05473
H         15.74324        7.28888        0.00635
H         16.98153        9.32483        0.02805
H         14.67515       12.55724       -0.36593
H          0.61517       -2.10817       -2.41797
H         -2.98546        0.53395       -1.08148
H         18.94702       16.22160        1.44662
H         20.28809       11.94412        2.66037
