154
DTCC-BC.sdf
C          0.68789        0.21992        0.99135
C          1.14059       -0.93703        0.40179
C          0.93143       -1.41979       -1.01133
C          1.61270       -2.62446       -1.20249
C          2.19438       -3.01580       -0.06049
C          1.99693       -2.03266        1.02054
O          0.17689       -1.06422       -1.87976
C          2.49302       -2.16827        2.28038
C          2.21083       -1.14363        3.28132
C          3.18059       -3.43506        2.70200
N          2.00217       -0.34588        4.10001
N          3.71215       -4.43811        2.98863
C        -12.40888        2.21119       -7.06050
C        -12.38144        0.95264       -7.60692
C        -11.18921        0.07228       -7.79415
C        -11.63950       -1.22980       -8.11637
C        -12.96694       -1.25608       -8.30195
C        -13.55518        0.08187       -8.04666
O        -10.00818        0.31880       -7.68020
C        -14.86740        0.36792       -8.18784
C        -15.40442        1.69500       -8.00473
C        -15.76777       -0.67836       -8.64626
N        -15.85987        2.75069       -7.86508
N        -16.43064       -1.55602       -9.01225
C        -11.22704        2.96309       -6.52818
C        -11.04391        4.35828       -6.48905
C         -9.77379        4.79757       -5.90954
C         -9.14274        3.72065       -5.52927
S         -9.87374        2.28997       -5.85440
C         -8.96119        6.16339       -5.56546
C         -7.73153        5.34648       -4.85881
C         -7.95999        3.98998       -4.96279
C         -7.96794        7.15963       -6.26287
C        -10.07605        6.84643       -6.44570
C         -6.44221        5.70715       -4.23915
C         -5.51511        4.63049       -3.89576
C         -5.93465        3.31374       -4.13101
C         -7.14173        2.98646       -4.61255
C         -8.09680        8.55603       -5.99394
C         -7.42000        9.50268       -6.75099
C         -6.55410        9.09775       -7.76962
C         -6.32953        7.72631       -7.98111
C         -7.02958        6.76433       -7.24521
C        -11.27890        7.32824       -5.90214
C        -12.28248        7.82282       -6.75378
C        -12.10439        7.84421       -8.15669
C        -10.90586        7.39887       -8.70264
C         -9.92213        6.91262       -7.88264
C         -5.90667       10.13097       -8.65350
C         -4.38745       10.05173       -8.54229
C        -13.18793        8.30313       -9.09634
C        -12.70372        9.49254       -9.90354
C         -4.20813        4.45558       -3.31277
C         -3.99523        3.06371       -3.37756
N         -5.03701        2.38475       -3.83621
C         -5.23308        0.91618       -3.90154
C         -6.09897        0.45791       -2.72068
C         -3.20176        5.27435       -2.65246
C         -2.10310        4.56455       -2.00368
C         -2.03727        3.20606       -2.21091
C         -2.89784        2.44339       -2.90543
C         -1.10613        4.88951       -0.79917
C         -0.67722        3.43716       -0.46996
C         -1.14063        2.62608       -1.38193
C         -2.07650        5.41654        0.27175
C          0.26737        5.68144       -0.96857
C         -2.70293        4.56855        1.22173
C         -3.72249        5.04895        2.04840
C         -4.12473        6.38821        1.97289
C         -3.49832        7.23911        1.06646
C         -2.52064        6.75340        0.21288
C          0.85073        6.48960        0.05129
C          2.15562        6.99706       -0.05162
C          2.94711        6.73325       -1.17077
C          2.38814        6.00945       -2.22124
C          1.08795        5.50035       -2.12559
C         -5.27016        6.90284        2.79378
C         -4.77902        8.01630        3.71035
C          4.39185        7.17871       -1.23580
C          5.25002        6.57245       -0.12676
C          0.04242        2.71912        0.51208
C          0.06120        1.32800        0.24553
S         -0.77819        1.10218       -1.14739
C        -10.99232       -2.43749       -8.19959
C        -11.86905       -3.46456       -8.50638
S        -13.44845       -2.84099       -8.68390
C         -9.64445       -2.67089       -7.94815
C         -9.18431       -3.98692       -7.97253
C        -10.06435       -5.04066       -8.28611
C        -11.42057       -4.78373       -8.57503
C          1.79541       -3.44449       -2.30170
C          2.56810       -4.54232       -1.95709
S          2.98981       -4.48249       -0.30832
C          1.34038       -3.25965       -3.61402
C          1.69576       -4.21410       -4.57933
C          2.48485       -5.32632       -4.22497
C          2.92495       -5.49761       -2.90168
H          0.81447        0.43219        2.04000
H        -13.35638        2.70873       -6.91400
H        -11.81363        5.01262       -6.86955
H         -6.15674        6.74137       -4.10439
H         -7.43762        1.95784       -4.76060
H         -8.79919        8.90787       -5.24636
H         -7.60780       10.55423       -6.56537
H         -5.65012        7.40006       -8.75566
H         -6.89735        5.71679       -7.48055
H        -11.44793        7.27959       -4.83470
H        -13.20960        8.16078       -6.31465
H        -10.73941        7.38862       -9.77293
H         -9.02433        6.53336       -8.35787
H         -6.23784        9.98747       -9.71018
H         -6.21376       11.15339       -8.33823
H         -4.00591        9.05958       -8.86522
H         -3.91630       10.83373       -9.17222
H         -4.07971       10.22283       -7.48806
H        -13.47475        7.47353       -9.78388
H        -14.09246        8.61566       -8.53436
H        -11.85510        9.16942      -10.53807
H        -13.51213        9.87379      -10.55796
H        -12.38407       10.30441       -9.21298
H         -5.67280        0.62804       -4.87819
H         -4.28942        0.35013       -3.84344
H         -7.09120        0.95334       -2.71244
H         -6.25358       -0.63970       -2.76257
H         -5.58605        0.70572       -1.76510
H         -3.37367        6.32779       -2.49564
H         -2.78309        1.37332       -2.91557
H         -2.47323        3.51646        1.29796
H         -4.22039        4.36519        2.72408
H         -3.80975        8.27138        0.97013
H         -2.17619        7.44312       -0.52923
H          0.38055        6.72158        0.97502
H          2.56615        7.56236        0.77574
H          2.97259        5.79476       -3.10930
H          0.77737        4.92909       -2.98345
H         -6.09573        7.24575        2.12431
H         -5.67466        6.09707        3.44120
H         -4.36188        8.86400        3.12660
H         -5.61050        8.38257        4.34371
H         -3.98202        7.61791        4.37703
H          4.81251        6.87647       -2.21824
H          4.46771        8.28304       -1.16220
H          5.24874        5.46454       -0.18535
H          6.29640        6.92683       -0.24568
H          4.87421        6.89552        0.86636
H          0.51298        3.20581        1.32437
H         -8.97228       -1.86270       -7.69700
H         -8.14911       -4.18433       -7.73063
H         -9.68947       -6.05374       -8.28649
H        -12.09827       -5.59351       -8.80496
H          0.74409       -2.39988       -3.89625
H          1.36735       -4.09118       -5.60341
H          2.75808       -6.05181       -4.97899
H          3.53728       -6.34412       -2.62561
