103
DTDfBT_TDPP2.sdf
C          0.46456        1.48446       -0.05932
C          1.70746        0.81452        0.06467
C          1.79792       -0.58665        0.08662
C          0.65374       -1.41520       -0.00950
C         -0.59010       -0.76010       -0.14540
C         -0.68142        0.66974       -0.17283
N         -1.77619       -1.41103       -0.25090
S         -2.87307       -0.18916       -0.36978
N         -1.94094        1.16490       -0.29511
C          0.78647       -2.91809        0.04784
C          0.36221        2.99032       -0.04203
C         -1.05883        6.72697       -0.08743
C         -0.50748        7.92958        0.31587
C         -1.34906        9.02924        0.13834
C         -2.60362        8.72444       -0.41219
S         -2.61360        7.04292       -0.65123
C         -3.72524        9.65443       -0.80671
C         -4.84034        9.27018       -1.56026
C         -5.63278       10.39839       -1.79197
C         -5.00600       11.44315       -1.17997
N         -3.84871       11.01544       -0.57164
C         -5.48970        8.23491       -2.19482
N         -6.64148        8.69304       -2.80194
C         -6.72935       10.04581       -2.56341
C         -3.00206       11.95454        0.18024
C         -2.31618       12.94574       -0.76200
O         -5.40171       12.59487       -1.16424
O         -5.11770        7.07568       -2.22400
C         -7.78062       10.99738       -3.03732
S         -8.07290       12.51442       -2.36083
C         -9.33224       12.96495       -3.37043
C         -9.53836       11.93885       -4.27577
C         -8.68140       10.84603       -4.09605
C         -7.57784        7.82724       -3.53474
C         -8.93929        7.76726       -2.83562
C          2.35915       -6.56478        0.33559
S          1.71467       -8.11015        0.44577
C          3.17749       -8.95439        0.52111
C          4.19075       -7.99123        0.47065
C          3.73792       -6.67211        0.37022
C          3.35844      -10.43980        0.65454
C          4.56998      -11.10661        0.86779
C          4.30170      -12.47659        0.99977
C          2.94751      -12.62080        0.86787
N          2.35944      -11.39406        0.65029
C          5.93371      -10.98753        1.02230
N          6.50408      -12.22308        1.24577
C          5.49136      -13.15286        1.24297
C          0.90837      -11.21820        0.48208
C          0.53949      -10.87767       -0.96276
O          2.33532      -13.67110        0.94121
O          6.57470       -9.95706        0.97450
C          5.61457      -14.62297        1.47608
S          4.47383      -15.77177        1.00517
C          5.28978      -17.12284        1.57838
C          6.46383      -16.69441        2.17269
C          6.64825      -15.30975        2.11845
C          7.95142      -12.41860        1.41614
C          8.54047      -13.25707        0.27927
C          1.38857        3.90486        0.22981
C          0.98193        5.24189        0.23736
C         -0.36625        5.42386       -0.03945
S         -1.04438        3.91040       -0.30004
S          2.24300       -3.76861        0.19389
C          1.59437       -5.31529        0.21959
C          0.21886       -5.20721        0.10946
C         -0.23247       -3.88503        0.01148
F          2.87482        1.49268        0.16673
F          3.04078       -1.11517        0.21633
H          0.48838        8.02652        0.72608
H         -0.96602        9.99077        0.39769
H         -3.63009       12.50261        0.91522
H         -2.25152       11.45565        0.78792
H         -3.05974       13.54222       -1.33016
H         -1.68599       13.64731       -0.17667
H         -1.67135       12.39981       -1.48295
H         -9.88289       13.89481       -3.32898
H        -10.29012       11.97912       -5.05266
H         -8.73817        9.99514       -4.74931
H         -7.66618        8.16163       -4.58519
H         -7.19068        6.78659       -3.57339
H         -9.41965        8.76004       -2.75852
H         -9.62118        7.10005       -3.40317
H         -8.81900        7.36706       -1.80726
H          5.23816       -8.19267        0.49827
H          4.40887       -5.82455        0.31852
H          0.37770      -12.17039        0.71164
H          0.52831      -10.46979        1.20515
H          0.85492      -11.70114       -1.63687
H         -0.56270      -10.75868       -1.04108
H          1.01673       -9.94890       -1.32138
H          4.95814      -18.14960        1.50642
H          7.17305      -17.36564        2.63900
H          7.51624      -14.85809        2.56022
H          8.47768      -11.44008        1.39095
H          8.16923      -12.85117        2.40958
H          8.35036      -12.76036       -0.69550
H          9.63717      -13.35626        0.42125
H          8.10665      -14.27314        0.23714
H          2.41380        3.65975        0.44499
H          1.67075        6.05021        0.44059
H         -0.44974       -6.05802        0.09684
H         -1.28613       -3.69102       -0.07601
