84
DTI.sdf
C         -2.79330        2.67093       -0.63846
C         -1.99180        1.63099       -1.15106
C         -2.44461        0.29187       -1.12160
C         -3.76349        0.00798       -0.66636
C         -4.50193        1.03678       -0.02296
C         -3.96029        2.34289        0.07422
C         -0.22273        0.30429       -1.69707
C          1.08752       -0.11339       -1.91288
C          1.37067       -1.48319       -1.92242
C          0.30508       -2.39784       -1.73234
C         -1.01099       -1.93788       -1.49751
C         -1.27438       -0.55670       -1.48514
C         -0.56905        1.62013       -1.55609
C          0.43751        2.59703       -1.66335
C          1.75962        2.21339       -1.93003
C          2.09917        0.84957       -2.03162
C          3.42590        0.42133       -2.16609
N          3.72574       -0.93311       -2.15425
C          2.71609       -1.88333       -2.04429
C          5.13951       -1.35557       -2.13212
C          5.60013       -1.48439       -0.67798
O          2.99474       -3.07237       -2.00710
O          4.32095        1.25097       -2.23540
C         -3.42196        4.53440        0.48430
C         -3.37625        5.80276        1.03425
C         -2.47611        6.74044        0.50793
C         -1.69939        6.37907       -0.62120
C         -1.75625        5.06809       -1.13286
C         -2.57600        4.12315       -0.49841
C         -4.27864        3.54514        0.89402
C         -5.11165        3.80506        1.99561
C         -5.07240        5.07917        2.60888
C         -4.19921        6.09194        2.12843
C         -4.07805        7.35557        2.73362
N         -3.15740        8.28084        2.24713
C         -2.37735        7.98946        1.13580
C         -2.95391        9.56056        2.95514
C         -1.71876        9.45337        3.85430
O         -1.58306        8.81580        0.70748
O         -4.75362        7.61527        3.71625
C         -5.73159       -0.88629        0.09733
C         -6.77021       -1.77508        0.35150
C         -7.90394       -1.31543        1.03703
C         -7.96289        0.04785        1.41832
C         -6.90268        0.92771        1.11601
C         -5.76084        0.43229        0.46739
C         -4.59298       -1.22433       -0.59059
C         -4.48528       -2.52859       -1.10386
C         -5.50998       -3.46584       -0.84239
C         -6.66417       -3.09537       -0.10329
C         -7.72231       -3.98167        0.16826
N         -8.84814       -3.54231        0.85833
C         -8.94653       -2.22442        1.28696
C         -9.96155       -4.48188        1.11680
C         -9.72352       -5.25938        2.40531
O         -9.94235       -1.84167        1.88356
O         -7.65186       -5.14047       -0.21740
H          0.49471       -3.46357       -1.70368
H         -1.74045       -2.67401       -1.26625
H          0.29480        3.62820       -1.49570
H          2.52027        2.98308       -1.98720
H          5.27898       -2.31336       -2.67602
H          5.79081       -0.60944       -2.63712
H          4.99069       -2.24247       -0.14185
H          6.66756       -1.78274       -0.63563
H          5.48534       -0.50887       -0.15526
H         -1.03194        7.09184       -1.08995
H         -1.17811        4.83616       -2.00426
H         -5.73070        3.05988        2.44403
H         -5.69544        5.25846        3.47581
H         -2.85265       10.39676        2.22914
H         -3.81462        9.80931        3.60868
H         -0.80935        9.21393        3.26477
H         -1.55616       10.40717        4.39719
H         -1.87600        8.64504        4.60254
H         -8.83577        0.44069        1.92601
H         -7.02423        1.95633        1.36779
H         -3.67526       -2.84282       -1.72053
H         -5.41142       -4.46813       -1.24131
H        -10.92735       -3.93855        1.20519
H        -10.09250       -5.17657        0.25886
H         -9.65439       -4.55574        3.26221
H        -10.57327       -5.95226        2.58324
H         -8.78531       -5.84776        2.33868
