158
DTPC-IC.sdf
C          0.60743        0.56371        0.13813
C          1.34854        0.12703       -0.89953
C          1.76497       -1.25887       -1.25941
C          2.43134       -1.23330       -2.51969
C          2.53445        0.06718       -2.97554
C          1.95506        1.00433       -1.92583
O          1.65194       -2.28570       -0.61592
C          2.11196        2.36154       -1.84947
C          1.70842        3.15317       -0.71158
C          2.79848        3.03203       -3.02825
N          1.45788        3.95982        0.09970
N          3.36801        3.58827       -4.00614
C          2.92734       -2.33914       -3.20983
C          3.54614       -2.13131       -4.43860
C          3.66713       -0.82930       -4.94401
C          3.17485        0.27434       -4.21828
C          0.31959      -14.17061        7.41169
C          1.35663      -14.76967        6.78954
C          1.94448      -14.42639        5.47693
C          2.78855      -15.52515        5.07235
C          2.87889      -16.44549        6.10164
C          2.18994      -15.92079        7.31280
O          1.74201      -13.43164        4.80327
C          2.39919      -16.31350        8.61374
C          1.75749      -15.65664        9.71007
C          3.46462      -17.28167        8.87672
N          1.34633      -15.22680       10.69776
N          4.27635      -18.02937        9.25151
C          3.40490      -15.72729        3.83992
C          4.07275      -16.93953        3.62551
C          4.11371      -17.91441        4.63825
C          3.53179      -17.66472        5.88934
C         -0.48573      -13.00058        6.96324
C         -0.98286      -12.19866        7.95676
C         -1.33937      -10.91979        7.51643
C         -1.24644      -10.73161        6.14560
S         -0.64797      -12.16712        5.47800
C         -1.31022       -9.73591        8.46874
C         -2.03903       -8.55009        7.85106
C         -1.93110       -8.35952        6.45806
C         -1.46727       -9.38774        5.54926
C         -2.17618       -7.07554        5.99023
C         -1.87220       -6.84802        4.69242
C         -1.40877       -7.72845        3.76993
C         -1.22120       -9.07202        4.16394
C         -2.52574       -7.49745        8.67549
C         -2.80956       -6.23474        8.16070
C         -2.56689       -5.97602        6.81368
C         -2.53158       -4.64877        6.25938
C         -2.11234       -4.51580        4.92094
C         -1.84326       -5.64443        4.19147
C         -1.81012       -3.29765        4.33309
C         -1.33324       -3.31232        2.99910
C         -1.12598       -4.53122        2.26257
C         -1.36375       -5.72423        2.93739
C         -2.74134       -3.46505        6.99224
C         -2.40011       -2.22407        6.43652
C         -1.87815       -2.12075        5.12870
C         -1.22840       -0.79806        4.65997
C         -0.87263       -0.88334        3.18122
C         -0.97184       -2.05157        2.44953
C         -0.32281        0.15127        2.42038
C         -0.01585       -0.26402        1.13565
S         -0.46675       -1.84043        0.91085
N         -1.12253       -7.03751        2.61331
C         -0.47901       -7.53518        1.39132
C         -1.50282       -8.08606        0.40906
C          0.25027       -9.33776        8.44683
C         -1.91605      -10.12254        9.81916
C         -1.48806       -9.54146       11.02374
C         -2.03174       -9.96761       12.23931
C         -3.00094      -10.98717       12.27012
C         -3.45603      -11.53732       11.07098
C         -2.93947      -11.09685        9.86664
C          0.70941       -8.00243        8.63351
C          2.04109       -7.63205        8.33405
C          2.95861       -8.57274        7.83716
C          2.55786       -9.88672        7.71330
C          1.26814      -10.25362        8.01689
C          4.34689       -8.19869        7.38494
C          5.42760       -8.94905        8.15852
C         -3.53948      -11.50879       13.57077
C         -4.24574      -10.41879       14.36305
C          0.09785       -0.76321        5.49898
C         -2.17529        0.41612        4.78075
C         -1.69891        1.71944        5.04961
C         -2.57702        2.81347        5.08986
C         -3.95039        2.64238        4.85435
C         -4.42904        1.35555        4.56782
C         -3.55449        0.26304        4.52291
C          1.28296       -1.35295        4.98282
C          2.44667       -1.46797        5.74021
C          2.49589       -1.00791        7.06412
C          1.33240       -0.43504        7.60667
C          0.15084       -0.32264        6.84434
C          3.74966       -1.12469        7.92447
C          4.94479       -1.79096        7.22994
C         -4.89883        3.82295        4.91887
C         -4.55367        4.90586        3.89545
H          0.40537        1.60008        0.29567
H          2.83054       -3.33923       -2.80262
H          3.92841       -2.97805       -4.99468
H          4.14997       -0.67801       -5.89973
H          3.31108        1.23830       -4.65931
H          0.05830      -14.53211        8.39469
H          3.34124      -14.98130        3.05855
H          4.53519      -17.13496        2.66830
H          4.59560      -18.86478        4.45349
H          3.56691      -18.43162        6.64630
H         -0.86426      -12.44884        9.00456
H         -0.83510       -9.80971        3.47291
H         -2.59116       -7.59217        9.74599
H         -3.09344       -5.45628        8.85239
H         -0.71257       -4.54066        1.26279
H         -3.06681       -3.47295        8.01945
H         -2.48102       -1.34516        7.05954
H         -0.10831        1.14362        2.79637
H          0.05982       -6.70741        0.88170
H          0.27996       -8.30457        1.64870
H         -2.21592       -7.28387        0.12054
H         -0.98173       -8.43512       -0.50936
H         -2.05773       -8.93496        0.85609
H         -0.73493       -8.76408       11.02675
H         -1.68150       -9.51521       13.15662
H         -4.20264      -12.32189       11.05632
H         -3.32513      -11.55666        8.96550
H          0.04268       -7.21459        8.94526
H          2.34566       -6.59967        8.43928
H          3.23013      -10.64778        7.32957
H          1.13507      -11.28292        7.82191
H          4.44838       -8.45091        6.30296
H          4.50682       -7.10801        7.49614
H          5.34240      -10.04701        8.00757
H          6.42620       -8.63303        7.79219
H          5.34276       -8.72192        9.24027
H         -4.26250      -12.33550       13.38873
H         -2.69500      -11.92110       14.16231
H         -5.09948      -10.01477       13.77854
H         -4.62417      -10.84889       15.31265
H         -3.54350       -9.59481       14.60514
H         -0.64594        1.90560        5.21437
H         -2.18489        3.80059        5.30073
H         -5.48238        1.19282        4.37385
H         -3.96207       -0.70954        4.28240
H          1.32911       -1.77062        3.98855
H          3.29878       -1.93993        5.27163
H          1.33732       -0.09078        8.63488
H         -0.72259        0.09559        7.32228
H          4.06259       -0.10699        8.24410
H          3.51429       -1.71688        8.83605
H          5.23864       -1.21059        6.32877
H          5.81947       -1.83353        7.91191
H          4.68595       -2.83150        6.93602
H         -5.94759        3.49773        4.73655
H         -4.85574        4.26425        5.93771
H         -4.62618        4.50230        2.86372
H         -5.26289        5.75582        3.99585
H         -3.52901        5.29689        4.06373
