115
F-Cl.sdf
C         -2.11105        1.07508        1.62508
O         -2.94171        1.85570        2.04677
C         -0.77114        1.20482        2.03726
C         -0.27982        2.18547        2.89836
C          1.07183        2.15262        3.21231
C          1.88688        1.14524        2.66902
C          1.35263        0.17301        1.80290
C         -0.00387        0.21204        1.47711
C         -0.84441       -0.67423        0.60273
C         -0.41023       -1.77560       -0.09664
C         -1.25450       -2.64400       -0.87710
N         -1.89582       -3.36854       -1.51344
C          0.95385       -2.23745       -0.09532
N          2.03550       -2.64885       -0.12576
C         -2.24136       -0.10820        0.69959
C        -20.72606       -3.67969       -1.48491
O        -20.47088       -2.54200       -1.83351
C        -21.87172       -4.40872       -1.97787
C        -22.82941       -3.94915       -2.89087
C        -23.88886       -4.78677       -3.24445
C        -23.97503       -6.06762       -2.68940
C        -22.99867       -6.51665       -1.77949
C        -21.91902       -5.66839       -1.41061
C        -20.73251       -5.83579       -0.46803
C        -20.45294       -6.94537        0.28982
C        -19.31605       -7.08465        1.19559
N        -18.42151       -7.22498        1.92388
C        -21.32579       -8.08789        0.22312
N        -22.05129       -8.98631        0.14205
C        -19.95911       -4.53247       -0.54377
C         -8.37473        0.37436        0.06085
C         -8.81053        1.67717        0.16859
C        -10.23608        1.89452        0.11320
C        -11.07991        0.72234        0.04730
C        -10.47274       -0.54821       -0.01539
C         -9.13788       -0.72562       -0.04816
C        -11.36792       -1.70462        0.02086
C        -11.20079       -2.59635       -1.29387
C        -11.48332       -1.96892       -2.68380
C        -11.15085       -2.54360        1.35166
C        -11.38905       -1.84391        2.71521
C        -12.63324       -0.94719        0.07121
C        -12.55448        0.44902        0.08905
C        -13.78991        1.23887        0.11510
C        -15.09730        0.52134        0.05400
C        -14.93548       -0.85444        0.06679
C        -13.79553       -1.57812        0.09904
C         -3.34806       -0.60450        0.07839
C        -18.78227       -4.23394        0.07531
C        -16.09280       -1.52787       -0.02477
C        -17.13740       -0.75649       -0.25843
C        -16.70698        0.78594       -0.30183
S        -16.34362       -3.15655        0.18867
C        -17.96400       -3.00042       -0.00653
C        -18.27446       -1.63502       -0.19704
C         -7.54183        2.55627        0.49734
C         -6.45707        1.46064        0.37635
C         -7.02607        0.29073        0.14741
C         -5.07821        1.27501        0.40372
C         -4.69967       -0.06114        0.18320
S         -6.04316       -1.01692        0.00281
C        -16.48164        1.59725       -1.66248
C        -18.09708        1.45269        0.25644
C         -7.76371        3.02027        1.97941
C         -7.17800        3.76530       -0.45776
C         -6.69614        3.90926        2.62855
C         -6.87519        3.41328       -1.94372
C        -17.70521        1.71414       -2.60456
C        -18.39792        2.98279        0.46131
Cl         3.58579        1.09718        3.07037
Cl       -25.31715       -7.11269       -3.13197
H         -0.92992        2.95348        3.31477
H          1.47994        2.90293        3.87496
H          2.00221       -0.57907        1.41462
H        -22.76210       -2.95831       -3.31824
H        -24.64308       -4.44234       -3.94398
H        -23.14409       -7.50646       -1.40742
H        -10.65806        2.88191        0.20494
H         -8.69490       -1.71087       -0.08465
H        -10.15729       -2.97331       -1.34733
H        -11.87300       -3.47715       -1.23672
H        -10.81332       -1.12548       -2.93366
H        -11.30901       -2.73425       -3.47049
H        -12.53880       -1.66380       -2.81971
H        -11.83504       -3.41563        1.35577
H        -10.11023       -2.92318        1.38507
H        -12.45413       -1.58793        2.88353
H        -11.14179       -2.55338        3.53062
H        -10.75303       -0.95129        2.87528
H        -13.64848        2.30702        0.05726
H        -13.81296       -2.64888        0.08604
H         -3.30117       -1.46950       -0.55940
H        -18.28245       -4.97869        0.67745
H        -19.29253       -1.38789       -0.21350
H         -4.39669        2.06027        0.52642
H        -16.12640        2.63647       -1.45597
H        -15.65084        1.14401       -2.26632
H        -18.89191        1.24213       -0.48393
H        -18.44060        0.93375        1.20335
H         -8.69039        3.61629        2.04371
H         -7.86778        2.12623        2.63107
H         -8.02183        4.48397       -0.46203
H         -6.27644        4.31154       -0.08663
H         -6.73199        4.93302        2.23435
H         -6.91267        4.03039        3.70032
H         -5.68512        3.51191        2.56839
H         -7.61086        2.78090       -2.41113
H         -6.86322        4.30779       -2.58414
H         -5.90616        2.93046       -2.13232
H        -18.48330        2.30992       -2.16378
H        -17.50911        2.28611       -3.50929
H        -18.18447        0.76655       -2.90352
H        -17.82279        3.68129        1.07395
H        -18.47101        3.56497       -0.45105
H        -19.41609        3.08980        0.87878
