115
F-F.sdf
C         -2.14584        1.62528       -0.82094
O         -2.95250        2.51123       -0.96904
C         -0.83175        1.91591       -1.16191
C         -0.38262        3.15492       -1.61992
C          0.96284        3.27944       -1.92164
C          1.81259        2.17266       -1.76655
C          1.31718        0.93805       -1.30045
C         -0.03878        0.81415       -0.98451
C         -0.85592       -0.33890       -0.46514
C         -0.39505       -1.59906       -0.17656
C         -1.22509       -2.69152        0.27909
N         -1.85416       -3.59364        0.64305
C          0.98518       -1.98631       -0.33704
N          2.07631       -2.35932       -0.44526
C         -2.25996        0.20058       -0.35411
C        -20.68765       -3.68778       -1.62523
O        -20.45785       -2.53306       -1.93015
C        -21.81528       -4.41564       -2.14817
C        -22.74524       -3.95755       -3.08805
C        -23.79275       -4.79705       -3.47049
C        -23.89516       -6.07350       -2.91435
C        -22.95027       -6.51716       -1.97743
C        -21.88265       -5.67118       -1.57953
C        -20.73399       -5.84056       -0.60049
C        -20.50747       -6.94978        0.17968
C        -19.39703       -7.09460        1.11531
N        -18.49650       -7.16035        1.84611
C        -21.40582       -8.07726        0.08681
N        -22.15528       -8.95478       -0.02451
C        -19.94338       -4.54299       -0.66981
C         -8.37974        0.39390        0.06102
C         -8.83182        1.68748        0.20411
C        -10.25380        1.90699        0.17076
C        -11.09385        0.73984        0.09069
C        -10.48038       -0.52695        0.00640
C         -9.14142       -0.70318       -0.05214
C        -11.36807       -1.68739        0.05001
C        -11.21165       -2.58170       -1.25643
C        -11.51623       -1.94643       -2.63543
C        -11.10938       -2.51779        1.37796
C        -11.94534       -3.79534        1.63438
C        -12.64173       -0.93259        0.11935
C        -12.56906        0.46547        0.12696
C        -13.80867        1.25060        0.12703
C        -15.10215        0.52540        0.05179
C        -14.94449       -0.85048        0.10392
C        -13.80215       -1.57028        0.15366
C         -3.34938       -0.49169        0.06616
C        -18.79626       -4.23106       -0.00707
C        -16.10761       -1.52548        0.01194
C        -17.14674       -0.75520       -0.26197
C        -16.69918        0.77724       -0.30250
S        -16.36384       -3.15369        0.19981
C        -17.98094       -2.99171       -0.06833
C        -18.28536       -1.62274       -0.30068
C         -7.59076        2.57527        0.53197
C         -6.48754        1.49435        0.40412
C         -7.02319        0.31989        0.13184
C         -5.12579        1.33247        0.47273
C         -4.69970        0.02947        0.18890
S         -6.00906       -0.97269       -0.03770
C        -16.57561        1.50490       -1.70498
C        -17.97179        1.48608        0.43731
C         -7.79376        3.02552        2.01636
C         -7.25568        3.76420       -0.44192
C         -6.73866        3.92268        2.66664
C         -8.33696        4.84643       -0.61171
C        -15.54967        0.89143       -2.68463
C        -18.16869        3.00883        0.71776
F          3.12392        2.29700       -2.06661
F        -24.91749       -6.88723       -3.28064
H         -1.06134        4.00021       -1.73482
H          1.34111        4.22818       -2.27519
H          1.99946        0.12328       -1.19809
H        -22.66435       -2.96863       -3.51559
H        -24.52628       -4.46157       -4.19329
H        -23.11802       -7.50352       -1.61654
H        -10.67404        2.89319        0.29123
H         -8.69256       -1.68568       -0.10610
H        -10.16461       -2.94796       -1.32304
H        -11.86836       -3.47576       -1.19569
H        -10.84807       -1.09833       -2.87741
H        -11.34538       -2.70452       -3.43128
H        -12.57539       -1.63629       -2.74462
H        -10.05248       -2.85340        1.41186
H        -11.28610       -1.86015        2.25319
H        -11.70799       -4.60670        0.91340
H        -11.67964       -4.19848        2.63433
H        -13.03856       -3.61712        1.65953
H        -13.69097        2.32236        0.07742
H        -13.81627       -2.64074        0.14516
H         -3.30180       -1.53238        0.34098
H        -18.34202       -4.95212        0.65916
H        -19.28898       -1.33338       -0.43213
H         -4.54300        2.11889        0.69607
H        -17.55915        1.48685       -2.23309
H        -16.31480        2.58203       -1.59182
H        -18.84247        1.35083       -0.23648
H        -18.26141        0.94544        1.37445
H         -8.73356        3.61298        2.10078
H         -7.88438        2.12509        2.65151
H         -6.32528        4.26989       -0.08321
H         -7.03826        3.38088       -1.46562
H         -6.73632        4.93989        2.25100
H         -6.94859        4.00490        3.74311
H         -5.73976        3.55689        2.64605
H         -8.62751        5.31625        0.29376
H         -7.95582        5.71805       -1.16240
H         -9.24930        4.49554       -1.12271
H        -15.78793       -0.10887       -2.95898
H        -15.51383        1.36840       -3.66405
H        -14.53028        0.80210       -2.33727
H        -17.61427        3.54777        1.49381
H        -18.15235        3.63122       -0.16565
H        -19.20569        3.18793        1.04342
