127
F8-DPPTCN.sdf
C         -1.09020       -0.47920        0.35338
C         -0.18575       -1.28032       -0.36996
C          1.09071       -0.71662       -0.55754
C          1.20185        0.55339       -0.03431
S         -0.21211        0.87595        0.75076
C          2.32128        1.48389       -0.05949
C          3.62305        0.97199       -0.09870
C          4.70506        1.82535       -0.07308
C          4.45684        3.18642       -0.02760
C          3.19358        3.73537       -0.00912
C          2.09361        2.88702       -0.02281
C          3.24849        5.25413        0.02936
C          2.59141        5.88556       -1.26127
C          3.23882        5.54400       -2.62569
C          2.58859        5.82802        1.34833
C          3.22701        5.42483        2.70154
C          4.76287        5.43734        0.02998
C          5.40948        4.21734       -0.00241
C          6.78545        4.06782       -0.01747
C          7.55681        5.20632       -0.00465
C          6.94985        6.47557        0.02676
C          5.53252        6.59701        0.04729
C          7.79682        7.66741        0.01639
C          9.18344        7.72279       -0.00088
C          9.67878        9.03482       -0.03785
C          8.68988       10.03543       -0.06162
S          7.21548        9.23299       -0.00998
C         -2.52125       -0.77519        0.77546
N         -3.45085        0.03186        1.44180
C         -4.59132       -0.73754        1.62624
C         -4.42690       -2.00027        1.10392
C         -3.13430       -2.00549        0.58000
C         -3.34788        1.44130        1.92675
C         -4.43214        2.40227        1.40071
O         -5.60275       -0.34106        2.17452
C         -5.00874       -3.26332        0.88211
N         -4.05220       -4.04271        0.25030
C         -2.93812       -3.25314        0.07601
O         -1.91985       -3.63222       -0.44711
C         -4.15175       -5.44999       -0.20871
C         -2.82159       -6.20836       -0.19198
C         -6.41705       -3.66863        1.27492
C         -7.06950       -4.90292        1.09668
C         -8.38411       -4.96032        1.56319
C         -8.82157       -3.77240        2.11426
S         -7.55512       -2.65953        2.02449
C        -10.16928       -3.52249        2.65455
S        -10.53518       -2.42214        3.87367
C        -12.18721       -2.73802        3.89068
C        -12.48216       -3.70363        2.94164
C        -11.34774       -4.15245        2.25121
C        -13.11991       -2.09753        4.77573
N        -13.82356       -1.54621        5.51068
C          8.82468       11.53998       -0.12958
N          9.87059       12.33146        0.31377
C          9.53013       13.65064        0.02943
C          8.30855       13.72102       -0.57506
C          7.86912       12.40282       -0.67648
C         11.13240       11.90742        0.97522
C         11.29348       12.47806        2.38869
O         10.22644       14.61892        0.26536
C          7.35865       14.58142       -1.13007
N          6.32046       13.78427       -1.59228
C          6.64941       12.46826       -1.28682
O          5.94688       11.50100       -1.50971
C          5.04235       14.21293       -2.21907
C          3.91452       14.41864       -1.19520
C          7.45821       16.09499       -1.19191
C          8.11643       16.97246       -0.29689
C          8.00882       18.33436       -0.62985
C          7.28276       18.56358       -1.78617
S          6.77895       17.07834       -2.38518
C          6.98413       19.87803       -2.37420
S          7.47227       21.36181       -1.73763
C          6.75920       22.28824       -2.94316
C          6.12771       21.45814       -3.85537
C          6.25184       20.10251       -3.53677
C          6.81310       23.72059       -3.00688
N          6.87443       24.87567       -3.02829
H         -0.37846       -2.23827       -0.76262
H          1.89373       -1.20557       -1.07511
H          3.80484       -0.08827       -0.12097
H          5.70658        1.42239       -0.08749
H          1.09750        3.30933       -0.02116
H          1.52087        5.59270       -1.32603
H          2.64546        6.99201       -1.19564
H          3.26517        4.48816       -2.88803
H          2.68429        5.97875       -3.46316
H          4.24906        5.95154       -2.74182
H          2.65005        6.93588        1.32740
H          1.51425        5.54243        1.40190
H          4.24958        5.79706        2.82819
H          2.69097        5.85407        3.55464
H          3.21196        4.36106        2.93727
H          7.26367        3.09823       -0.04640
H          8.62545        5.07998       -0.02811
H          5.04672        7.56206        0.06766
H          9.82863        6.85190        0.00941
H         10.73866        9.19375       -0.07294
H         -3.47979        1.47435        3.02991
H         -2.38416        1.87882        1.66164
H         -5.38706        2.13735        1.83645
H         -4.31970        3.43754        1.75350
H         -4.51155        2.50322        0.31348
H         -4.76303       -6.03655        0.47208
H         -4.56964       -5.48801       -1.23580
H         -2.35083       -6.15434        0.81421
H         -2.96405       -7.27630       -0.45259
H         -2.14919       -5.80408       -0.96558
H         -6.68892       -5.78112        0.64055
H         -8.98937       -5.85821        1.49780
H        -13.48035       -4.07876        2.76075
H        -11.39582       -4.90252        1.47300
H         11.18188       10.81298        1.06294
H         12.00502       12.26907        0.39476
H         10.48261       12.11128        3.02590
H         12.21936       12.15003        2.91363
H         11.29434       13.58443        2.35522
H          5.18172       15.13979       -2.80075
H          4.66988       13.43836       -2.92535
H          4.16257       15.16640       -0.42041
H          2.98563       14.79234       -1.68163
H          3.67318       13.45405       -0.71050
H          8.64272       16.70040        0.60587
H          8.44434       19.12738       -0.03022
H          5.59623       21.81852       -4.72435
H          5.81973       19.31726       -4.14284
