131
F_DPP_2B2.sdf
C         -1.37520       -0.69031        0.62231
C         -0.45984       -1.45480       -0.09908
C          0.77361       -0.82041       -0.32068
C          0.84563        0.47841        0.18264
S         -0.63951        0.80998        0.91689
C          2.02470        1.39383        0.10937
C          3.32807        0.86659       -0.05689
C          4.45041        1.70874       -0.09117
C          4.26102        3.08644        0.01017
C          2.99805        3.63868        0.14041
C          1.86693        2.79637        0.20988
C          3.08003        5.16747        0.17169
C          2.47886        5.81199       -1.12275
C          1.02075        5.52441       -1.49586
C          2.59157        5.77958        1.52442
C          1.14782        5.53715        1.97529
C          4.59861        5.36374        0.09643
C          5.24982        4.15173       -0.00136
C          6.64034        4.07455       -0.08925
C          7.39023        5.26415       -0.07872
C          6.75919        6.52843        0.02134
C          5.33794        6.56613        0.10794
C          7.58818        7.78380        0.04316
C          7.12133        9.08363        0.22800
C          8.12594       10.06578        0.22132
C          9.42250        9.58695        0.01882
S          9.27276        7.90278       -0.14575
C         10.66223       10.44992       -0.04172
N         11.86943       10.16148       -0.65146
C         12.69490       11.25895       -0.49909
C         12.04666       12.24092        0.19424
C         10.77122       11.74273        0.48657
C         12.15498       13.53858        0.67528
N         10.96795       13.84710        1.30122
C         10.14093       12.74711        1.18759
C         12.25643        8.97239       -1.43021
C         13.47387        8.26803       -0.83370
O         13.81918       11.35206       -0.95837
O          9.01662       12.69111        1.65176
C         10.58292       15.08779        1.99905
C         11.50793       15.41081        3.17729
C         13.34283       14.42501        0.53870
S         14.95745       13.92451        0.52997
C         15.64721       15.46518        0.39032
C         14.60423       16.38642        0.31693
C         13.33371       15.81285        0.40842
C         17.10048       15.79222        0.37581
C         17.55130       17.07153       -0.01433
C         18.91507       17.37876       -0.01541
C         19.84852       16.42351        0.38632
C         19.41991       15.15490        0.78204
C         18.05618       14.83567        0.77045
C         -2.75366       -1.12453        1.02285
N         -3.48744       -0.67003        2.09919
C         -4.71928       -1.29639        2.05599
C         -4.77510       -2.15471        0.98955
C         -3.53850       -2.05024        0.34110
C         -5.55852       -3.08821        0.31918
N         -4.83415       -3.52105       -0.76949
C         -3.61018       -2.89205       -0.73945
C         -3.04245        0.27486        3.14232
C         -3.38519       -0.19379        4.56155
O         -5.61537       -1.12443        2.86134
O         -2.74264       -3.04194       -1.58382
C         -5.25709       -4.41294       -1.85759
C         -4.60347       -5.78300       -1.73133
C         -6.92170       -3.54577        0.73394
S         -7.96683       -2.73019        1.78120
C         -9.21767       -3.86976        1.77350
C         -8.81142       -4.92361        0.96056
C         -7.54796       -4.74774        0.39241
C        -10.51251       -3.76991        2.50409
C        -10.82712       -2.61625        3.24810
C        -12.04843       -2.51598        3.92464
C        -12.96947       -3.56372        3.87228
C        -12.67202       -4.71495        3.14380
C        -11.45565       -4.82028        2.46322
H         -0.65052       -2.46189       -0.43589
H          1.58081       -1.30489       -0.85251
H          3.48664       -0.20075       -0.13065
H          5.44259        1.29054       -0.19670
H          0.87665        3.21371        0.31202
H          2.62205        6.91339       -1.08216
H          3.06952        5.43469       -1.98914
H          0.29830        5.93342       -0.77659
H          0.80200        6.01589       -2.46794
H          0.84658        4.44075       -1.64088
H          3.23001        5.36478        2.33606
H          2.75743        6.87832        1.49664
H          0.94184        4.46109        2.12344
H          0.99755        6.02533        2.96082
H          0.40512        5.98285        1.29844
H          7.13833        3.11669       -0.16068
H          8.46787        5.19125       -0.14194
H          4.80612        7.50303        0.18204
H          6.08166        9.34023        0.36951
H          7.88042       11.10601        0.33753
H         11.43592        8.24576       -1.50368
H         12.49762        9.28783       -2.46882
H         13.25573        7.93111        0.20015
H         13.72933        7.38529       -1.45798
H         14.35951        8.93563       -0.82065
H         10.54716       15.93629        1.29046
H          9.55662       14.98334        2.41368
H         12.54123       15.63150        2.85315
H         11.12958       16.31412        3.70260
H         11.53890       14.56564        3.89484
H         14.73831       17.45481        0.22607
H         12.44475       16.41852        0.37290
H         16.86059       17.83870       -0.33287
H         19.24751       18.36136       -0.32632
H         20.90339       16.66804        0.39180
H         20.14689       14.41902        1.10093
H         17.75304       13.84768        1.09063
H         -1.94316        0.37280        3.11851
H         -3.50296        1.26925        2.97471
H         -2.99550       -1.21555        4.75163
H         -2.93910        0.50582        5.29975
H         -4.47990       -0.17754        4.73525
H         -6.35446       -4.51465       -1.89271
H         -4.99767       -3.94733       -2.83311
H         -4.89745       -6.25494       -0.77015
H         -4.94371       -6.43293       -2.56515
H         -3.49886       -5.69463       -1.76857
H         -9.39367       -5.81307        0.76977
H         -7.12538       -5.52117       -0.22441
H        -10.13567       -1.78640        3.30563
H        -12.28247       -1.62328        4.48975
H        -13.91394       -3.48442        4.39559
H        -13.38584       -5.52840        3.10421
H        -11.26803       -5.72923        1.91154
