127
FDNCTF.sdf
C          3.88344        0.75397        0.04930
O          3.55079        1.29423       -0.99454
C          3.81970        1.39179        1.37013
C          3.33023        2.63298        1.77291
C          3.07317        2.81916        3.15259
C          3.34531        1.76674        4.07973
C          3.98296        0.59589        3.63861
C          4.20905        0.45568        2.27306
C          4.68539       -0.71550        1.55346
C          5.80876       -1.41143        1.81042
C          6.16409       -2.62631        1.12198
N          6.52800       -3.60025        0.61484
C          6.81627       -0.80820        2.66154
N          7.59267       -0.28921        3.34762
C          4.00031       -0.73699        0.24369
C          2.73748       -1.21458        0.39500
C          2.15566       -2.18655       -0.53166
C          2.84454       -2.69963       -1.62696
C          2.02782       -3.53401       -2.34527
C          0.75061       -3.72374       -1.87106
S          0.55144       -2.82492       -0.45871
C         -0.00735       -4.49306       -2.89903
C          0.78791       -4.34471       -4.01051
C          2.21283       -4.38385       -3.52409
C          3.25893       -4.20415       -4.64213
C          3.20469       -2.89354       -5.43285
C          2.42399       -5.86440       -2.87192
C          3.74995       -6.30060       -2.26373
C          0.28136       -4.41406       -5.30715
C         -0.84086       -5.18993       -5.43212
C         -1.30673       -5.89383       -4.34409
C         -1.09189       -5.37698       -3.02038
C         -1.71557       -7.26950       -4.89463
C         -0.39444       -8.15325       -5.07076
C          0.70741       -7.66624       -6.02130
C         -2.72044       -7.99719       -3.96229
C         -3.19019       -9.39601       -4.40606
C         -2.07459       -6.88151       -6.32021
C         -1.49535       -5.65519       -6.62653
C         -1.63432       -5.02111       -7.87834
C         -2.37489       -5.70568       -8.86313
C         -2.86798       -6.96878       -8.55962
C         -2.73547       -7.58910       -7.31684
C         -3.68002       -7.40159       -9.62553
C         -3.66767       -6.54202      -10.69235
C         -2.89678       -5.25412      -10.24155
C         -1.79615       -4.70353      -11.25304
C         -0.59681       -5.60634      -11.63371
C         -3.99183       -4.15977      -10.00632
C         -3.51555       -2.79156       -9.53272
C         -4.91765       -6.59137      -11.33498
C         -5.87716       -7.34594      -10.63580
S         -5.13356       -8.20011       -9.40010
C         -7.07841       -6.51992      -10.26681
C         -7.95406       -6.59273       -9.22278
C         -8.20470       -7.57731       -8.16052
C         -7.70578       -7.17799       -6.92445
C         -7.06820       -5.86858       -6.81376
N         -6.57524       -4.82124       -6.80323
C         -7.82000       -7.77235       -5.61977
N         -7.82917       -8.11897       -4.51457
C         -9.68013       -7.86180       -8.40941
C        -10.20250       -9.05647       -8.99414
C        -10.82746       -8.90725      -10.28091
C        -11.12580       -7.60844      -10.77030
C        -11.01198       -6.49172       -9.97992
C        -10.15011       -6.62936       -8.93017
C         -9.07281       -5.69155       -9.06439
O         -9.14703       -4.58080       -9.56920
C        -11.32982       -7.38147      -12.13509
C        -11.29588       -8.43471      -13.02728
C        -11.18609       -9.73979      -12.54818
C        -10.97569       -9.99081      -11.17492
C          2.92860        1.88917        5.41435
C          2.28476        3.05228        5.84170
C          2.08283        4.11178        4.95253
C          2.47261        3.99804        3.61363
H          3.05093        3.37904        1.04123
H          4.19356       -0.22598        4.31507
H          1.99669       -0.60538        0.92011
H          3.87148       -2.48538       -1.90085
H          4.26271       -4.30871       -4.19582
H          3.11270       -5.04325       -5.37683
H          3.41257       -2.00987       -4.81796
H          3.98226       -2.91034       -6.21456
H          2.25032       -2.71753       -5.94930
H          1.65376       -6.14502       -2.10921
H          2.35573       -6.57903       -3.68506
H          4.29448       -5.61872       -1.59769
H          3.70984       -7.29196       -1.74362
H          4.32761       -6.46003       -3.15896
H          0.80872       -4.17752       -6.20911
H         -1.52596       -5.75237       -2.11521
H          0.08732       -8.35332       -4.11871
H         -0.64578       -9.14222       -5.48779
H          0.96182       -6.60412       -6.02282
H          1.60135       -8.31552       -6.06562
H          0.28488       -7.81952       -6.95873
H         -2.23476       -8.12039       -2.96460
H         -3.62029       -7.37201       -3.84368
H         -2.44051      -10.18696       -4.40233
H         -3.89931       -9.80153       -3.67295
H         -3.64983       -9.39359       -5.39885
H         -1.25067       -4.02221       -8.01974
H         -3.16466       -8.55596       -7.15582
H         -2.28020       -4.42064      -12.21263
H         -1.33024       -3.78031      -10.83680
H         -0.89180       -6.58607      -12.05842
H          0.04442       -5.14896      -12.39394
H          0.17254       -5.69120      -10.84538
H         -4.56826       -4.00785      -10.94475
H         -4.72747       -4.49981       -9.23633
H         -2.46103       -2.57550       -9.46717
H         -4.10017       -1.97875       -9.99829
H         -3.58246       -2.75603       -8.45790
H         -4.78290       -6.99398      -12.34229
H         -7.27951       -5.69265      -10.94242
H         -9.82604      -10.03557       -8.72441
H        -11.16643       -5.51778      -10.43351
H        -11.39055       -6.36676      -12.52295
H        -11.34360       -8.22510      -14.09004
H        -11.19652      -10.54697      -13.26601
H        -10.81902      -11.01267      -10.86203
H          3.06869        1.07442        6.11677
H          1.94078        3.13274        6.86549
H          1.59706        5.01490        5.29655
H          2.27623        4.81659        2.93343
