81
FEHIDT.sdf
C         -1.99673       -0.63230        1.30459
O         -2.40484        0.46049        1.65283
C         -0.68239       -1.15631        1.65761
C          0.34642       -0.53624        2.36664
C          1.53058       -1.25733        2.58399
C          1.66482       -2.57206        2.09222
C          0.61169       -3.17958        1.38578
C         -0.55924       -2.44688        1.18614
C         -1.80161       -2.83124        0.51534
O         -2.01761       -3.91273       -0.00988
C         -2.73884       -1.69109        0.57137
C         -3.99548       -1.71685        0.06769
C         -4.96915       -0.60062        0.03017
C         -6.33824       -0.74747       -0.17197
C         -7.04134        0.46845       -0.19135
C         -6.22136        1.58767       -0.03798
S         -4.64629        1.04094        0.13533
C         -6.61705        3.01653       -0.02941
C         -5.61850        4.02563       -0.01426
C         -5.96335        5.38263       -0.00890
C         -7.31112        5.71896       -0.00706
C         -8.30121        4.75458       -0.01388
C         -7.97674        3.39583       -0.03251
C         -9.67532        5.38655        0.01527
C        -10.51174        5.00838       -1.23760
C         -9.85689        5.38058       -2.57254
C        -10.45259        4.98756        1.30010
C         -9.73062        5.33851        2.60784
C         -9.30326        6.85473        0.02507
C         -7.93390        7.02409        0.01051
C         -7.35125        8.28847        0.01784
C         -8.19393        9.40941        0.04216
C         -9.60364        9.25877        0.06072
C        -10.15548        7.95651        0.05124
C        -10.48610       10.45145        0.08254
C        -11.87848       10.44800        0.10908
C        -12.44432       11.72275        0.11221
C        -11.50913       12.75412        0.07423
S         -9.97633       12.06039        0.08823
C        -11.73398       14.21826        0.08339
C        -12.83967       14.88965       -0.31032
C        -14.09624       14.42159       -0.94870
O        -14.35632       13.29819       -1.33963
C        -14.95234       15.57978       -1.17566
C        -16.22389       15.63200       -1.74601
C        -16.84851       16.88368       -1.86291
C        -16.19589       18.05022       -1.41480
C        -14.91107       17.97524       -0.84809
C        -14.30895       16.72107       -0.74131
C        -12.99564       16.35536       -0.21279
O        -12.17424       17.13567        0.24526
H          0.23435        0.47322        2.74075
H          2.34341       -0.79936        3.13209
H          2.58323       -3.11734        2.26471
H          0.70758       -4.19032        1.01109
H         -4.34294       -2.65501       -0.35736
H         -6.82287       -1.70807       -0.28941
H         -8.11258        0.51113       -0.32809
H         -4.56710        3.77165       -0.01321
H         -5.19561        6.14547       -0.00118
H         -8.77088        2.66320       -0.03551
H        -10.69733        3.91188       -1.23551
H        -11.49818        5.51914       -1.18755
H         -8.88085        4.86603       -2.69189
H        -10.52105        5.06957       -3.40636
H         -9.70377        6.47791       -2.64283
H        -11.43945        5.49962        1.30702
H        -10.63829        3.89122        1.28986
H         -9.57168        6.43448        2.68816
H        -10.35025        5.01485        3.47009
H         -8.74943        4.82317        2.67018
H         -6.27588        8.40831        0.00535
H         -7.73970       10.39131        0.04670
H        -11.22017        7.78242        0.06303
H        -12.49301        9.56072        0.13372
H        -13.50918       11.84551        0.17361
H        -10.89505       14.81158        0.43839
H        -16.71673       14.73158       -2.08936
H        -17.83582       16.95065       -2.30070
H        -16.68646       19.00963       -1.51065
H        -14.40364       18.86766       -0.50665
