51
FFI-1.sdf
C         -0.56539       -0.49337        0.09019
C         -0.87110       -1.94147       -0.07099
C          0.28274        0.28271       -0.69670
C          0.42157        1.59985       -0.24111
C         -0.29808        1.86968        0.91340
S         -1.09983        0.46759        1.37394
C         -2.18998       -2.47467       -0.02979
C         -2.44595       -3.87208       -0.06112
C         -1.37927       -4.81583       -0.19835
C         -0.06968       -4.26242       -0.27376
C          0.16867       -2.88679       -0.21000
C          1.18526       -4.85736       -0.44168
N          2.16907       -3.92057       -0.44613
C          1.55267       -2.72273       -0.29349
C          3.60831       -4.15563       -0.59875
C          4.02101       -3.96676       -2.05400
O          1.40947       -6.04275       -0.59247
O          2.16015       -1.66725       -0.23746
C         -5.17256       -0.15917       -0.00239
C         -6.16635       -1.15687        0.13068
C         -5.77095       -2.51395        0.18305
C         -4.39770       -2.78375        0.09959
C         -3.42960       -1.82384        0.00766
C         -3.80942       -0.48016       -0.06226
C         -6.63637       -3.61341        0.29175
C         -6.09985       -4.92062        0.31795
C         -4.70703       -5.14266        0.21514
C         -3.84648       -4.03787        0.08442
C         -7.58965       -0.62394        0.15491
N         -8.77040       -0.18183        0.17502
C         -1.59453       -6.28554       -0.31682
C         -2.52033       -6.91222       -1.14783
C         -2.47607       -8.31140       -1.09111
C         -1.51269       -8.80347       -0.22426
S         -0.72176       -7.49793        0.47066
H          0.78545       -0.08337       -1.58168
H          1.03731        2.33724       -0.73855
H         -0.32773        2.81834        1.43249
H          4.17754       -3.46837        0.06508
H          3.85895       -5.19604       -0.30015
H          3.47512       -4.69485       -2.69288
H          3.78986       -2.93745       -2.39848
H          5.11079       -4.15049       -2.16231
H         -5.45852        0.88455       -0.06727
H         -3.11097        0.32147       -0.19652
H         -7.70720       -3.47019        0.36123
H         -6.76757       -5.76669        0.41608
H         -4.35745       -6.15528        0.26015
H         -3.20359       -6.37759       -1.79459
H         -3.12482       -8.95014       -1.67494
H         -1.30189       -9.84747       -0.03560
