170
FNIC2.sdf
C          0.25729        0.08116       -0.28181
C          0.58537        0.70009        0.90712
C          0.38074        2.08150        1.55031
C          0.61530        1.92403        2.98895
C          1.13893        0.66682        3.20750
C          1.18026       -0.09868        1.97891
O          1.56778       -1.25380        1.88809
C          0.25684        3.28823        0.99076
C         -0.06257        4.53787        1.64963
N         -0.31372        5.55597        2.14129
C          0.65531        3.31009       -0.33376
N          1.02049        3.10259       -1.40236
C          0.52572        2.84404        4.04891
C          0.95416        2.45884        5.31550
C          1.47626        1.17503        5.52417
C          1.57115        0.26840        4.46214
C         -6.76244       -1.80983      -14.52020
C         -6.33768       -3.04146      -14.91453
C         -5.16906       -3.58035      -15.72161
C         -5.26774       -5.08420      -15.61519
C         -6.36263       -5.43277      -14.85026
C         -7.03773       -4.24976      -14.39968
C         -4.52971       -6.11823      -16.23603
C         -4.91350       -7.45703      -16.05295
C         -6.01187       -7.77751      -15.24429
C         -6.74080       -6.75951      -14.62430
O         -7.97895       -4.28301      -13.62623
C         -4.24740       -2.93444      -16.50157
C         -3.06211       -3.58513      -17.00044
C         -4.26299       -1.54839      -16.86301
N         -4.17655       -0.44861      -17.21049
N         -2.09048       -4.04334      -17.43194
C         -0.53776        0.53242       -1.47712
S         -1.47025        1.96247       -1.73422
C         -1.78752        1.71043       -3.35226
C         -1.34084        0.43231       -3.63765
C         -0.64018       -0.23827       -2.64317
C         -2.20077        2.43659       -4.50184
C         -2.11682        1.55283       -5.50900
S         -1.59261       -0.02528       -5.21951
C         -2.50627        3.90829       -5.07800
C         -2.52665        3.51819       -6.65124
C         -2.42849        2.17585       -6.67066
C         -3.01332        3.97314       -7.98679
C         -3.61971        2.86178       -8.61589
S         -2.98954        1.46676       -7.95688
C         -3.03517        5.15800       -8.79274
C         -3.71185        5.06653      -10.06590
C         -4.69011        4.13825      -10.43126
C         -4.58831        2.90221       -9.67951
S         -3.13176        5.62264      -11.55106
C         -4.33777        4.88288      -12.48616
C         -5.39338        4.57243      -11.69174
C         -4.35393        3.67322      -13.38745
C         -5.66086        3.21308      -13.44807
C         -6.53734        4.18581      -12.76022
S         -3.31799        2.38105      -13.85035
C         -4.63497        1.30528      -14.15560
C         -5.81172        1.94523      -13.97015
C         -4.79754       -0.07702      -14.38371
C         -6.15364       -0.45600      -14.48258
S         -7.10694        0.91381      -14.20679
F          0.88233        3.34623        6.33656
F          1.90310        0.81546        6.75479
F         -6.38680       -9.07182      -15.08854
F         -4.23067       -8.44595      -16.68224
C         -7.92835        3.84875      -12.09354
C         -6.75024        5.31505      -13.91792
C         -6.70437        4.96273      -15.30859
C         -6.72897        5.88008      -16.32646
C         -6.88929        7.22949      -16.08499
C         -7.02270        7.64598      -14.75306
C         -6.93353        6.71246      -13.68620
C         -8.14175        4.08594      -10.72073
C         -9.39356        3.88398      -10.11044
C        -10.48799        3.41893      -10.85531
C        -10.30115        3.16038      -12.19973
C         -9.06166        3.35729      -12.79416
C         -6.94329        8.17338      -17.25567
C         -7.56973        7.49222      -18.48110
C        -11.83677        3.12765      -10.25616
C        -12.45859        4.34701       -9.59550
C         -3.97850        4.47386       -4.84091
C         -1.36014        4.73057       -4.39711
C         -4.30483        5.67458       -4.13614
C         -5.59379        6.18582       -4.07450
C         -6.63683        5.57523       -4.75320
C         -6.38439        4.38630       -5.42868
C         -5.10399        3.83806       -5.44918
C         -0.05970        4.93944       -4.90988
C          0.93158        5.54713       -4.13575
C          0.72444        5.91832       -2.84428
C         -0.54465        5.80597       -2.33694
C         -1.55075        5.21819       -3.08682
C         -7.99959        6.20836       -4.76364
C         -8.44298        6.54480       -6.18942
C          1.89146        6.36381       -2.01171
C          1.84889        7.82383       -1.66725
C         -6.97918       -0.11530      -10.74010
S         -6.26796        1.26943      -11.24442
C         -5.30385        1.61180       -9.97637
C         -5.46968        0.51474       -9.13090
C         -6.38016       -0.43639       -9.55490
C         -2.22235        6.35389       -8.49428
C         -1.34082        6.50458       -7.45410
C         -0.69786        7.73795       -7.40287
C         -1.08799        8.58089       -8.42858
S         -2.22389        7.79062       -9.37293
C         -8.16636       -0.76722      -11.36914
C         -7.83562       -2.16732      -11.70352
C         -0.58005        9.96405       -8.66911
C          0.07683       10.06443      -10.04217
H          0.57137       -0.96817       -0.36981
H          0.16525        3.84999        3.95941
H          1.98603       -0.71620        4.60397
H         -7.71963       -1.78953      -14.01470
H         -3.69637       -5.94998      -16.88894
H         -7.60113       -7.00069      -14.01319
H         -0.17553       -1.20360       -2.81730
H         -3.98727       -0.77520      -14.37871
H         -6.62782        3.96969      -15.69932
H         -6.62116        5.47816      -17.31261
H         -7.17865        8.69442      -14.53530
H         -7.00408        7.12375      -12.69851
H         -7.33718        4.42814      -10.10573
H         -9.49486        4.08747       -9.05737
H        -11.11454        2.78874      -12.81487
H         -9.07867        3.09714      -13.81312
H         -7.53516        9.06941      -16.98004
H         -5.91388        8.49763      -17.51940
H         -8.59545        7.14219      -18.23551
H         -7.58002        8.18054      -19.32917
H         -6.97244        6.62866      -18.83666
H        -12.53440        2.76092      -11.04593
H        -11.71490        2.30934       -9.51956
H        -12.57842        5.16170      -10.34041
H        -13.45279        4.07155       -9.18687
H        -11.82380        4.69349       -8.75561
H         -3.63747        6.32580       -3.62404
H         -5.76118        7.09732       -3.51678
H         -7.16932        3.87659       -5.97128
H         -5.05091        2.93161       -6.01181
H          0.25210        4.64458       -5.88788
H          1.90395        5.76142       -4.47916
H         -0.74253        6.12908       -1.34194
H         -2.46976        5.13093       -2.57865
H         -8.72666        5.51940       -4.28965
H         -7.98104        7.15674       -4.18200
H         -8.52060        5.63018       -6.81316
H         -9.44432        7.02013       -6.16444
H         -7.72068        7.24516       -6.66398
H          1.84317        5.78974       -1.07555
H          2.87642        6.12079       -2.49308
H          0.91761        8.03997       -1.10816
H          2.72160        8.02521       -1.01408
H          1.91652        8.43505       -2.59259
H         -5.07161        0.40331       -8.16334
H         -6.65791       -1.26040       -8.94371
H         -1.17958        5.73737       -6.77883
H          0.02929        8.00216       -6.64826
H         -8.99488       -0.80534      -10.62920
H         -8.51209       -0.22140      -12.26738
H         -7.67039       -2.62499      -10.75827
H         -8.68235       -2.67188      -12.21744
H         -6.87302       -2.22587      -12.24025
H         -1.42392       10.68246       -8.60669
H          0.16497       10.22426       -7.88853
H         -0.65741        9.82810      -10.84312
H          0.45423       11.09577      -10.20051
H          0.93064        9.35724      -10.11094
