114
FNTz-Teh-FA.sdf
C         -4.28399        1.41214       -0.18771
C         -4.83919        0.03054        0.11533
C         -3.20825        1.95473        0.59324
C         -2.67550        3.24935        0.36674
C         -3.22168        4.01782       -0.65526
C         -4.24137        3.50786       -1.40978
C         -4.80828        2.24354       -1.24320
C         -4.62493        4.41130       -2.36534
C         -5.63671        4.11119       -3.26820
C         -6.23616        2.84514       -3.17224
C         -5.82951        1.91862       -2.18188
C         -2.95050        5.29917       -1.14635
C         -3.83594        5.53143       -2.21276
C         -2.00576        6.27274       -0.75900
C         -2.01228        7.47049       -1.50610
C         -2.89680        7.67899       -2.55601
C         -3.83722        6.72341       -2.94511
C         -1.23628        8.61772       -1.42192
N         -1.61279        9.52101       -2.38253
C         -2.63369        8.92991       -3.07122
O         -0.33975        8.80390       -0.61764
C         -1.02805       10.84212       -2.64465
C         -2.05594       11.95731       -2.45756
O         -3.21371        9.43894       -4.01486
S         -6.45715       -0.39711       -0.11130
C         -6.41255       -2.00717        0.35333
C         -5.09300       -2.24906        0.74222
C         -4.21599       -1.13434        0.64124
C         -2.76648       -1.29701        1.04978
C         -1.79848       -1.09051       -0.11264
C         -7.57885       -2.96658        0.31269
C         -8.90852       -2.49764        0.32213
C        -10.01897       -3.39777        0.26788
C         -9.82813       -4.79141        0.17950
C         -8.49301       -5.27473        0.15961
C         -7.38970       -4.36970        0.23952
C        -10.93055       -5.69745        0.10484
C        -10.74815       -7.10443       -0.00653
C         -9.41026       -7.56685       -0.03592
C         -8.30144       -6.66385        0.04889
N         -9.06783       -8.87628       -0.14080
S         -7.42101       -8.84642       -0.12765
N         -7.07173       -7.24379        0.00935
N         -9.23598       -1.18111        0.40613
S        -10.88380       -1.20431        0.40271
N        -11.24467       -2.80926        0.30120
C        -11.94332       -8.04639       -0.07763
C        -11.95355       -9.43934       -0.19899
C        -13.23043      -10.05862       -0.18735
C        -14.30832       -9.13760       -0.07633
S        -13.56663       -7.61568        0.00564
C        -13.29832      -11.57346       -0.25035
C        -12.51652      -12.23008        0.89227
C        -15.81902       -9.35512       -0.07586
C        -16.39630      -10.46319       -0.78971
C        -17.79697      -10.69131       -0.85500
C        -18.64467       -9.79402       -0.21366
C        -18.10832       -8.73116        0.45892
C        -16.74073       -8.45607        0.57482
C        -19.10095       -7.96771        1.01062
C        -18.80402       -6.83147        1.75033
C        -17.44921       -6.50862        1.92562
C        -16.42859       -7.30736        1.35560
C        -20.03930       -9.69862       -0.08536
C        -20.30472       -8.54966        0.67861
C        -21.09445      -10.50635       -0.56986
C        -22.40251      -10.07956       -0.24093
C        -22.63552       -8.93984        0.51759
C        -21.60269       -8.13812        1.00126
C        -23.65461      -10.60034       -0.54270
N        -24.64201       -9.82040        0.00460
C        -24.00203       -8.80834        0.65381
O        -23.86361      -11.60471       -1.19866
C        -26.09344      -10.00549       -0.08894
C        -26.62151      -10.77047        1.11991
O        -24.56746       -7.91195        1.25758
F         -6.12534       -4.85943        0.19836
F        -12.19046       -5.19513        0.13583
H         -2.77915        1.40321        1.40589
H         -1.86749        3.63153        0.97788
H         -5.94364        4.81843       -4.02756
H         -7.01508        2.57267       -3.87209
H         -6.32481        0.97076       -2.20674
H         -1.31257        6.11057        0.05633
H         -4.51960        6.89494       -3.76727
H         -0.17806       11.03093       -1.95484
H         -0.64195       10.86859       -3.68653
H         -2.43109       11.96051       -1.41286
H         -1.58138       12.93886       -2.67095
H         -2.91279       11.83262       -3.15131
H         -4.75186       -3.20567        1.11029
H         -2.52361       -0.62450        1.89248
H         -2.59681       -2.32657        1.43471
H         -1.87675       -0.07135       -0.53706
H         -0.75778       -1.23652        0.24839
H         -2.00228       -1.83086       -0.91442
H        -11.06892      -10.04158       -0.27922
H        -14.32047      -11.96424       -0.15888
H        -12.86488      -11.90874       -1.21788
H        -12.95261      -11.93999        1.87127
H        -12.56908      -13.33494        0.79095
H        -11.44394      -11.94637        0.87738
H        -15.78431      -11.14929       -1.34697
H        -18.19665      -11.53337       -1.40663
H        -19.58528       -6.22208        2.18512
H        -17.18475       -5.63741        2.50951
H        -15.42788       -6.99356        1.56435
H        -20.91543      -11.39618       -1.15992
H        -21.79697       -7.24997        1.58759
H        -26.59131       -9.01200       -0.14723
H        -26.35140      -10.56230       -1.01424
H        -26.38055      -10.23119        2.05991
H        -27.72503      -10.87723        1.04182
H        -26.16801      -11.78361        1.15169
