109
FRdCN2.sdf
C         -1.46056        0.51560        0.56793
C         -2.69171        0.37486        0.02170
C         -3.55903       -0.72592       -0.04782
N         -4.78660       -0.51096       -0.67048
C         -4.90652        0.80088       -1.08662
S         -3.47609        1.63602       -0.73029
C         -5.95770        1.44727       -1.66602
C         -5.77433       -1.61434       -0.78084
C         -6.06264       -2.04166       -2.22453
O         -3.26858       -1.81001        0.41565
C         -5.84348        2.85368       -1.99192
C         -7.28039        0.91713       -1.91528
N         -5.75852        3.98001       -2.24168
N         -8.34551        0.53161       -2.15931
C         -0.22766       -6.61273        3.30996
C         -1.28986       -6.00653        2.59382
C         -1.24238       -4.62132        2.23266
C         -0.13792       -3.81883        2.56340
C          0.90913       -4.42363        3.28015
C          0.86179       -5.77813        3.65069
N         -2.42727       -6.65373        2.22714
S         -3.29850       -5.48025        1.46246
N         -2.32610       -4.15418        1.56247
C         -0.66377       -0.51289        1.28522
O         -1.01830       -1.75962        1.49589
C         -0.07166       -2.38088        2.16642
C          0.96220       -1.49032        2.41204
C          0.58111       -0.29317        1.84460
C         -0.21647       -8.07296        3.70474
C          0.50294       -8.51277        4.85191
C          0.49413       -9.87100        5.20349
C         -0.18696      -10.78538        4.43333
C         -0.89011      -10.40817        3.29760
C         -0.90929       -9.05367        2.93968
C          1.15191      -10.55073        6.39435
C          0.73495      -11.99606        6.16090
C         -0.02778      -12.09712        5.01465
C          1.02315      -13.13786        6.92019
C          0.53575      -14.40526        6.49233
C         -0.24392      -14.46111        5.30506
C         -0.52845      -13.31064        4.56826
C          2.70240      -10.38281        6.36576
C          0.58847       -9.98487        7.73481
C          3.41115      -10.97734        5.13815
C         -0.92396      -10.16549        7.94582
C          2.30527      -22.68032       10.09509
C          2.21656      -23.44024        8.97999
C          1.94682      -23.09202        7.65197
N          1.87275      -24.13989        6.74355
C          2.11387      -25.35396        7.35621
S          2.41912      -25.09915        9.00346
C          2.11054      -26.61113        6.81427
C          1.58772      -23.86176        5.31480
C          0.21166      -23.22145        5.12455
O          1.79014      -21.94149        7.29927
C          2.38816      -27.76286        7.64149
C          1.78272      -26.94708        5.45587
N          2.58502      -28.68454        8.31240
N          1.49388      -27.22135        4.36841
C          0.82789      -15.64884        7.28393
C          0.90357      -16.93580        6.69951
C          1.18331      -18.08699        7.49631
C          1.38486      -17.97713        8.88199
C          1.30329      -16.69700        9.45570
C          1.03964      -15.56318        8.67719
N          0.76238      -17.18018        5.36979
S          0.96678      -18.81223        5.26224
N          1.24787      -19.26340        6.82175
C          2.09946      -21.21444       10.21392
O          1.80762      -20.38738        9.23765
C          1.69198      -19.16847        9.71636
C          1.91561      -19.19597       11.08289
C          2.17468      -20.51033       11.39945
H         -0.99407        1.49710        0.49106
H         -5.38888       -2.53667       -0.28526
H         -6.70738       -1.34277       -0.25029
H         -5.14524       -2.39982       -2.73615
H         -6.80501       -2.87072       -2.21496
H         -6.48774       -1.22943       -2.82774
H          1.78356       -3.85318        3.55825
H          1.71401       -6.17110        4.18556
H          1.88935       -1.67611        2.93558
H          1.15035        0.62863        1.84324
H          1.03949       -7.82140        5.48500
H         -1.41390      -11.14377        2.70048
H         -1.44899       -8.80121        2.04228
H          1.63293      -13.03165        7.80660
H         -0.67329      -15.37929        4.94035
H         -1.13099      -13.37094        3.67203
H          2.95176       -9.30048        6.41736
H          3.14024      -10.87376        7.26188
H          1.09926      -10.47457        8.59194
H          0.81315       -8.89704        7.78498
H          3.05713      -10.51059        4.19598
H          4.50526      -10.79653        5.22421
H          3.25817      -12.07605        5.08421
H         -1.18948      -11.24203        8.00750
H         -1.21963       -9.69061        8.90718
H         -1.51132       -9.68936        7.13356
H          2.52822      -23.19457       11.02636
H          2.37839      -23.19920        4.90125
H          1.59409      -24.74550        4.68125
H          0.14268      -22.22950        5.61131
H          0.02152      -23.07077        4.04152
H         -0.57282      -23.88468        5.54466
H          1.44488      -16.55577       10.51734
H          0.98019      -14.61546        9.19277
H          1.89837      -18.36863       11.77818
H          2.39262      -20.90446       12.38301
