97
H2.sdf
C         -5.61638       -2.84984        0.51148
O         -6.70295       -2.39260        0.23942
C         -5.42673       -4.23354        0.78238
C         -6.38137       -5.13410        1.24536
C         -5.99442       -6.45760        1.45089
C         -4.67797       -6.85616        1.16470
Cl        -4.21627       -8.52939        1.41320
C         -3.73424       -5.92204        0.68903
C         -4.12747       -4.58050        0.50748
C         -3.38145       -3.34840        0.07125
C         -2.14382       -3.32687       -0.49751
C         -1.44843       -2.12908       -0.88746
N         -0.84978       -1.19710       -1.22121
C         -1.47859       -4.54789       -0.89462
N         -0.91257       -5.49844       -1.22971
C         -4.33333       -2.19323        0.31792
C         -4.13432       -0.84520        0.35850
C         -5.16777        0.21990        0.72037
S         -6.85435        0.03436        1.18520
C         -7.30705        1.63770        1.17487
C         -6.11194        2.29812        0.92083
C         -4.93671        1.61327        0.63376
C         -3.67069        2.35486        0.13428
C         -3.79566        3.14407       -1.20300
S         -6.31950        3.89505        0.77601
C         -7.91590        3.73105        0.85850
C         -8.43273        2.55366        1.15448
N         -9.82179        2.67623        1.09996
C        -10.74233        1.54084        0.89991
C        -10.06603        4.00546        0.69967
C         -8.82879        4.52044        0.38516
C         -8.57572        5.58193       -0.45846
N         -7.33837        5.96725       -0.86197
S         -7.68194        7.14438       -1.95428
N         -9.33717        7.19963       -1.94967
C         -9.65553        6.23218       -1.05733
C        -10.92248        5.94825       -0.56716
C        -11.16242        4.95045        0.41704
N        -12.40899        5.25509        0.96154
C        -13.33247        4.71569        2.00108
C        -14.71117        4.35081        1.51312
C        -12.72228        6.45929        0.38723
C        -12.06621        6.68771       -0.73757
S        -12.41886        8.17536       -1.48550
C        -12.91386        8.79487        0.01410
C        -12.83486        7.78555        0.93859
S        -11.91382        8.50842        2.18124
C        -11.71962       10.11901        1.52676
C        -12.62022       10.12756        0.39552
C        -13.03545       11.30124       -0.50589
C        -14.30408       11.93649        0.10407
C        -10.27153       10.70865        1.29243
C         -9.87324       12.04006        1.31531
C         -8.69682       12.80994        0.74263
C         -7.39652       12.42040        0.91743
C         -7.03904       11.43866        1.95780
N         -6.70520       10.66772        2.77007
C         -6.26324       13.02083        0.27571
N         -5.30638       13.45960       -0.20224
C         -9.35715       14.13296        0.16289
C         -9.13084       15.30272       -0.70953
C        -10.16944       16.30799       -0.86671
Cl       -10.07640       17.76495       -1.87109
C        -11.37117       16.19987       -0.18369
C        -11.55423       15.16509        0.69624
C        -10.57426       14.18426        0.85968
C        -10.71006       13.05289        1.75352
O        -11.29427       13.00803        2.82025
C        -10.56577        0.82040       -0.38672
H         -7.39335       -4.81371        1.46517
H         -6.71389       -7.17137        1.83152
H         -2.73251       -6.26428        0.50231
H         -3.13500       -0.49342        0.16853
H         -3.28518        3.05378        0.89791
H         -2.86586        1.62909       -0.03927
H         -4.52935        3.97592       -1.18832
H         -2.81658        3.55188       -1.48930
H         -3.98724        2.51044       -2.07290
H        -10.59170        0.80643        1.71337
H        -11.75338        1.86211        0.79044
H        -12.91065        3.82530        2.52428
H        -13.63760        5.48628        2.66574
H        -14.46271        3.35025        1.24098
H        -15.49508        4.01339        2.21847
H        -15.15164        5.13824        0.84856
H        -12.29362       12.12197       -0.51830
H        -13.34282       10.98949       -1.52419
H        -14.05234       12.32582        1.11186
H        -14.75766       12.76068       -0.49520
H        -15.10519       11.17898        0.19020
H         -9.58184        9.98129        0.84596
H         -8.23942       15.50956       -1.29125
H        -12.17618       16.93013       -0.31057
H        -12.49455       15.13724        1.21286
H        -10.64101        1.52248       -1.24124
H         -9.62669        0.43064       -0.13372
H        -11.15173       -0.11467       -0.52220
