106
HF-PCIC.sdf
C          4.43210        7.36654       -0.46979
O          3.86393        7.88550       -1.41024
C          5.78443        7.65635       -0.10434
C          6.72650        8.36844       -0.82825
C          8.04328        8.36529       -0.34913
C          8.37163        7.67900        0.84070
C          7.38572        7.00257        1.56779
C          6.09527        6.99528        1.06561
C          4.92626        6.25517        1.52664
C          4.62823        5.87402        2.79822
C          3.39654        5.22001        3.15629
N          2.42364        4.69695        3.49967
C          5.47629        6.25277        3.90735
N          6.17680        6.57008        4.77360
C          4.11980        6.14788        0.29586
C          3.56135        5.02022       -0.16497
C        -13.70382       10.22298        2.01966
O        -13.70535       10.30135        0.81026
C        -13.52222       11.38707        2.83909
C        -13.36987       12.69705        2.41878
C        -12.73988       13.58021        3.29282
C        -12.21176       13.09464        4.50839
C        -12.53215       11.78790        4.95490
C        -13.30979       10.96974        4.11655
C        -13.87708        9.59436        4.19163
C        -14.90763        9.09872        4.94934
C        -15.39336        7.73388        4.68363
N        -15.69529        6.64766        4.39654
C        -15.60214        9.94095        5.92041
N        -16.14114       10.62535        6.68749
C        -13.57643        9.02201        2.90175
C        -13.26685        7.72106        2.68496
C        -12.83358        7.17325        1.40288
S        -11.97771        8.03846        0.22719
C        -11.55654        6.62902       -0.55890
C        -12.11108        5.52257       -0.01972
C        -12.81610        5.82058        1.10519
C        -10.44859        6.21279       -1.33964
C        -10.38110        4.85637       -1.31058
C        -11.58187        4.23347       -0.60824
S         -9.02554        6.91645       -1.86388
C         -8.25311        5.40460       -2.07851
C         -9.14940        4.36948       -1.75052
C         -6.80315        5.20464       -2.37196
C         -6.30492        3.90372       -2.55926
C         -4.96543        3.68521       -2.88971
C         -4.07115        4.77102       -3.01286
C         -4.55939        6.06645       -2.79924
C         -5.90361        6.28782       -2.49510
C         -2.63457        4.57472       -3.32768
S         -1.50452        5.84529       -3.48565
C         -0.21612        4.79085       -3.55673
C         -0.60298        3.48054       -3.51812
C         -1.97681        3.33509       -3.38161
C          1.15183        4.87161       -3.17338
C          1.55395        3.61083       -2.91922
C          0.58505        2.54190       -3.38116
S          2.00613        6.01933       -2.30807
C          2.86723        4.83293       -1.45932
C          2.51527        3.58218       -1.95135
C          1.03423        2.02093       -4.79761
C          0.16276        0.92320       -5.43660
C          0.39614        1.40796       -2.30419
C         -0.15103        1.78419       -0.89971
C        -12.60950        3.69355       -1.66749
C        -13.20832        4.72514       -2.64890
C        -11.13042        3.18080        0.47782
C        -10.23342        3.67245        1.64488
F         -6.29937        7.57026       -2.31504
F         -4.56262        2.40168       -3.05668
F        -11.39057       13.89015        5.23743
F        -12.54261       14.86590        2.91518
F          9.01344        8.98342       -1.05987
F          9.65474        7.62782        1.26701
H          6.46481        8.84552       -1.76691
H          7.64391        6.43427        2.44757
H          3.73180        4.13373        0.43683
H        -13.66873       13.00505        1.42299
H        -12.11918       11.41467        5.88276
H        -13.24933        7.01579        3.52428
H        -13.16455        5.06548        1.71763
H         -8.86852        3.33576       -1.70943
H         -6.95483        3.04244       -2.47467
H         -3.90015        6.92086       -2.87791
H         -2.46019        2.39207       -3.23543
H          2.77871        2.69134       -1.54311
H          1.04535        2.86572       -5.51740
H          2.06933        1.61513       -4.73908
H         -0.90153        1.21756       -5.48773
H          0.52240        0.69213       -6.45847
H          0.27783       -0.04396       -4.92242
H         -0.28436        0.63260       -2.70942
H          1.38542        0.93673       -2.12700
H         -1.16847        2.16517       -0.85139
H         -0.23149        0.86617       -0.28891
H          0.48761        2.49287       -0.35394
H        -12.10322        2.93973       -2.30393
H        -13.45767        3.19558       -1.15197
H        -12.43249        5.29740       -3.20265
H        -13.90505        4.23666       -3.35101
H        -13.90313        5.40797       -2.16335
H        -12.02915        2.72475        0.94364
H        -10.55473        2.37564       -0.02579
H        -10.69112        4.36248        2.35017
H        -10.02709        2.84669        2.34232
H         -9.28055        4.11642        1.31483
