103
HF-TCIC.sdf
C         14.91267       -3.32642        2.54919
C         14.30487       -3.61186        3.78536
C         13.17126       -2.88425        4.20023
C         12.69836       -1.81087        3.43109
C         13.32685       -1.52709        2.23169
C         14.35431       -2.30059        1.75702
C         13.09731       -0.40177        1.31266
C         13.52053       -0.85872        0.00660
C         14.68476       -1.74104        0.43973
C         12.30427       -1.26007       -0.55205
C         11.22931       -0.23974       -0.96388
C          9.88396       -0.32308       -1.55239
C          9.21694        0.97226       -1.71491
C         10.11053        1.86575       -1.24567
S         11.57259        1.35764       -0.69901
C          7.85767        1.82415       -2.09479
C          8.47940        3.25411       -1.91114
C          9.69964        3.13882       -1.36724
C          8.31133        4.61190       -2.27530
C          9.44435        5.37351       -1.89442
S         10.62471        4.46752       -1.16640
C          9.70475        6.77074       -2.13310
C          6.85140        1.41721       -0.94163
C          7.00002        1.88313       -3.48060
C          7.67284        2.39301       -4.81241
C          6.49636       -0.07763       -0.80349
O         13.29093        0.74780        1.67543
F         14.80329       -4.59447        4.57854
F         12.54714       -3.19965        5.35986
C         15.94657       -1.69884       -0.06558
C         17.07475       -2.28723        0.63907
C         16.28350       -0.92374       -1.23711
N         16.63203       -0.32398       -2.16378
N         18.01762       -2.72882        1.14873
C         11.46614       10.11994       -2.95922
S         10.91572       11.71616       -3.23946
C         12.45358       12.20320       -3.67345
C         13.35908       11.17713       -3.59460
C         12.81075        9.98425       -3.22308
C         12.95860       13.15402       -4.62286
C         14.09748       12.59652       -5.11061
C         14.66284       11.51313       -4.22641
S         12.28706       14.28276       -5.68008
C         13.48394       13.97849       -6.85559
C         14.35013       12.97951       -6.40330
C         13.59088       14.52042       -8.22232
C         13.15591       15.72061       -8.67434
C         14.11918       16.92077       -8.64301
C         14.35450       17.37398      -10.04860
C         13.60758       16.61674      -10.90857
C         12.89093       15.61199      -10.15006
C         15.12352       18.43785      -10.57167
C         15.14571       18.68926      -11.93272
C         14.40108       17.89558      -12.80079
C         13.61562       16.84766      -12.29334
F         14.44686       18.15174      -14.12896
F         15.90054       19.71479      -12.39975
O         12.21808       14.73453      -10.67771
C         14.61888       17.62517       -7.56955
C         15.56839       18.69914       -7.70363
C         14.24082       17.51154       -6.19146
C         15.59219       12.21938       -3.16214
C         15.37720       10.34119       -4.97579
C         14.55225        9.51670       -5.97219
C         16.29486       11.32101       -2.13194
N         16.33181       19.56549       -7.79505
N         14.03094       17.53093       -5.05387
C          8.74481        7.75131       -2.24916
C         10.65044        8.97220       -2.64489
S         11.24356        7.42105       -2.37195
F          7.41248        7.55653       -2.12103
C          9.27322        8.98407       -2.53381
F          8.48336       10.06723       -2.71696
H         15.77512       -3.90700        2.24182
H         11.85133       -1.22043        3.74202
H         11.95769       -2.27514       -0.34553
H          9.43621       -1.27333       -1.79726
H          7.50503        5.05449       -2.84236
H          7.29319        1.68023        0.04023
H          5.89339        1.96474       -1.05524
H          6.62489        0.86535       -3.71181
H          6.06041        2.50734       -3.36892
H          8.70186        2.05607       -4.96424
H          7.11475        2.06541       -5.72052
H          7.70988        3.48505       -4.96466
H          7.35632       -0.63521       -0.39485
H          5.70768       -0.22555       -0.03998
H          6.12949       -0.52308       -1.74130
H         13.32475        9.04055       -3.24604
H         15.10082       12.51277       -7.00264
H         14.58541       14.26811       -8.57518
H         15.72033       19.11647      -10.01952
H         13.03453       16.24054      -12.96891
H         16.40725       12.78690       -3.65998
H         14.98612       12.94396       -2.57995
H         16.24697       10.75963       -5.52678
H         15.72815        9.58576       -4.24095
H         14.00826       10.08606       -6.68910
H         15.20206        8.88657       -6.59407
H         13.84655        8.83647       -5.48940
H         17.12411       10.74639       -2.56444
H         16.71160       11.91682       -1.30963
H         15.65190       10.63302       -1.62498
