104
IBR.sdf
C         -3.40925       -0.57611       -1.90283
C         -3.99357        0.53366       -1.25058
C         -3.94993        1.82323       -1.79393
C         -3.31641        2.08543       -3.02060
C         -2.69254        1.00638       -3.66665
C         -2.74528       -0.31648       -3.12506
N         -2.00819        1.13744       -4.83400
S         -1.48705       -0.39920       -5.12485
N         -2.08105       -1.25658       -3.84688
C         -3.21126        3.45229       -3.61763
C         -2.90172      -10.10119        4.94978
C         -3.21684      -11.31465        4.29579
C         -2.97164      -12.56236        4.88620
C         -2.37204      -12.67507        6.14964
C         -2.09169      -11.48609        6.84528
C         -2.34403      -10.20927        6.25031
N         -1.60681      -11.45309        8.11362
S         -1.44108       -9.84216        8.40731
N         -1.98572       -9.14676        7.01744
C         -2.11613      -14.04925        6.67560
C         -3.47296       -1.94438       -1.27207
C         -1.07968      -14.50175        7.42407
C          0.15698      -13.80411        7.84772
N          0.95393      -14.52700        8.66929
C          0.43790      -15.83970        8.87530
S         -1.07472      -16.21080        7.98565
S          1.16368      -16.88743        9.54446
C          2.20627      -14.00954        9.22750
C          2.14978      -13.92878       10.75545
O          0.48390      -12.69827        7.44784
C         -4.04067        4.51804       -3.51062
C         -5.36948        4.63360       -2.86473
N         -5.89557        5.88084       -2.89464
C         -5.03328        6.79697       -3.56353
S         -3.56455        6.07176       -4.28702
S         -5.25078        8.21913       -3.60804
C         -7.18608        6.22220       -2.29490
C         -8.21088        6.62959       -3.35396
O         -5.98497        3.69070       -2.39528
C         -3.58975       -2.06826        0.13683
C         -3.59746       -3.33360        0.72111
C         -3.51844       -4.47315       -0.05976
C         -3.42799       -4.40628       -1.44135
C         -3.40076       -3.13970       -2.04559
C         -3.65386       -3.68813        2.19586
C         -3.57166       -5.18984        2.07400
C         -3.50672       -5.61444        0.83262
C         -4.96974       -3.21561        2.86909
C         -2.44231       -3.10809        2.97945
C         -6.24586       -3.75788        2.22077
C         -1.07085       -3.56973        2.47690
C         -3.48460       -6.31092        2.97464
C         -3.35640       -7.45828        2.21664
C         -3.38272       -7.11879        0.72973
C         -4.59070       -7.76923        0.00130
C         -2.07145       -7.53914        0.00927
C         -5.95761       -7.39928        0.58353
C         -0.79707       -6.90764        0.57543
C         -3.47706       -6.33512        4.35526
C         -3.30985       -7.56561        4.99634
C         -3.15052       -8.77724        4.26128
C         -3.19991       -8.70178        2.83876
H         -4.50842        0.42262       -0.30748
H         -4.38478        2.61287       -1.20671
H         -2.33491        3.61167       -4.24026
H         -3.67189      -11.32308        3.31627
H         -3.23348      -13.45590        4.33135
H         -2.85415      -14.79401        6.38954
H          3.05898      -14.64454        8.90632
H          2.40399      -12.97756        8.86338
H          2.04640      -14.92962       11.21743
H          3.08841      -13.47654       11.13886
H          1.29373      -13.29714       11.07471
H         -7.61392        5.35184       -1.75178
H         -7.04922        7.03749       -1.55289
H         -8.36226        5.79801       -4.07421
H         -9.18002        6.85435       -2.86056
H         -7.89352        7.53304       -3.91012
H         -3.62842       -1.21064        0.79138
H         -3.36601       -5.30584       -2.03861
H         -3.33757       -3.11999       -3.12040
H         -4.97330       -3.53266        3.93493
H         -5.01063       -2.10484        2.84364
H         -2.47850       -1.99799        2.93450
H         -2.51849       -3.40396        4.04825
H         -6.27682       -4.86308        2.29869
H         -7.13124       -3.35407        2.75508
H         -6.30965       -3.45555        1.15468
H         -0.92035       -3.28813        1.41440
H         -0.27532       -3.09251        3.08673
H         -0.96779       -4.66864        2.58956
H         -4.58590       -7.46144       -1.06748
H         -4.48398       -8.87474        0.04046
H         -1.96774       -8.64414        0.05550
H         -2.13622       -7.25018       -1.06291
H         -6.13352       -6.30949        0.48898
H         -6.75470       -7.92410        0.01633
H         -6.03060       -7.69899        1.65021
H         -0.66102       -7.17829        1.64214
H          0.07952       -7.27291        0.00008
H         -0.83334       -5.80380        0.47022
H         -3.58185       -5.42497        4.93051
H         -3.31860       -7.53160        6.06991
H         -3.07359       -9.56942        2.20913
