PBDB-DTN.sdf
  xtb     12202110533D
 energy: -438.279770892627 gnorm: 0.000238143252 xtb: 6.4.1 (unknown)
263292  0     0  0            999 V2000
   -0.3178   -4.4959    0.1561 C   0  0  0  0  0  0  0  0  0  0  0  0
   -0.3804   -3.1357   -0.1195 C   0  0  0  0  0  0  0  0  0  0  0  0
   -1.1823   -2.8792   -1.2277 C   0  0  0  0  0  0  0  0  0  0  0  0
   -1.7398   -3.9997   -1.8251 C   0  0  0  0  0  0  0  0  0  0  0  0
   -1.2569   -5.4361   -0.9722 S   0  0  0  0  0  0  0  0  0  0  0  0
   -2.5893   -3.9394   -2.9537 C   0  0  0  0  0  0  0  0  0  0  0  0
   -2.9720   -2.3511   -3.5595 S   0  0  0  0  0  0  0  0  0  0  0  0
   -4.0000   -2.9785   -4.8199 C   0  0  0  0  0  0  0  0  0  0  0  0
   -4.0371   -4.3638   -4.7755 C   0  0  0  0  0  0  0  0  0  0  0  0
   -3.2274   -4.9077   -3.7259 C   0  0  0  0  0  0  0  0  0  0  0  0
   -4.7646   -5.2220   -5.7057 C   0  0  0  0  0  0  0  0  0  0  0  0
   -4.5543   -6.6761   -5.5205 C   0  0  0  0  0  0  0  0  0  0  0  0
   -3.7562   -7.1978   -4.4972 C   0  0  0  0  0  0  0  0  0  0  0  0
   -3.0562   -6.3293   -3.5308 C   0  0  0  0  0  0  0  0  0  0  0  0
   -4.6157   -1.9840   -5.6361 C   0  0  0  0  0  0  0  0  0  0  0  0
   -5.7724   -1.9587   -6.3799 C   0  0  0  0  0  0  0  0  0  0  0  0
   -6.1073   -0.6890   -6.8833 C   0  0  0  0  0  0  0  0  0  0  0  0
   -3.8844   -0.4003   -5.6055 S   0  0  0  0  0  0  0  0  0  0  0  0
   -5.5021   -4.8049   -6.5858 O   0  0  0  0  0  0  0  0  0  0  0  0
   -2.3594   -6.8134   -2.6418 O   0  0  0  0  0  0  0  0  0  0  0  0
    0.4172   -5.2031    1.1510 C   0  0  0  0  0  0  0  0  0  0  0  0
   -5.1850    0.2774   -6.5365 C   0  0  0  0  0  0  0  0  0  0  0  0
    0.3803   -2.0413    0.5568 C   0  0  0  0  0  0  0  0  0  0  0  0
    1.7515   -1.8812   -0.1026 C   0  0  0  0  0  0  0  0  0  0  0  0
   -5.1895   -7.5504   -6.4004 C   0  0  0  0  0  0  0  0  0  0  0  0
   -5.0364   -8.9170   -6.2726 C   0  0  0  0  0  0  0  0  0  0  0  0
   -4.2444   -9.4335   -5.2561 C   0  0  0  0  0  0  0  0  0  0  0  0
   -3.6111   -8.5785   -4.3761 C   0  0  0  0  0  0  0  0  0  0  0  0
   -7.3462   -0.4396   -7.6844 C   0  0  0  0  0  0  0  0  0  0  0  0
   -8.5802   -0.3678   -6.7822 C   0  0  0  0  0  0  0  0  0  0  0  0
    1.2862   -4.4382    2.4590 S   0  0  0  0  0  0  0  0  0  0  0  0
    1.9166   -5.9635    3.0148 C   0  0  0  0  0  0  0  0  0  0  0  0
    1.4055   -7.0276    2.2299 C   0  0  0  0  0  0  0  0  0  0  0  0
    0.5736   -6.5598    1.1868 C   0  0  0  0  0  0  0  0  0  0  0  0
    2.7917   -6.1518    4.0889 C   0  0  0  0  0  0  0  0  0  0  0  0
    3.2294   -7.4799    4.2911 C   0  0  0  0  0  0  0  0  0  0  0  0
    2.6814   -8.5436    3.5347 C   0  0  0  0  0  0  0  0  0  0  0  0
    1.7425   -8.3674    2.5198 C   0  0  0  0  0  0  0  0  0  0  0  0
    4.1998   -7.9594    5.2220 C   0  0  0  0  0  0  0  0  0  0  0  0
    4.3268   -9.3011    5.2183 C   0  0  0  0  0  0  0  0  0  0  0  0
    3.2975  -10.0837    4.0755 S   0  0  0  0  0  0  0  0  0  0  0  0
    3.1524   -5.0653    4.9750 C   0  0  0  0  0  0  0  0  0  0  0  0
    3.1053   -3.7157    4.7462 C   0  0  0  0  0  0  0  0  0  0  0  0
    3.4161   -2.9307    5.8705 C   0  0  0  0  0  0  0  0  0  0  0  0
    3.6951   -3.6614    6.9835 C   0  0  0  0  0  0  0  0  0  0  0  0
    3.5801   -5.3552    6.6464 S   0  0  0  0  0  0  0  0  0  0  0  0
    4.0238   -3.1844    8.3561 C   0  0  0  0  0  0  0  0  0  0  0  0
    2.8213   -3.3256    9.2920 C   0  0  0  0  0  0  0  0  0  0  0  0
    1.1362   -9.4877    1.8355 C   0  0  0  0  0  0  0  0  0  0  0  0
    1.6648  -10.7242    1.5747 C   0  0  0  0  0  0  0  0  0  0  0  0
    0.7727  -11.5902    0.9165 C   0  0  0  0  0  0  0  0  0  0  0  0
   -0.4498  -11.0391    0.6826 C   0  0  0  0  0  0  0  0  0  0  0  0
   -0.5175   -9.4167    1.2771 S   0  0  0  0  0  0  0  0  0  0  0  0
   -1.6454  -11.6536    0.0405 C   0  0  0  0  0  0  0  0  0  0  0  0
   -2.7260  -11.9794    1.0736 C   0  0  0  0  0  0  0  0  0  0  0  0
   -4.9360    9.1037   -3.3216 C   0  0  0  0  0  0  0  0  0  0  0  0
   -5.8183    9.8205   -2.5302 C   0  0  0  0  0  0  0  0  0  0  0  0
   -5.2224   10.3041   -1.3530 C   0  0  0  0  0  0  0  0  0  0  0  0
   -3.8944    9.9719   -1.2099 C   0  0  0  0  0  0  0  0  0  0  0  0
   -3.3346    9.1308   -2.6366 S   0  0  0  0  0  0  0  0  0  0  0  0
   -2.9890    9.9529   -0.1103 C   0  0  0  0  0  0  0  0  0  0  0  0
   -1.3237    9.6001   -0.5055 S   0  0  0  0  0  0  0  0  0  0  0  0
   -0.9588    9.1080    1.1256 C   0  0  0  0  0  0  0  0  0  0  0  0
   -2.0566    9.3170    1.9458 C   0  0  0  0  0  0  0  0  0  0  0  0
   -3.1926    9.8571    1.2621 C   0  0  0  0  0  0  0  0  0  0  0  0
   -2.0900    8.9479    3.3482 C   0  0  0  0  0  0  0  0  0  0  0  0
   -3.2909    9.3829    4.0869 C   0  0  0  0  0  0  0  0  0  0  0  0
   -4.3802    9.9772    3.4396 C   0  0  0  0  0  0  0  0  0  0  0  0
   -4.3995   10.2433    1.9821 C   0  0  0  0  0  0  0  0  0  0  0  0
    0.2992    8.4828    1.3345 C   0  0  0  0  0  0  0  0  0  0  0  0
    1.3883    8.6119    0.4936 C   0  0  0  0  0  0  0  0  0  0  0  0
    2.4138    7.6933    0.7267 C   0  0  0  0  0  0  0  0  0  0  0  0
    0.5608    7.2089    2.4860 S   0  0  0  0  0  0  0  0  0  0  0  0
   -1.2086    8.2911    3.8900 O   0  0  0  0  0  0  0  0  0  0  0  0
   -5.3537   10.8033    1.4621 O   0  0  0  0  0  0  0  0  0  0  0  0
   -5.1266    8.1784   -4.3907 C   0  0  0  0  0  0  0  0  0  0  0  0
    2.0717    6.7997    1.7286 C   0  0  0  0  0  0  0  0  0  0  0  0
   -7.2569   10.0523   -2.8652 C   0  0  0  0  0  0  0  0  0  0  0  0
   -7.4027   11.0152   -4.0444 C   0  0  0  0  0  0  0  0  0  0  0  0
   -3.3401    9.1715    5.4632 C   0  0  0  0  0  0  0  0  0  0  0  0
   -4.4500    9.5479    6.1939 C   0  0  0  0  0  0  0  0  0  0  0  0
   -5.5320   10.1364    5.5538 C   0  0  0  0  0  0  0  0  0  0  0  0
   -5.4955   10.3464    4.1890 C   0  0  0  0  0  0  0  0  0  0  0  0
    3.6463    7.6271   -0.1208 C   0  0  0  0  0  0  0  0  0  0  0  0
    3.4972    6.5669   -1.2133 C   0  0  0  0  0  0  0  0  0  0  0  0
   -6.6890    7.5808   -4.9273 S   0  0  0  0  0  0  0  0  0  0  0  0
   -5.9392    6.1982   -5.6959 C   0  0  0  0  0  0  0  0  0  0  0  0
   -4.5308    6.2978   -5.6405 C   0  0  0  0  0  0  0  0  0  0  0  0
   -4.1090    7.4380   -4.9252 C   0  0  0  0  0  0  0  0  0  0  0  0
   -6.6093    5.0554   -6.1288 C   0  0  0  0  0  0  0  0  0  0  0  0
   -5.7994    3.9316   -6.4044 C   0  0  0  0  0  0  0  0  0  0  0  0
   -4.3866    4.0450   -6.3521 C   0  0  0  0  0  0  0  0  0  0  0  0
   -3.7159    5.2214   -6.0444 C   0  0  0  0  0  0  0  0  0  0  0  0
   -6.2072    2.5906   -6.6295 C   0  0  0  0  0  0  0  0  0  0  0  0
   -5.1736    1.7024   -6.6787 C   0  0  0  0  0  0  0  0  0  0  0  0
   -3.6184    2.5051   -6.6039 S   0  0  0  0  0  0  0  0  0  0  0  0
   -8.0552    5.0501   -6.1999 C   0  0  0  0  0  0  0  0  0  0  0  0
   -8.8550    6.0932   -6.5802 C   0  0  0  0  0  0  0  0  0  0  0  0
  -10.2312    5.8014   -6.5146 C   0  0  0  0  0  0  0  0  0  0  0  0
  -10.4991    4.5450   -6.0671 C   0  0  0  0  0  0  0  0  0  0  0  0
   -9.0327    3.6865   -5.7298 S   0  0  0  0  0  0  0  0  0  0  0  0
  -11.8180    3.8756   -5.8915 C   0  0  0  0  0  0  0  0  0  0  0  0
  -11.9931    2.7188   -6.8771 C   0  0  0  0  0  0  0  0  0  0  0  0
   -2.2718    5.3168   -6.0262 C   0  0  0  0  0  0  0  0  0  0  0  0
   -1.3512    4.3894   -5.6238 C   0  0  0  0  0  0  0  0  0  0  0  0
   -0.0208    4.8350   -5.7422 C   0  0  0  0  0  0  0  0  0  0  0  0
    0.0891    6.0933   -6.2495 C   0  0  0  0  0  0  0  0  0  0  0  0
   -1.4716    6.7630   -6.5850 S   0  0  0  0  0  0  0  0  0  0  0  0
    1.3202    6.9073   -6.4522 C   0  0  0  0  0  0  0  0  0  0  0  0
    1.5464    7.8551   -5.2710 C   0  0  0  0  0  0  0  0  0  0  0  0
    5.5708   -2.3138    2.7722 C   0  0  0  0  0  0  0  0  0  0  0  0
    6.6011   -2.9045    3.4824 C   0  0  0  0  0  0  0  0  0  0  0  0
    6.6298   -4.2823    3.2702 C   0  0  0  0  0  0  0  0  0  0  0  0
    5.6697   -4.7559    2.3892 C   0  0  0  0  0  0  0  0  0  0  0  0
    4.6959   -3.4489    1.7956 S   0  0  0  0  0  0  0  0  0  0  0  0
    5.5008   -6.1193    2.0501 C   0  0  0  0  0  0  0  0  0  0  0  0
    6.4824   -7.2795    2.9075 S   0  0  0  0  0  0  0  0  0  0  0  0
    5.8013   -8.6330    2.0387 C   0  0  0  0  0  0  0  0  0  0  0  0
    4.8654   -8.1863    1.1163 C   0  0  0  0  0  0  0  0  0  0  0  0
    4.6841   -6.7682    1.1312 C   0  0  0  0  0  0  0  0  0  0  0  0
    4.1368   -9.0406    0.2019 C   0  0  0  0  0  0  0  0  0  0  0  0
    3.1315   -8.3709   -0.6430 C   0  0  0  0  0  0  0  0  0  0  0  0
    2.9833   -6.9797   -0.6578 C   0  0  0  0  0  0  0  0  0  0  0  0
    3.7432   -6.1075    0.2554 C   0  0  0  0  0  0  0  0  0  0  0  0
    6.2444   -9.9263    2.4154 C   0  0  0  0  0  0  0  0  0  0  0  0
    7.1136  -10.1680    3.4635 C   0  0  0  0  0  0  0  0  0  0  0  0
    7.3719  -11.5256    3.6914 C   0  0  0  0  0  0  0  0  0  0  0  0
    5.7448  -11.4254    1.6813 S   0  0  0  0  0  0  0  0  0  0  0  0
    4.3401  -10.2461    0.1007 O   0  0  0  0  0  0  0  0  0  0  0  0
    3.5463   -4.8937    0.2711 O   0  0  0  0  0  0  0  0  0  0  0  0
    5.1094   -0.9553    2.7827 C   0  0  0  0  0  0  0  0  0  0  0  0
    6.6898  -12.3091    2.7995 C   0  0  0  0  0  0  0  0  0  0  0  0
    7.5266   -2.1931    4.4213 C   0  0  0  0  0  0  0  0  0  0  0  0
    6.7930   -1.7048    5.6703 C   0  0  0  0  0  0  0  0  0  0  0  0
    2.3193   -9.1545   -1.4604 C   0  0  0  0  0  0  0  0  0  0  0  0
    1.3815   -8.5691   -2.2877 C   0  0  0  0  0  0  0  0  0  0  0  0
    1.2633   -7.1866   -2.3353 C   0  0  0  0  0  0  0  0  0  0  0  0
    2.0602   -6.3998   -1.5270 C   0  0  0  0  0  0  0  0  0  0  0  0
    8.2457  -12.0367    4.7940 C   0  0  0  0  0  0  0  0  0  0  0  0
    7.5644  -11.8691    6.1528 C   0  0  0  0  0  0  0  0  0  0  0  0
    3.3755   -0.7179    2.8375 S   0  0  0  0  0  0  0  0  0  0  0  0
    3.5697    1.0063    2.7353 C   0  0  0  0  0  0  0  0  0  0  0  0
    4.9374    1.3653    2.6912 C   0  0  0  0  0  0  0  0  0  0  0  0
    5.7846    0.2249    2.7264 C   0  0  0  0  0  0  0  0  0  0  0  0
    2.5259    1.9187    2.6198 C   0  0  0  0  0  0  0  0  0  0  0  0
    2.8928    3.2680    2.4582 C   0  0  0  0  0  0  0  0  0  0  0  0
    4.2602    3.6251    2.3752 C   0  0  0  0  0  0  0  0  0  0  0  0
    5.3023    2.7156    2.5192 C   0  0  0  0  0  0  0  0  0  0  0  0
    2.0457    4.3967    2.3269 C   0  0  0  0  0  0  0  0  0  0  0  0
    2.7070    5.5613    2.0723 C   0  0  0  0  0  0  0  0  0  0  0  0
    4.4446    5.3323    2.0708 S   0  0  0  0  0  0  0  0  0  0  0  0
    1.1449    1.4826    2.5812 C   0  0  0  0  0  0  0  0  0  0  0  0
    0.1450    1.9077    1.7518 C   0  0  0  0  0  0  0  0  0  0  0  0
   -1.0675    1.2148    1.9397 C   0  0  0  0  0  0  0  0  0  0  0  0
   -1.0033    0.2611    2.9086 C   0  0  0  0  0  0  0  0  0  0  0  0
    0.5760    0.2026    3.6171 S   0  0  0  0  0  0  0  0  0  0  0  0
   -2.0740   -0.6598    3.3823 C   0  0  0  0  0  0  0  0  0  0  0  0
   -2.4792   -0.3565    4.8255 C   0  0  0  0  0  0  0  0  0  0  0  0
    6.6947    3.1147    2.4868 C   0  0  0  0  0  0  0  0  0  0  0  0
    7.7105    2.6842    3.2933 C   0  0  0  0  0  0  0  0  0  0  0  0
    8.9523    3.2781    2.9918 C   0  0  0  0  0  0  0  0  0  0  0  0
    8.8934    4.1593    1.9567 C   0  0  0  0  0  0  0  0  0  0  0  0
    7.2813    4.2770    1.3312 S   0  0  0  0  0  0  0  0  0  0  0  0
   10.0001    4.9379    1.3334 C   0  0  0  0  0  0  0  0  0  0  0  0
   10.3987    4.3486   -0.0214 C   0  0  0  0  0  0  0  0  0  0  0  0
   -1.3544   -1.8848   -1.6044 H   0  0  0  0  0  0  0  0  0  0  0  0
   -6.3713   -2.8343   -6.5464 H   0  0  0  0  0  0  0  0  0  0  0  0
   -0.1819   -1.1101    0.4567 H   0  0  0  0  0  0  0  0  0  0  0  0
    0.5082   -2.2477    1.6189 H   0  0  0  0  0  0  0  0  0  0  0  0
    2.2733   -1.0294    0.3239 H   0  0  0  0  0  0  0  0  0  0  0  0
    1.6374   -1.7154   -1.1721 H   0  0  0  0  0  0  0  0  0  0  0  0
    2.3558   -2.7711    0.0516 H   0  0  0  0  0  0  0  0  0  0  0  0
   -5.8020   -7.1268   -7.1825 H   0  0  0  0  0  0  0  0  0  0  0  0
   -5.5338   -9.5825   -6.9625 H   0  0  0  0  0  0  0  0  0  0  0  0
   -4.1242  -10.5018   -5.1530 H   0  0  0  0  0  0  0  0  0  0  0  0
   -2.9913   -8.9544   -3.5754 H   0  0  0  0  0  0  0  0  0  0  0  0
   -7.4742   -1.2579   -8.3960 H   0  0  0  0  0  0  0  0  0  0  0  0
   -7.2409    0.4902   -8.2456 H   0  0  0  0  0  0  0  0  0  0  0  0
   -8.7144   -1.3073   -6.2519 H   0  0  0  0  0  0  0  0  0  0  0  0
   -9.4694   -0.1758   -7.3783 H   0  0  0  0  0  0  0  0  0  0  0  0
   -8.4758    0.4264   -6.0458 H   0  0  0  0  0  0  0  0  0  0  0  0
    0.1286   -7.1939    0.4432 H   0  0  0  0  0  0  0  0  0  0  0  0
    4.7997   -7.3240    5.8452 H   0  0  0  0  0  0  0  0  0  0  0  0
    4.9835   -9.9038    5.8137 H   0  0  0  0  0  0  0  0  0  0  0  0
    2.8815   -3.2745    3.7953 H   0  0  0  0  0  0  0  0  0  0  0  0
    3.4255   -1.8555    5.8484 H   0  0  0  0  0  0  0  0  0  0  0  0
    4.8591   -3.7631    8.7588 H   0  0  0  0  0  0  0  0  0  0  0  0
    4.3257   -2.1362    8.3010 H   0  0  0  0  0  0  0  0  0  0  0  0
    3.0744   -2.9726   10.2886 H   0  0  0  0  0  0  0  0  0  0  0  0
    2.5169   -4.3678    9.3580 H   0  0  0  0  0  0  0  0  0  0  0  0
    1.9823   -2.7435    8.9177 H   0  0  0  0  0  0  0  0  0  0  0  0
    2.6795  -11.0030    1.7889 H   0  0  0  0  0  0  0  0  0  0  0  0
    1.0371  -12.5901    0.6209 H   0  0  0  0  0  0  0  0  0  0  0  0
   -2.0573  -10.9628   -0.6995 H   0  0  0  0  0  0  0  0  0  0  0  0
   -1.3386  -12.5676   -0.4729 H   0  0  0  0  0  0  0  0  0  0  0  0
   -3.5882  -12.4319    0.5900 H   0  0  0  0  0  0  0  0  0  0  0  0
   -2.3403  -12.6718    1.8185 H   0  0  0  0  0  0  0  0  0  0  0  0
   -3.0463  -11.0711    1.5788 H   0  0  0  0  0  0  0  0  0  0  0  0
   -5.7632   10.8457   -0.5992 H   0  0  0  0  0  0  0  0  0  0  0  0
    1.4250    9.3542   -0.2857 H   0  0  0  0  0  0  0  0  0  0  0  0
   -7.7356    9.1026   -3.1169 H   0  0  0  0  0  0  0  0  0  0  0  0
   -7.7587   10.4663   -1.9896 H   0  0  0  0  0  0  0  0  0  0  0  0
   -6.9242   10.6072   -4.9314 H   0  0  0  0  0  0  0  0  0  0  0  0
   -8.4540   11.1813   -4.2646 H   0  0  0  0  0  0  0  0  0  0  0  0
   -6.9409   11.9720   -3.8109 H   0  0  0  0  0  0  0  0  0  0  0  0
   -2.4871    8.7080    5.9365 H   0  0  0  0  0  0  0  0  0  0  0  0
   -4.4756    9.3831    7.2608 H   0  0  0  0  0  0  0  0  0  0  0  0
   -6.4023   10.4304    6.1214 H   0  0  0  0  0  0  0  0  0  0  0  0
   -6.3268   10.8016    3.6711 H   0  0  0  0  0  0  0  0  0  0  0  0
    3.8054    8.6027   -0.5836 H   0  0  0  0  0  0  0  0  0  0  0  0
    4.5171    7.3957    0.4937 H   0  0  0  0  0  0  0  0  0  0  0  0
    2.6262    6.7803   -1.8295 H   0  0  0  0  0  0  0  0  0  0  0  0
    3.3729    5.5808   -0.7724 H   0  0  0  0  0  0  0  0  0  0  0  0
    4.3801    6.5525   -1.8473 H   0  0  0  0  0  0  0  0  0  0  0  0
   -3.0774    7.6505   -4.7109 H   0  0  0  0  0  0  0  0  0  0  0  0
   -7.2339    2.2839   -6.6654 H   0  0  0  0  0  0  0  0  0  0  0  0
   -8.4679    7.0322   -6.9331 H   0  0  0  0  0  0  0  0  0  0  0  0
  -10.9976    6.5043   -6.7896 H   0  0  0  0  0  0  0  0  0  0  0  0
  -11.9029    3.4905   -4.8716 H   0  0  0  0  0  0  0  0  0  0  0  0
  -12.6073    4.6149   -6.0434 H   0  0  0  0  0  0  0  0  0  0  0  0
  -12.9667    2.2538   -6.7444 H   0  0  0  0  0  0  0  0  0  0  0  0
  -11.2234    1.9675   -6.7143 H   0  0  0  0  0  0  0  0  0  0  0  0
  -11.9154    3.0785   -7.9007 H   0  0  0  0  0  0  0  0  0  0  0  0
   -1.6147    3.4313   -5.2143 H   0  0  0  0  0  0  0  0  0  0  0  0
    0.8286    4.2385   -5.4597 H   0  0  0  0  0  0  0  0  0  0  0  0
    1.2309    7.4920   -7.3703 H   0  0  0  0  0  0  0  0  0  0  0  0
    2.1763    6.2366   -6.5518 H   0  0  0  0  0  0  0  0  0  0  0  0
    1.6497    7.2887   -4.3482 H   0  0  0  0  0  0  0  0  0  0  0  0
    2.4497    8.4400   -5.4243 H   0  0  0  0  0  0  0  0  0  0  0  0
    0.7039    8.5351   -5.1659 H   0  0  0  0  0  0  0  0  0  0  0  0
    7.3374   -4.9383    3.7486 H   0  0  0  0  0  0  0  0  0  0  0  0
    7.5418   -9.3731    4.0498 H   0  0  0  0  0  0  0  0  0  0  0  0
    6.7034  -13.3806    2.7466 H   0  0  0  0  0  0  0  0  0  0  0  0
    8.3236   -2.8792    4.7138 H   0  0  0  0  0  0  0  0  0  0  0  0
    7.9852   -1.3420    3.9144 H   0  0  0  0  0  0  0  0  0  0  0  0
    7.4903   -1.2282    6.3555 H   0  0  0  0  0  0  0  0  0  0  0  0
    6.0236   -0.9857    5.4011 H   0  0  0  0  0  0  0  0  0  0  0  0
    6.3183   -2.5401    6.1794 H   0  0  0  0  0  0  0  0  0  0  0  0
    2.4418  -10.2267   -1.4204 H   0  0  0  0  0  0  0  0  0  0  0  0
    0.7432   -9.1853   -2.9025 H   0  0  0  0  0  0  0  0  0  0  0  0
    0.5347   -6.7311   -2.9877 H   0  0  0  0  0  0  0  0  0  0  0  0
    1.9761   -5.3231   -1.5375 H   0  0  0  0  0  0  0  0  0  0  0  0
    8.4646  -13.0920    4.6231 H   0  0  0  0  0  0  0  0  0  0  0  0
    9.1897  -11.4866    4.7938 H   0  0  0  0  0  0  0  0  0  0  0  0
    7.3726  -10.8174    6.3544 H   0  0  0  0  0  0  0  0  0  0  0  0
    6.6168  -12.4034    6.1680 H   0  0  0  0  0  0  0  0  0  0  0  0
    8.1967  -12.2620    6.9454 H   0  0  0  0  0  0  0  0  0  0  0  0
    6.8533    0.2863    2.6392 H   0  0  0  0  0  0  0  0  0  0  0  0
    0.9745    4.3492    2.3943 H   0  0  0  0  0  0  0  0  0  0  0  0
    0.2845    2.6599    0.9961 H   0  0  0  0  0  0  0  0  0  0  0  0
   -1.9558    1.4131    1.3655 H   0  0  0  0  0  0  0  0  0  0  0  0
   -1.7196   -1.6924    3.3200 H   0  0  0  0  0  0  0  0  0  0  0  0
   -2.9398   -0.5572    2.7246 H   0  0  0  0  0  0  0  0  0  0  0  0
   -3.2645   -1.0357    5.1477 H   0  0  0  0  0  0  0  0  0  0  0  0
   -1.6242   -0.4736    5.4874 H   0  0  0  0  0  0  0  0  0  0  0  0
   -2.8449    0.6645    4.9101 H   0  0  0  0  0  0  0  0  0  0  0  0
    7.5629    1.9950    4.1059 H   0  0  0  0  0  0  0  0  0  0  0  0
    9.8579    3.0629    3.5315 H   0  0  0  0  0  0  0  0  0  0  0  0
   10.8601    4.9284    2.0065 H   0  0  0  0  0  0  0  0  0  0  0  0
    9.6854    5.9749    1.1933 H   0  0  0  0  0  0  0  0  0  0  0  0
   10.7309    3.3196    0.0965 H   0  0  0  0  0  0  0  0  0  0  0  0
    9.5494    4.3615   -0.7006 H   0  0  0  0  0  0  0  0  0  0  0  0
   11.2068    4.9271   -0.4621 H   0  0  0  0  0  0  0  0  0  0  0  0
  1  2  2  0  0  0  0
  2  3  1  0  0  0  0
  3  4  2  0  0  0  0
  4  5  1  0  0  0  0
  5  1  1  0  0  0  0
  4  6  1  0  0  0  0
  6  7  1  0  0  0  0
  7  8  1  0  0  0  0
  8  9  2  0  0  0  0
  9 10  1  0  0  0  0
 10  6  2  0  0  0  0
  9 11  1  0  0  0  0
 11 12  1  0  0  0  0
 12 13  2  0  0  0  0
 13 14  1  0  0  0  0
 14 10  1  0  0  0  0
  8 15  1  0  0  0  0
 15 16  2  0  0  0  0
 16 17  1  0  0  0  0
 17 22  2  0  0  0  0
 22 18  1  0  0  0  0
 18 15  1  0  0  0  0
 11 19  2  0  0  0  0
 14 20  2  0  0  0  0
  1 21  1  0  0  0  0
  2 23  1  0  0  0  0
 23 24  1  0  0  0  0
 12 25  1  0  0  0  0
 25 26  2  0  0  0  0
 26 27  1  0  0  0  0
 27 28  2  0  0  0  0
 28 13  1  0  0  0  0
 17 29  1  0  0  0  0
 29 30  1  0  0  0  0
 21 31  1  0  0  0  0
 31 32  1  0  0  0  0
 32 33  2  0  0  0  0
 33 34  1  0  0  0  0
 34 21  2  0  0  0  0
 32 35  1  0  0  0  0
 35 36  2  0  0  0  0
 36 37  1  0  0  0  0
 37 38  2  0  0  0  0
 38 33  1  0  0  0  0
 36 39  1  0  0  0  0
 39 40  2  0  0  0  0
 40 41  1  0  0  0  0
 41 37  1  0  0  0  0
 35 42  1  0  0  0  0
 42 43  2  0  0  0  0
 43 44  1  0  0  0  0
 44 45  2  0  0  0  0
 45 46  1  0  0  0  0
 46 42  1  0  0  0  0
 45 47  1  0  0  0  0
 47 48  1  0  0  0  0
 38 49  1  0  0  0  0
 49 50  2  0  0  0  0
 50 51  1  0  0  0  0
 51 52  2  0  0  0  0
 52 53  1  0  0  0  0
 53 49  1  0  0  0  0
 52 54  1  0  0  0  0
 54 55  1  0  0  0  0
 56 57  2  0  0  0  0
 57 58  1  0  0  0  0
 58 59  2  0  0  0  0
 59 60  1  0  0  0  0
 60 56  1  0  0  0  0
 59 61  1  0  0  0  0
 61 62  1  0  0  0  0
 62 63  1  0  0  0  0
 63 64  2  0  0  0  0
 64 65  1  0  0  0  0
 65 61  2  0  0  0  0
 64 66  1  0  0  0  0
 66 67  1  0  0  0  0
 67 68  2  0  0  0  0
 68 69  1  0  0  0  0
 69 65  1  0  0  0  0
 63 70  1  0  0  0  0
 70 71  2  0  0  0  0
 71 72  1  0  0  0  0
 72 77  2  0  0  0  0
 77 73  1  0  0  0  0
 73 70  1  0  0  0  0
 66 74  2  0  0  0  0
 69 75  2  0  0  0  0
 56 76  1  0  0  0  0
 57 78  1  0  0  0  0
 78 79  1  0  0  0  0
 67 80  1  0  0  0  0
 80 81  2  0  0  0  0
 81 82  1  0  0  0  0
 82 83  2  0  0  0  0
 83 68  1  0  0  0  0
 72 84  1  0  0  0  0
 84 85  1  0  0  0  0
 76 86  1  0  0  0  0
 86 87  1  0  0  0  0
 87 88  2  0  0  0  0
 88 89  1  0  0  0  0
 89 76  2  0  0  0  0
 87 90  1  0  0  0  0
 90 91  2  0  0  0  0
 91 92  1  0  0  0  0
 92 93  2  0  0  0  0
 93 88  1  0  0  0  0
 91 94  1  0  0  0  0
 94 95  2  0  0  0  0
 95 96  1  0  0  0  0
 96 92  1  0  0  0  0
 90 97  1  0  0  0  0
 97 98  2  0  0  0  0
 98 99  1  0  0  0  0
 99100  2  0  0  0  0
100101  1  0  0  0  0
101 97  1  0  0  0  0
100102  1  0  0  0  0
102103  1  0  0  0  0
 93104  1  0  0  0  0
104105  2  0  0  0  0
105106  1  0  0  0  0
106107  2  0  0  0  0
107108  1  0  0  0  0
108104  1  0  0  0  0
107109  1  0  0  0  0
109110  1  0  0  0  0
111112  2  0  0  0  0
112113  1  0  0  0  0
113114  2  0  0  0  0
114115  1  0  0  0  0
115111  1  0  0  0  0
114116  1  0  0  0  0
116117  1  0  0  0  0
117118  1  0  0  0  0
118119  2  0  0  0  0
119120  1  0  0  0  0
120116  2  0  0  0  0
119121  1  0  0  0  0
121122  1  0  0  0  0
122123  2  0  0  0  0
123124  1  0  0  0  0
124120  1  0  0  0  0
118125  1  0  0  0  0
125126  2  0  0  0  0
126127  1  0  0  0  0
127132  2  0  0  0  0
132128  1  0  0  0  0
128125  1  0  0  0  0
121129  2  0  0  0  0
124130  2  0  0  0  0
111131  1  0  0  0  0
112133  1  0  0  0  0
133134  1  0  0  0  0
122135  1  0  0  0  0
135136  2  0  0  0  0
136137  1  0  0  0  0
137138  2  0  0  0  0
138123  1  0  0  0  0
127139  1  0  0  0  0
139140  1  0  0  0  0
131141  1  0  0  0  0
141142  1  0  0  0  0
142143  2  0  0  0  0
143144  1  0  0  0  0
144131  2  0  0  0  0
142145  1  0  0  0  0
145146  2  0  0  0  0
146147  1  0  0  0  0
147148  2  0  0  0  0
148143  1  0  0  0  0
146149  1  0  0  0  0
149150  2  0  0  0  0
150151  1  0  0  0  0
151147  1  0  0  0  0
145152  1  0  0  0  0
152153  2  0  0  0  0
153154  1  0  0  0  0
154155  2  0  0  0  0
155156  1  0  0  0  0
156152  1  0  0  0  0
155157  1  0  0  0  0
157158  1  0  0  0  0
148159  1  0  0  0  0
159160  2  0  0  0  0
160161  1  0  0  0  0
161162  2  0  0  0  0
162163  1  0  0  0  0
163159  1  0  0  0  0
162164  1  0  0  0  0
164165  1  0  0  0  0
 22 95  1  0  0  0  0
 77150  1  0  0  0  0
  3166  1  0  0  0  0
 16167  1  0  0  0  0
 23168  1  0  0  0  0
 23169  1  0  0  0  0
 24170  1  0  0  0  0
 24171  1  0  0  0  0
 24172  1  0  0  0  0
 25173  1  0  0  0  0
 26174  1  0  0  0  0
 27175  1  0  0  0  0
 28176  1  0  0  0  0
 29177  1  0  0  0  0
 29178  1  0  0  0  0
 30179  1  0  0  0  0
 30180  1  0  0  0  0
 30181  1  0  0  0  0
 34182  1  0  0  0  0
 39183  1  0  0  0  0
 40184  1  0  0  0  0
 43185  1  0  0  0  0
 44186  1  0  0  0  0
 47187  1  0  0  0  0
 47188  1  0  0  0  0
 48189  1  0  0  0  0
 48190  1  0  0  0  0
 48191  1  0  0  0  0
 50192  1  0  0  0  0
 51193  1  0  0  0  0
 54194  1  0  0  0  0
 54195  1  0  0  0  0
 55196  1  0  0  0  0
 55197  1  0  0  0  0
 55198  1  0  0  0  0
 58199  1  0  0  0  0
 71200  1  0  0  0  0
 78201  1  0  0  0  0
 78202  1  0  0  0  0
 79203  1  0  0  0  0
 79204  1  0  0  0  0
 79205  1  0  0  0  0
 80206  1  0  0  0  0
 81207  1  0  0  0  0
 82208  1  0  0  0  0
 83209  1  0  0  0  0
 84210  1  0  0  0  0
 84211  1  0  0  0  0
 85212  1  0  0  0  0
 85213  1  0  0  0  0
 85214  1  0  0  0  0
 89215  1  0  0  0  0
 94216  1  0  0  0  0
 98217  1  0  0  0  0
 99218  1  0  0  0  0
102219  1  0  0  0  0
102220  1  0  0  0  0
103221  1  0  0  0  0
103222  1  0  0  0  0
103223  1  0  0  0  0
105224  1  0  0  0  0
106225  1  0  0  0  0
109226  1  0  0  0  0
109227  1  0  0  0  0
110228  1  0  0  0  0
110229  1  0  0  0  0
110230  1  0  0  0  0
113231  1  0  0  0  0
126232  1  0  0  0  0
132233  1  0  0  0  0
133234  1  0  0  0  0
133235  1  0  0  0  0
134236  1  0  0  0  0
134237  1  0  0  0  0
134238  1  0  0  0  0
135239  1  0  0  0  0
136240  1  0  0  0  0
137241  1  0  0  0  0
138242  1  0  0  0  0
139243  1  0  0  0  0
139244  1  0  0  0  0
140245  1  0  0  0  0
140246  1  0  0  0  0
140247  1  0  0  0  0
144248  1  0  0  0  0
149249  1  0  0  0  0
153250  1  0  0  0  0
154251  1  0  0  0  0
157252  1  0  0  0  0
157253  1  0  0  0  0
158254  1  0  0  0  0
158255  1  0  0  0  0
158256  1  0  0  0  0
160257  1  0  0  0  0
161258  1  0  0  0  0
164259  1  0  0  0  0
164260  1  0  0  0  0
165261  1  0  0  0  0
165262  1  0  0  0  0
165263  1  0  0  0  0
M  END
