PDBT-2Cl.sdf
  xtb     12202111213D
 energy: -525.961454326333 gnorm: 0.000397336791 xtb: 6.4.1 (unknown)
272307  0     0  0            999 V2000
   -2.5400   -2.3645    7.7276 C   0  0  0  0  0  0  0  0  0  0  0  0
   -1.9597   -1.7090    8.7939 C   0  0  0  0  0  0  0  0  0  0  0  0
   -1.2803   -0.5466    8.4272 C   0  0  0  0  0  0  0  0  0  0  0  0
   -1.3194   -0.2887    7.0736 C   0  0  0  0  0  0  0  0  0  0  0  0
   -2.2716   -1.5021    6.2524 S   0  0  0  0  0  0  0  0  0  0  0  0
   -0.7902    0.7549    6.2613 C   0  0  0  0  0  0  0  0  0  0  0  0
   -1.5263    0.8895    4.6879 S   0  0  0  0  0  0  0  0  0  0  0  0
   -0.5367    2.2507    4.2442 C   0  0  0  0  0  0  0  0  0  0  0  0
    0.3489    2.5527    5.2740 C   0  0  0  0  0  0  0  0  0  0  0  0
    0.2036    1.7108    6.4248 C   0  0  0  0  0  0  0  0  0  0  0  0
    1.3418    3.6071    5.1817 C   0  0  0  0  0  0  0  0  0  0  0  0
    2.1425    3.7965    6.3789 C   0  0  0  0  0  0  0  0  0  0  0  0
    2.0282    2.9491    7.5252 C   0  0  0  0  0  0  0  0  0  0  0  0
    1.0685    1.8450    7.6023 C   0  0  0  0  0  0  0  0  0  0  0  0
    3.0729    4.7974    6.5296 C   0  0  0  0  0  0  0  0  0  0  0  0
    3.8141    4.7080    8.0875 S   0  0  0  0  0  0  0  0  0  0  0  0
    2.8787    3.3198    8.5364 C   0  0  0  0  0  0  0  0  0  0  0  0
   -0.8161    2.8635    2.9981 C   0  0  0  0  0  0  0  0  0  0  0  0
   -1.8307    2.4433    2.1466 C   0  0  0  0  0  0  0  0  0  0  0  0
   -2.0061    3.2519    1.0352 C   0  0  0  0  0  0  0  0  0  0  0  0
   -0.0370    4.2835    2.3695 S   0  0  0  0  0  0  0  0  0  0  0  0
    1.5118    4.2896    4.1714 O   0  0  0  0  0  0  0  0  0  0  0  0
    1.0022    1.1116    8.5789 O   0  0  0  0  0  0  0  0  0  0  0  0
    3.4477    5.8424    5.5441 C   0  0  0  0  0  0  0  0  0  0  0  0
    4.3480    6.9265    6.1174 C   0  0  0  0  0  0  0  0  0  0  0  0
    3.1187    2.6772    9.8544 C   0  0  0  0  0  0  0  0  0  0  0  0
    4.2450    1.6445    9.7434 C   0  0  0  0  0  0  0  0  0  0  0  0
   -3.2061   -3.6194    7.6914 C   0  0  0  0  0  0  0  0  0  0  0  0
   -3.5323   -4.4500    8.7383 C   0  0  0  0  0  0  0  0  0  0  0  0
   -4.1010   -5.6402    8.2764 C   0  0  0  0  0  0  0  0  0  0  0  0
   -4.2166   -5.7371    6.8945 C   0  0  0  0  0  0  0  0  0  0  0  0
   -3.6256   -4.3087    6.1363 S   0  0  0  0  0  0  0  0  0  0  0  0
   -4.6707   -7.0593    9.0921 S   0  0  0  0  0  0  0  0  0  0  0  0
   -5.0372   -7.8067    7.5519 C   0  0  0  0  0  0  0  0  0  0  0  0
   -4.7432   -6.9747    6.4405 C   0  0  0  0  0  0  0  0  0  0  0  0
   -5.5299   -9.0981    7.4250 C   0  0  0  0  0  0  0  0  0  0  0  0
   -5.8063   -9.5468    6.1260 C   0  0  0  0  0  0  0  0  0  0  0  0
   -5.4856   -8.7309    5.0112 C   0  0  0  0  0  0  0  0  0  0  0  0
   -4.9303   -7.4607    5.1360 C   0  0  0  0  0  0  0  0  0  0  0  0
   -6.4527  -10.7354    5.6981 C   0  0  0  0  0  0  0  0  0  0  0  0
   -6.6127  -10.8266    4.3249 C   0  0  0  0  0  0  0  0  0  0  0  0
   -5.9498   -9.4585    3.4871 S   0  0  0  0  0  0  0  0  0  0  0  0
   -7.1828  -12.0833    6.4932 S   0  0  0  0  0  0  0  0  0  0  0  0
   -7.6648  -12.7429    4.9722 C   0  0  0  0  0  0  0  0  0  0  0  0
   -7.2999  -11.9824    3.9071 C   0  0  0  0  0  0  0  0  0  0  0  0
   -5.7258   -9.9478    8.5889 C   0  0  0  0  0  0  0  0  0  0  0  0
   -4.5879   -6.6914    3.9487 C   0  0  0  0  0  0  0  0  0  0  0  0
   -5.1911  -11.1826    8.8312 C   0  0  0  0  0  0  0  0  0  0  0  0
   -5.5478  -11.7091   10.1004 C   0  0  0  0  0  0  0  0  0  0  0  0
   -6.3619  -10.8891   10.8228 C   0  0  0  0  0  0  0  0  0  0  0  0
   -6.6818   -9.4337    9.9452 S   0  0  0  0  0  0  0  0  0  0  0  0
   -3.8097   -7.0698    2.8899 C   0  0  0  0  0  0  0  0  0  0  0  0
   -4.4485   -4.9579    2.1335 C   0  0  0  0  0  0  0  0  0  0  0  0
   -5.2496   -5.1107    3.6608 S   0  0  0  0  0  0  0  0  0  0  0  0
   -4.5612   -3.7126    1.3249 C   0  0  0  0  0  0  0  0  0  0  0  0
   -4.0917   -2.4929    2.1177 C   0  0  0  0  0  0  0  0  0  0  0  0
   -6.8972  -11.0970   12.1962 C   0  0  0  0  0  0  0  0  0  0  0  0
   -5.9584  -10.4985   13.2464 C   0  0  0  0  0  0  0  0  0  0  0  0
   -1.1165    4.3099    1.0133 C   0  0  0  0  0  0  0  0  0  0  0  0
   -3.7348   -6.0862    1.8668 C   0  0  0  0  0  0  0  0  0  0  0  0
   -2.8602   -6.3472    0.4114 Cl  0  0  0  0  0  0  0  0  0  0  0  0
   -4.9952  -13.2378   10.6492 Cl  0  0  0  0  0  0  0  0  0  0  0  0
   -4.1485  -12.0147    7.7608 Cl  0  0  0  0  0  0  0  0  0  0  0  0
   -2.9381   -8.5314    2.7913 Cl  0  0  0  0  0  0  0  0  0  0  0  0
    4.5134    8.0524   -9.1484 C   0  0  0  0  0  0  0  0  0  0  0  0
    5.7172    7.9727   -9.8106 C   0  0  0  0  0  0  0  0  0  0  0  0
    5.7005    7.0965  -10.9070 C   0  0  0  0  0  0  0  0  0  0  0  0
    4.4880    6.4714  -11.0914 C   0  0  0  0  0  0  0  0  0  0  0  0
    3.3219    7.0688   -9.9403 S   0  0  0  0  0  0  0  0  0  0  0  0
    4.0569    5.3129  -11.8102 C   0  0  0  0  0  0  0  0  0  0  0  0
    2.7510    4.4803  -11.0271 S   0  0  0  0  0  0  0  0  0  0  0  0
    2.7830    3.1615  -12.1556 C   0  0  0  0  0  0  0  0  0  0  0  0
    3.7299    3.3998  -13.1433 C   0  0  0  0  0  0  0  0  0  0  0  0
    4.4666    4.6128  -12.9326 C   0  0  0  0  0  0  0  0  0  0  0  0
    3.9763    2.5190  -14.2881 C   0  0  0  0  0  0  0  0  0  0  0  0
    5.0621    2.9614  -15.1640 C   0  0  0  0  0  0  0  0  0  0  0  0
    5.8025    4.1687  -14.9452 C   0  0  0  0  0  0  0  0  0  0  0  0
    5.5520    5.0577  -13.8112 C   0  0  0  0  0  0  0  0  0  0  0  0
    5.4819    2.2745  -16.2761 C   0  0  0  0  0  0  0  0  0  0  0  0
    6.7690    3.1130  -17.0724 S   0  0  0  0  0  0  0  0  0  0  0  0
    6.7555    4.3922  -15.9072 C   0  0  0  0  0  0  0  0  0  0  0  0
    1.9468    2.0690  -11.7689 C   0  0  0  0  0  0  0  0  0  0  0  0
    1.4636    0.9304  -12.3739 C   0  0  0  0  0  0  0  0  0  0  0  0
    0.7094    0.1168  -11.5181 C   0  0  0  0  0  0  0  0  0  0  0  0
    1.4247    2.1278  -10.1021 S   0  0  0  0  0  0  0  0  0  0  0  0
    3.3153    1.5151  -14.5117 O   0  0  0  0  0  0  0  0  0  0  0  0
    6.1981    6.0737  -13.6019 O   0  0  0  0  0  0  0  0  0  0  0  0
    4.9557    1.0107  -16.8540 C   0  0  0  0  0  0  0  0  0  0  0  0
    3.7469    1.2902  -17.7520 C   0  0  0  0  0  0  0  0  0  0  0  0
    7.7375    5.5022  -16.0136 C   0  0  0  0  0  0  0  0  0  0  0  0
    8.9860    5.1987  -15.1800 C   0  0  0  0  0  0  0  0  0  0  0  0
    4.1034    8.5957   -7.8908 C   0  0  0  0  0  0  0  0  0  0  0  0
    4.8190    8.8464   -6.7421 C   0  0  0  0  0  0  0  0  0  0  0  0
    3.9736    8.9654   -5.6263 C   0  0  0  0  0  0  0  0  0  0  0  0
    2.6257    8.8378   -5.9269 C   0  0  0  0  0  0  0  0  0  0  0  0
    2.3722    8.6195   -7.6113 S   0  0  0  0  0  0  0  0  0  0  0  0
    4.2390    9.0066   -3.8995 S   0  0  0  0  0  0  0  0  0  0  0  0
    2.5354    8.6802   -3.6107 C   0  0  0  0  0  0  0  0  0  0  0  0
    1.7776    8.6789   -4.8080 C   0  0  0  0  0  0  0  0  0  0  0  0
    1.9817    8.2738   -2.4071 C   0  0  0  0  0  0  0  0  0  0  0  0
    0.6454    7.8371   -2.4269 C   0  0  0  0  0  0  0  0  0  0  0  0
   -0.1267    7.9071   -3.6138 C   0  0  0  0  0  0  0  0  0  0  0  0
    0.4234    8.3177   -4.8143 C   0  0  0  0  0  0  0  0  0  0  0  0
   -0.0310    7.0534   -1.4597 C   0  0  0  0  0  0  0  0  0  0  0  0
   -1.2643    6.5702   -1.8803 C   0  0  0  0  0  0  0  0  0  0  0  0
   -1.7057    7.1637   -3.4550 S   0  0  0  0  0  0  0  0  0  0  0  0
    0.4548    6.3101    0.0172 S   0  0  0  0  0  0  0  0  0  0  0  0
   -0.9828    5.3146    0.0179 C   0  0  0  0  0  0  0  0  0  0  0  0
   -1.8152    5.5969   -1.0421 C   0  0  0  0  0  0  0  0  0  0  0  0
    2.7251    8.1085   -1.1654 C   0  0  0  0  0  0  0  0  0  0  0  0
   -0.2674    8.1492   -6.0868 C   0  0  0  0  0  0  0  0  0  0  0  0
    2.4300    8.6599    0.0490 C   0  0  0  0  0  0  0  0  0  0  0  0
    3.2050    8.1224    1.1106 C   0  0  0  0  0  0  0  0  0  0  0  0
    4.0799    7.1576    0.7107 C   0  0  0  0  0  0  0  0  0  0  0  0
    3.9796    6.9193   -1.0004 S   0  0  0  0  0  0  0  0  0  0  0  0
   -0.6301    9.0868   -7.0074 C   0  0  0  0  0  0  0  0  0  0  0  0
   -1.1903    7.1592   -8.1906 C   0  0  0  0  0  0  0  0  0  0  0  0
   -0.5767    6.5494   -6.6928 S   0  0  0  0  0  0  0  0  0  0  0  0
   -1.5939    6.2280   -9.2792 C   0  0  0  0  0  0  0  0  0  0  0  0
   -0.3654    5.5634   -9.9040 C   0  0  0  0  0  0  0  0  0  0  0  0
    4.9390    6.2869    1.5575 C   0  0  0  0  0  0  0  0  0  0  0  0
    4.2427    4.9456    1.8088 C   0  0  0  0  0  0  0  0  0  0  0  0
    0.6006    0.6100  -10.2353 C   0  0  0  0  0  0  0  0  0  0  0  0
   -1.1591    8.5211   -8.2000 C   0  0  0  0  0  0  0  0  0  0  0  0
   -1.6822    9.4871   -9.5167 Cl  0  0  0  0  0  0  0  0  0  0  0  0
    3.0127    8.6241    2.7359 Cl  0  0  0  0  0  0  0  0  0  0  0  0
    1.2396    9.8723    0.2718 Cl  0  0  0  0  0  0  0  0  0  0  0  0
   -0.4678   10.7730   -6.7534 Cl  0  0  0  0  0  0  0  0  0  0  0  0
   -0.4331   -3.3247    2.2447 C   0  0  0  0  0  0  0  0  0  0  0  0
   -0.5145   -4.6992    2.2683 C   0  0  0  0  0  0  0  0  0  0  0  0
   -0.4192   -5.2458    3.5453 C   0  0  0  0  0  0  0  0  0  0  0  0
   -0.2681   -4.3014    4.5335 C   0  0  0  0  0  0  0  0  0  0  0  0
   -0.2078   -2.6933    3.8440 S   0  0  0  0  0  0  0  0  0  0  0  0
   -0.1340   -4.4320    5.9484 C   0  0  0  0  0  0  0  0  0  0  0  0
    0.6963   -3.1535    6.7779 S   0  0  0  0  0  0  0  0  0  0  0  0
    0.4011   -3.8561    8.3416 C   0  0  0  0  0  0  0  0  0  0  0  0
   -0.2954   -5.0534    8.2130 C   0  0  0  0  0  0  0  0  0  0  0  0
   -0.5687   -5.3941    6.8476 C   0  0  0  0  0  0  0  0  0  0  0  0
   -0.8246   -5.8647    9.3179 C   0  0  0  0  0  0  0  0  0  0  0  0
   -1.2572   -7.2084    8.9274 C   0  0  0  0  0  0  0  0  0  0  0  0
   -1.4434   -7.5762    7.5566 C   0  0  0  0  0  0  0  0  0  0  0  0
   -1.2990   -6.6102    6.4716 C   0  0  0  0  0  0  0  0  0  0  0  0
   -1.5529   -8.2308    9.7933 C   0  0  0  0  0  0  0  0  0  0  0  0
   -1.9929   -9.6676    8.9287 S   0  0  0  0  0  0  0  0  0  0  0  0
   -1.8425   -8.8783    7.3957 C   0  0  0  0  0  0  0  0  0  0  0  0
    0.9443   -3.1296    9.4453 C   0  0  0  0  0  0  0  0  0  0  0  0
    0.9345   -3.3612   10.8015 C   0  0  0  0  0  0  0  0  0  0  0  0
    1.5955   -2.3657   11.5352 C   0  0  0  0  0  0  0  0  0  0  0  0
    1.7998   -1.6426    9.0919 S   0  0  0  0  0  0  0  0  0  0  0  0
   -0.9238   -5.4568   10.4662 O   0  0  0  0  0  0  0  0  0  0  0  0
   -1.7665   -6.8036    5.3583 O   0  0  0  0  0  0  0  0  0  0  0  0
   -1.5264   -8.2559   11.2796 C   0  0  0  0  0  0  0  0  0  0  0  0
   -2.7825   -8.9075   11.8553 C   0  0  0  0  0  0  0  0  0  0  0  0
   -2.0722   -9.6410    6.1429 C   0  0  0  0  0  0  0  0  0  0  0  0
   -1.1294  -10.8392    6.0308 C   0  0  0  0  0  0  0  0  0  0  0  0
   -0.5115   -2.5041    1.0840 C   0  0  0  0  0  0  0  0  0  0  0  0
   -0.0858   -1.2112    0.8888 C   0  0  0  0  0  0  0  0  0  0  0  0
   -0.2350   -0.8189   -0.4480 C   0  0  0  0  0  0  0  0  0  0  0  0
   -0.8238   -1.7817   -1.2561 C   0  0  0  0  0  0  0  0  0  0  0  0
   -1.1721   -3.2180   -0.3738 S   0  0  0  0  0  0  0  0  0  0  0  0
    0.2789    0.5716   -1.3627 S   0  0  0  0  0  0  0  0  0  0  0  0
   -0.2305   -0.2020   -2.8540 C   0  0  0  0  0  0  0  0  0  0  0  0
   -0.8628   -1.4506   -2.6310 C   0  0  0  0  0  0  0  0  0  0  0  0
    0.0292    0.2702   -4.1336 C   0  0  0  0  0  0  0  0  0  0  0  0
   -0.4070   -0.5220   -5.2104 C   0  0  0  0  0  0  0  0  0  0  0  0
   -1.0753   -1.7524   -4.9806 C   0  0  0  0  0  0  0  0  0  0  0  0
   -1.3203   -2.2301   -3.7020 C   0  0  0  0  0  0  0  0  0  0  0  0
   -0.2839   -0.2962   -6.6037 C   0  0  0  0  0  0  0  0  0  0  0  0
   -0.7930   -1.3114   -7.4048 C   0  0  0  0  0  0  0  0  0  0  0  0
   -1.5123   -2.5833   -6.4601 S   0  0  0  0  0  0  0  0  0  0  0  0
    0.3825    0.9634   -7.5649 S   0  0  0  0  0  0  0  0  0  0  0  0
    0.0595    0.0632   -9.0340 C   0  0  0  0  0  0  0  0  0  0  0  0
   -0.5910   -1.1223   -8.7801 C   0  0  0  0  0  0  0  0  0  0  0  0
    0.8011    1.4857   -4.3549 C   0  0  0  0  0  0  0  0  0  0  0  0
   -2.0256   -3.4816   -3.4576 C   0  0  0  0  0  0  0  0  0  0  0  0
    0.5569    2.7578   -3.9206 C   0  0  0  0  0  0  0  0  0  0  0  0
    1.5465    3.6865   -4.3368 C   0  0  0  0  0  0  0  0  0  0  0  0
    2.5519    3.1334   -5.0706 C   0  0  0  0  0  0  0  0  0  0  0  0
    2.3055    1.4322   -5.2293 S   0  0  0  0  0  0  0  0  0  0  0  0
   -1.6712   -4.7504   -3.8124 C   0  0  0  0  0  0  0  0  0  0  0  0
   -3.7003   -5.2130   -2.7608 C   0  0  0  0  0  0  0  0  0  0  0  0
   -3.5552   -3.4935   -2.6307 S   0  0  0  0  0  0  0  0  0  0  0  0
   -4.9130   -5.9234   -2.2704 C   0  0  0  0  0  0  0  0  0  0  0  0
   -6.0399   -5.8540   -3.3032 C   0  0  0  0  0  0  0  0  0  0  0  0
    3.6706    3.8420   -5.7511 C   0  0  0  0  0  0  0  0  0  0  0  0
    3.1789    4.4962   -7.0466 C   0  0  0  0  0  0  0  0  0  0  0  0
    2.1082   -1.3779   10.7490 C   0  0  0  0  0  0  0  0  0  0  0  0
   -2.6225   -5.7296   -3.4150 C   0  0  0  0  0  0  0  0  0  0  0  0
   -2.4058   -7.4008   -3.7310 Cl  0  0  0  0  0  0  0  0  0  0  0  0
    1.4855    5.3522   -3.9447 Cl  0  0  0  0  0  0  0  0  0  0  0  0
   -0.8280    3.2251   -3.0309 Cl  0  0  0  0  0  0  0  0  0  0  0  0
   -0.2050   -5.1414   -4.6062 Cl  0  0  0  0  0  0  0  0  0  0  0  0
   -2.0065   -2.0786    9.8022 H   0  0  0  0  0  0  0  0  0  0  0  0
   -0.7600    0.0832    9.1226 H   0  0  0  0  0  0  0  0  0  0  0  0
   -2.4261    1.5700    2.3519 H   0  0  0  0  0  0  0  0  0  0  0  0
   -2.7390    3.0707    0.2698 H   0  0  0  0  0  0  0  0  0  0  0  0
    2.5300    6.2804    5.1397 H   0  0  0  0  0  0  0  0  0  0  0  0
    3.9411    5.3536    4.6983 H   0  0  0  0  0  0  0  0  0  0  0  0
    3.8683    7.4169    6.9619 H   0  0  0  0  0  0  0  0  0  0  0  0
    4.5552    7.6764    5.3586 H   0  0  0  0  0  0  0  0  0  0  0  0
    5.2924    6.5048    6.4562 H   0  0  0  0  0  0  0  0  0  0  0  0
    2.2025    2.1785   10.1744 H   0  0  0  0  0  0  0  0  0  0  0  0
    3.3931    3.4386   10.5880 H   0  0  0  0  0  0  0  0  0  0  0  0
    3.9506    0.8443    9.0682 H   0  0  0  0  0  0  0  0  0  0  0  0
    4.4624    1.2202   10.7205 H   0  0  0  0  0  0  0  0  0  0  0  0
    5.1516    2.1103    9.3619 H   0  0  0  0  0  0  0  0  0  0  0  0
   -3.3559   -4.2216    9.7722 H   0  0  0  0  0  0  0  0  0  0  0  0
   -8.1991  -13.6721    4.9633 H   0  0  0  0  0  0  0  0  0  0  0  0
   -7.5100  -12.2273    2.8829 H   0  0  0  0  0  0  0  0  0  0  0  0
   -3.9532   -3.8275    0.4252 H   0  0  0  0  0  0  0  0  0  0  0  0
   -5.6009   -3.5630    1.0213 H   0  0  0  0  0  0  0  0  0  0  0  0
   -4.7230   -2.3411    2.9899 H   0  0  0  0  0  0  0  0  0  0  0  0
   -3.0690   -2.6312    2.4583 H   0  0  0  0  0  0  0  0  0  0  0  0
   -4.1337   -1.6048    1.4929 H   0  0  0  0  0  0  0  0  0  0  0  0
   -7.8786  -10.6270   12.2760 H   0  0  0  0  0  0  0  0  0  0  0  0
   -7.0063  -12.1688   12.3719 H   0  0  0  0  0  0  0  0  0  0  0  0
   -4.9807  -10.9694   13.1897 H   0  0  0  0  0  0  0  0  0  0  0  0
   -6.3647  -10.6560   14.2418 H   0  0  0  0  0  0  0  0  0  0  0  0
   -5.8395   -9.4307   13.0810 H   0  0  0  0  0  0  0  0  0  0  0  0
    6.5936    8.5136   -9.5013 H   0  0  0  0  0  0  0  0  0  0  0  0
    6.5550    6.8943  -11.5255 H   0  0  0  0  0  0  0  0  0  0  0  0
    1.6677    0.6928  -13.4012 H   0  0  0  0  0  0  0  0  0  0  0  0
    0.2734   -0.8168  -11.8255 H   0  0  0  0  0  0  0  0  0  0  0  0
    5.7395    0.5211  -17.4354 H   0  0  0  0  0  0  0  0  0  0  0  0
    4.6434    0.3531  -16.0409 H   0  0  0  0  0  0  0  0  0  0  0  0
    2.9434    1.7239  -17.1627 H   0  0  0  0  0  0  0  0  0  0  0  0
    3.3922    0.3632  -18.1939 H   0  0  0  0  0  0  0  0  0  0  0  0
    4.0137    1.9800  -18.5500 H   0  0  0  0  0  0  0  0  0  0  0  0
    7.2777    6.4174  -15.6367 H   0  0  0  0  0  0  0  0  0  0  0  0
    8.0199    5.6416  -17.0590 H   0  0  0  0  0  0  0  0  0  0  0  0
    9.4471    4.2683  -15.5050 H   0  0  0  0  0  0  0  0  0  0  0  0
    8.7164    5.1120  -14.1308 H   0  0  0  0  0  0  0  0  0  0  0  0
    9.7076    6.0038  -15.2878 H   0  0  0  0  0  0  0  0  0  0  0  0
    5.8919    8.8657   -6.6967 H   0  0  0  0  0  0  0  0  0  0  0  0
   -2.7527    5.1042   -1.2187 H   0  0  0  0  0  0  0  0  0  0  0  0
   -2.1376    6.7931  -10.0379 H   0  0  0  0  0  0  0  0  0  0  0  0
   -2.2549    5.4582   -8.8757 H   0  0  0  0  0  0  0  0  0  0  0  0
   -0.6674    4.8988  -10.7089 H   0  0  0  0  0  0  0  0  0  0  0  0
    0.3073    6.3169  -10.3057 H   0  0  0  0  0  0  0  0  0  0  0  0
    0.1735    4.9849   -9.1574 H   0  0  0  0  0  0  0  0  0  0  0  0
    5.8935    6.1137    1.0567 H   0  0  0  0  0  0  0  0  0  0  0  0
    5.1266    6.7928    2.5062 H   0  0  0  0  0  0  0  0  0  0  0  0
    4.0498    4.4424    0.8643 H   0  0  0  0  0  0  0  0  0  0  0  0
    3.2931    5.0916    2.3187 H   0  0  0  0  0  0  0  0  0  0  0  0
    4.8754    4.3050    2.4184 H   0  0  0  0  0  0  0  0  0  0  0  0
   -0.6233   -5.2847    1.3739 H   0  0  0  0  0  0  0  0  0  0  0  0
   -0.4574   -6.2997    3.7387 H   0  0  0  0  0  0  0  0  0  0  0  0
    0.4515   -4.2076   11.2492 H   0  0  0  0  0  0  0  0  0  0  0  0
    1.6834   -2.3792   12.6068 H   0  0  0  0  0  0  0  0  0  0  0  0
   -1.4335   -7.2307   11.6384 H   0  0  0  0  0  0  0  0  0  0  0  0
   -0.6464   -8.8165   11.6121 H   0  0  0  0  0  0  0  0  0  0  0  0
   -2.8658   -9.9400   11.5207 H   0  0  0  0  0  0  0  0  0  0  0  0
   -2.7439   -8.8956   12.9413 H   0  0  0  0  0  0  0  0  0  0  0  0
   -3.6692   -8.3677   11.5308 H   0  0  0  0  0  0  0  0  0  0  0  0
   -1.9315   -8.9670    5.2986 H   0  0  0  0  0  0  0  0  0  0  0  0
   -3.1050   -9.9987    6.1221 H   0  0  0  0  0  0  0  0  0  0  0  0
   -0.0921  -10.5114    6.0489 H   0  0  0  0  0  0  0  0  0  0  0  0
   -1.3109  -11.3641    5.0965 H   0  0  0  0  0  0  0  0  0  0  0  0
   -1.2902  -11.5311    6.8551 H   0  0  0  0  0  0  0  0  0  0  0  0
    0.3468   -0.6057    1.6639 H   0  0  0  0  0  0  0  0  0  0  0  0
   -0.8867   -1.8225   -9.5385 H   0  0  0  0  0  0  0  0  0  0  0  0
   -4.6534   -6.9659   -2.0798 H   0  0  0  0  0  0  0  0  0  0  0  0
   -5.2481   -5.4711   -1.3355 H   0  0  0  0  0  0  0  0  0  0  0  0
   -5.7251   -6.3134   -4.2367 H   0  0  0  0  0  0  0  0  0  0  0  0
   -6.9160   -6.3800   -2.9338 H   0  0  0  0  0  0  0  0  0  0  0  0
   -6.3089   -4.8186   -3.4985 H   0  0  0  0  0  0  0  0  0  0  0  0
    4.0636    4.6121   -5.0832 H   0  0  0  0  0  0  0  0  0  0  0  0
    4.4674    3.1324   -5.9763 H   0  0  0  0  0  0  0  0  0  0  0  0
    2.3925    5.2160   -6.8335 H   0  0  0  0  0  0  0  0  0  0  0  0
    2.7833    3.7452   -7.7265 H   0  0  0  0  0  0  0  0  0  0  0  0
    3.9994    5.0132   -7.5371 H   0  0  0  0  0  0  0  0  0  0  0  0
    2.6440   -0.5004   11.0499 H   0  0  0  0  0  0  0  0  0  0  0  0
  1  2  2  0  0  0  0
  2  3  1  0  0  0  0
  3  4  2  0  0  0  0
  4  5  1  0  0  0  0
  5  1  1  0  0  0  0
  4  6  1  0  0  0  0
  6  7  1  0  0  0  0
  7  8  1  0  0  0  0
  8  9  2  0  0  0  0
  9 10  1  0  0  0  0
 10  6  2  0  0  0  0
  9 11  1  0  0  0  0
 11 12  1  0  0  0  0
 12 13  1  0  0  0  0
 13 14  1  0  0  0  0
 14 10  1  0  0  0  0
 12 15  2  0  0  0  0
 15 16  1  0  0  0  0
 16 17  1  0  0  0  0
 17 13  2  0  0  0  0
  8 18  1  0  0  0  0
 18 19  2  0  0  0  0
 19 20  1  0  0  0  0
 20 59  2  0  0  0  0
 59 21  1  0  0  0  0
 21 18  1  0  0  0  0
 11 22  2  0  0  0  0
 14 23  2  0  0  0  0
 15 24  1  0  0  0  0
 24 25  1  0  0  0  0
 17 26  1  0  0  0  0
 26 27  1  0  0  0  0
  1 28  1  0  0  0  0
 28 29  2  0  0  0  0
 29 30  1  0  0  0  0
 30 31  2  0  0  0  0
 31 32  1  0  0  0  0
 32 28  1  0  0  0  0
 30 33  1  0  0  0  0
 33 34  1  0  0  0  0
 34 35  2  0  0  0  0
 35 31  1  0  0  0  0
 34 36  1  0  0  0  0
 36 37  2  0  0  0  0
 37 38  1  0  0  0  0
 38 39  2  0  0  0  0
 39 35  1  0  0  0  0
 37 40  1  0  0  0  0
 40 41  2  0  0  0  0
 41 42  1  0  0  0  0
 42 38  1  0  0  0  0
 40 43  1  0  0  0  0
 43 44  1  0  0  0  0
 44 45  2  0  0  0  0
 45 41  1  0  0  0  0
 36 46  1  0  0  0  0
 39 47  1  0  0  0  0
 46 48  2  0  0  0  0
 48 49  1  0  0  0  0
 49 50  2  0  0  0  0
 50 51  1  0  0  0  0
 51 46  1  0  0  0  0
 47 52  2  0  0  0  0
 52 60  1  0  0  0  0
 60 53  2  0  0  0  0
 53 54  1  0  0  0  0
 54 47  1  0  0  0  0
 53 55  1  0  0  0  0
 55 56  1  0  0  0  0
 50 57  1  0  0  0  0
 57 58  1  0  0  0  0
 60 61  1  0  0  0  0
 49 62  1  0  0  0  0
 48 63  1  0  0  0  0
 52 64  1  0  0  0  0
 65 66  2  0  0  0  0
 66 67  1  0  0  0  0
 67 68  2  0  0  0  0
 68 69  1  0  0  0  0
 69 65  1  0  0  0  0
 68 70  1  0  0  0  0
 70 71  1  0  0  0  0
 71 72  1  0  0  0  0
 72 73  2  0  0  0  0
 73 74  1  0  0  0  0
 74 70  2  0  0  0  0
 73 75  1  0  0  0  0
 75 76  1  0  0  0  0
 76 77  1  0  0  0  0
 77 78  1  0  0  0  0
 78 74  1  0  0  0  0
 76 79  2  0  0  0  0
 79 80  1  0  0  0  0
 80 81  1  0  0  0  0
 81 77  2  0  0  0  0
 72 82  1  0  0  0  0
 82 83  2  0  0  0  0
 83 84  1  0  0  0  0
 84123  2  0  0  0  0
123 85  1  0  0  0  0
 85 82  1  0  0  0  0
 75 86  2  0  0  0  0
 78 87  2  0  0  0  0
 79 88  1  0  0  0  0
 88 89  1  0  0  0  0
 81 90  1  0  0  0  0
 90 91  1  0  0  0  0
 65 92  1  0  0  0  0
 92 93  2  0  0  0  0
 93 94  1  0  0  0  0
 94 95  2  0  0  0  0
 95 96  1  0  0  0  0
 96 92  1  0  0  0  0
 94 97  1  0  0  0  0
 97 98  1  0  0  0  0
 98 99  2  0  0  0  0
 99 95  1  0  0  0  0
 98100  1  0  0  0  0
100101  2  0  0  0  0
101102  1  0  0  0  0
102103  2  0  0  0  0
103 99  1  0  0  0  0
101104  1  0  0  0  0
104105  2  0  0  0  0
105106  1  0  0  0  0
106102  1  0  0  0  0
104107  1  0  0  0  0
107108  1  0  0  0  0
108109  2  0  0  0  0
109105  1  0  0  0  0
100110  1  0  0  0  0
103111  1  0  0  0  0
110112  2  0  0  0  0
112113  1  0  0  0  0
113114  2  0  0  0  0
114115  1  0  0  0  0
115110  1  0  0  0  0
111116  2  0  0  0  0
116124  1  0  0  0  0
124117  2  0  0  0  0
117118  1  0  0  0  0
118111  1  0  0  0  0
117119  1  0  0  0  0
119120  1  0  0  0  0
114121  1  0  0  0  0
121122  1  0  0  0  0
124125  1  0  0  0  0
113126  1  0  0  0  0
112127  1  0  0  0  0
116128  1  0  0  0  0
129130  2  0  0  0  0
130131  1  0  0  0  0
131132  2  0  0  0  0
132133  1  0  0  0  0
133129  1  0  0  0  0
132134  1  0  0  0  0
134135  1  0  0  0  0
135136  1  0  0  0  0
136137  2  0  0  0  0
137138  1  0  0  0  0
138134  2  0  0  0  0
137139  1  0  0  0  0
139140  1  0  0  0  0
140141  1  0  0  0  0
141142  1  0  0  0  0
142138  1  0  0  0  0
140143  2  0  0  0  0
143144  1  0  0  0  0
144145  1  0  0  0  0
145141  2  0  0  0  0
136146  1  0  0  0  0
146147  2  0  0  0  0
147148  1  0  0  0  0
148187  2  0  0  0  0
187149  1  0  0  0  0
149146  1  0  0  0  0
139150  2  0  0  0  0
142151  2  0  0  0  0
143152  1  0  0  0  0
152153  1  0  0  0  0
145154  1  0  0  0  0
154155  1  0  0  0  0
129156  1  0  0  0  0
156157  2  0  0  0  0
157158  1  0  0  0  0
158159  2  0  0  0  0
159160  1  0  0  0  0
160156  1  0  0  0  0
158161  1  0  0  0  0
161162  1  0  0  0  0
162163  2  0  0  0  0
163159  1  0  0  0  0
162164  1  0  0  0  0
164165  2  0  0  0  0
165166  1  0  0  0  0
166167  2  0  0  0  0
167163  1  0  0  0  0
165168  1  0  0  0  0
168169  2  0  0  0  0
169170  1  0  0  0  0
170166  1  0  0  0  0
168171  1  0  0  0  0
171172  1  0  0  0  0
172173  2  0  0  0  0
173169  1  0  0  0  0
164174  1  0  0  0  0
167175  1  0  0  0  0
174176  2  0  0  0  0
176177  1  0  0  0  0
177178  2  0  0  0  0
178179  1  0  0  0  0
179174  1  0  0  0  0
175180  2  0  0  0  0
180188  1  0  0  0  0
188181  2  0  0  0  0
181182  1  0  0  0  0
182175  1  0  0  0  0
181183  1  0  0  0  0
183184  1  0  0  0  0
178185  1  0  0  0  0
185186  1  0  0  0  0
188189  1  0  0  0  0
177190  1  0  0  0  0
176191  1  0  0  0  0
180192  1  0  0  0  0
 59108  1  0  0  0  0
123172  1  0  0  0  0
  2193  1  0  0  0  0
  3194  1  0  0  0  0
 19195  1  0  0  0  0
 20196  1  0  0  0  0
 24197  1  0  0  0  0
 24198  1  0  0  0  0
 25199  1  0  0  0  0
 25200  1  0  0  0  0
 25201  1  0  0  0  0
 26202  1  0  0  0  0
 26203  1  0  0  0  0
 27204  1  0  0  0  0
 27205  1  0  0  0  0
 27206  1  0  0  0  0
 29207  1  0  0  0  0
 44208  1  0  0  0  0
 45209  1  0  0  0  0
 55210  1  0  0  0  0
 55211  1  0  0  0  0
 56212  1  0  0  0  0
 56213  1  0  0  0  0
 56214  1  0  0  0  0
 57215  1  0  0  0  0
 57216  1  0  0  0  0
 58217  1  0  0  0  0
 58218  1  0  0  0  0
 58219  1  0  0  0  0
 66220  1  0  0  0  0
 67221  1  0  0  0  0
 83222  1  0  0  0  0
 84223  1  0  0  0  0
 88224  1  0  0  0  0
 88225  1  0  0  0  0
 89226  1  0  0  0  0
 89227  1  0  0  0  0
 89228  1  0  0  0  0
 90229  1  0  0  0  0
 90230  1  0  0  0  0
 91231  1  0  0  0  0
 91232  1  0  0  0  0
 91233  1  0  0  0  0
 93234  1  0  0  0  0
109235  1  0  0  0  0
119236  1  0  0  0  0
119237  1  0  0  0  0
120238  1  0  0  0  0
120239  1  0  0  0  0
120240  1  0  0  0  0
121241  1  0  0  0  0
121242  1  0  0  0  0
122243  1  0  0  0  0
122244  1  0  0  0  0
122245  1  0  0  0  0
130246  1  0  0  0  0
131247  1  0  0  0  0
147248  1  0  0  0  0
148249  1  0  0  0  0
152250  1  0  0  0  0
152251  1  0  0  0  0
153252  1  0  0  0  0
153253  1  0  0  0  0
153254  1  0  0  0  0
154255  1  0  0  0  0
154256  1  0  0  0  0
155257  1  0  0  0  0
155258  1  0  0  0  0
155259  1  0  0  0  0
157260  1  0  0  0  0
173261  1  0  0  0  0
183262  1  0  0  0  0
183263  1  0  0  0  0
184264  1  0  0  0  0
184265  1  0  0  0  0
184266  1  0  0  0  0
185267  1  0  0  0  0
185268  1  0  0  0  0
186269  1  0  0  0  0
186270  1  0  0  0  0
186271  1  0  0  0  0
187272  1  0  0  0  0
M  END
