
     RDKit          3D

 22 23  0  0  0  0  0  0  0  0999 V2000
    1.0253   -0.6252    3.8882 C   0  0  0  0  0  0  0  0  0  0  0  0
    0.5354   -0.4001    2.6651 C   0  0  0  0  0  0  0  0  0  0  0  0
   -0.5296   -1.2018    2.0703 C   0  0  0  0  0  0  0  0  0  0  0  0
   -1.2279   -2.0669    2.6638 O   0  0  0  0  0  0  0  0  0  0  0  0
   -0.6120   -0.8735    0.6646 C   0  0  0  0  0  0  0  0  0  0  0  0
   -1.4296   -1.4511   -0.3070 C   0  0  0  0  0  0  0  0  0  0  0  0
   -1.2894   -1.0271   -1.6344 C   0  0  0  0  0  0  0  0  0  0  0  0
   -0.3295   -0.0570   -1.9686 C   0  0  0  0  0  0  0  0  0  0  0  0
    0.4891    0.5085   -0.9772 C   0  0  0  0  0  0  0  0  0  0  0  0
    0.3231    0.1049    0.3591 C   0  0  0  0  0  0  0  0  0  0  0  0
    1.0413    0.5216    1.6018 C   0  0  0  0  0  0  0  0  0  0  0  0
    1.8316    1.6147    1.7673 C   0  0  0  0  0  0  0  0  0  0  0  0
    2.3080    2.0377    3.0583 C   0  0  0  0  0  0  0  0  0  0  0  0
    2.6942    2.3916    4.0908 N   0  0  0  0  0  0  0  0  0  0  0  0
    2.1658    2.5041    0.6865 C   0  0  0  0  0  0  0  0  0  0  0  0
    2.4430    3.2323   -0.1698 N   0  0  0  0  0  0  0  0  0  0  0  0
    0.5745   -1.3754    4.5254 H   0  0  0  0  0  0  0  0  0  0  0  0
    1.9027   -0.1299    4.2661 H   0  0  0  0  0  0  0  0  0  0  0  0
   -2.1483   -2.2173   -0.0464 H   0  0  0  0  0  0  0  0  0  0  0  0
   -1.9105   -1.4607   -2.4074 H   0  0  0  0  0  0  0  0  0  0  0  0
   -0.2123    0.2481   -3.0005 H   0  0  0  0  0  0  0  0  0  0  0  0
    1.2416    1.2151   -1.2797 H   0  0  0  0  0  0  0  0  0  0  0  0
  1  2  2  3
  2  3  1  0
  3  4  2  0
  3  5  1  0
  5  6  2  0
  6  7  1  0
  7  8  2  0
  8  9  1  0
  9 10  2  0
 10 11  1  0
 11 12  2  3
 12 13  1  0
 13 14  3  0
 12 15  1  0
 15 16  3  0
 11  2  1  0
 10  5  1  0
  1 17  1  0
  1 18  1  0
  6 19  1  0
  7 20  1  0
  8 21  1  0
  9 22  1  0
M  END

