
     RDKit          3D

 26 26  0  0  0  0  0  0  0  0999 V2000
    3.2216    0.8377    1.1065 C   0  0  0  0  0  0  0  0  0  0  0  0
    1.9495    0.4138    1.0832 C   0  0  0  0  0  0  0  0  0  0  0  0
    1.5660   -0.8651    1.7113 C   0  0  0  0  0  0  0  0  0  0  0  0
    2.4381   -1.5539    2.3116 O   0  0  0  0  0  0  0  0  0  0  0  0
    0.2041   -1.3327    1.6422 N   0  0  0  0  0  0  0  0  0  0  0  0
   -0.1587   -2.5748    2.3491 C   0  0  0  0  0  0  0  0  0  0  0  0
    0.1332   -3.7950    1.4805 C   0  0  0  0  0  0  0  0  0  0  0  0
   -0.7653   -0.6045    0.8477 C   0  0  0  0  0  0  0  0  0  0  0  0
   -2.1864   -1.3270    0.4146 S   0  0  0  0  0  0  0  0  0  0  0  0
   -0.4611    0.7330    0.3788 N   0  0  0  0  0  0  0  0  0  0  0  0
   -1.5028    1.5989   -0.2037 C   0  0  0  0  0  0  0  0  0  0  0  0
   -1.5520    1.4383   -1.7204 C   0  0  0  0  0  0  0  0  0  0  0  0
    0.8950    1.2185    0.4369 C   0  0  0  0  0  0  0  0  0  0  0  0
    1.1846    2.3388   -0.0693 O   0  0  0  0  0  0  0  0  0  0  0  0
    4.0025    0.2561    1.5799 H   0  0  0  0  0  0  0  0  0  0  0  0
    3.5133    1.7754    0.6507 H   0  0  0  0  0  0  0  0  0  0  0  0
    0.4110   -2.6586    3.3000 H   0  0  0  0  0  0  0  0  0  0  0  0
   -1.2302   -2.5677    2.6410 H   0  0  0  0  0  0  0  0  0  0  0  0
   -0.1510   -4.7184    2.0276 H   0  0  0  0  0  0  0  0  0  0  0  0
   -0.4478   -3.7470    0.5361 H   0  0  0  0  0  0  0  0  0  0  0  0
    1.2155   -3.8435    1.2374 H   0  0  0  0  0  0  0  0  0  0  0  0
   -2.4986    1.3710    0.2319 H   0  0  0  0  0  0  0  0  0  0  0  0
   -1.3030    2.6640    0.0445 H   0  0  0  0  0  0  0  0  0  0  0  0
   -0.5780    1.7258   -2.1690 H   0  0  0  0  0  0  0  0  0  0  0  0
   -1.7789    0.3864   -1.9920 H   0  0  0  0  0  0  0  0  0  0  0  0
   -2.3446    2.0936   -2.1389 H   0  0  0  0  0  0  0  0  0  0  0  0
  1  2  2  3
  2  3  1  0
  3  4  2  0
  3  5  1  0
  5  6  1  0
  6  7  1  0
  5  8  1  0
  8  9  2  0
  8 10  1  0
 10 11  1  0
 11 12  1  0
 10 13  1  0
 13 14  2  0
 13  2  1  0
  1 15  1  0
  1 16  1  0
  6 17  1  0
  6 18  1  0
  7 19  1  0
  7 20  1  0
  7 21  1  0
 11 22  1  0
 11 23  1  0
 12 24  1  0
 12 25  1  0
 12 26  1  0
M  END

