
     RDKit          3D

 35 37  0  0  0  0  0  0  0  0999 V2000
   -0.7535   -1.2476    3.2733 C   0  0  0  0  0  0  0  0  0  0  0  0
    0.2562   -1.6304    2.1873 C   0  0  0  0  0  0  0  0  0  0  0  0
   -0.0370   -1.1003    0.7454 C   0  0  0  0  0  0  0  0  0  0  0  0
   -0.9141   -2.0527   -0.1253 C   0  0  0  0  0  0  0  0  0  0  0  0
   -2.2314   -2.5201    0.4925 C   0  0  0  0  0  0  0  0  0  0  0  0
    1.2972   -0.9354    0.0298 C   0  0  0  0  0  0  0  0  0  0  0  0
    2.2594   -1.9219   -0.2277 C   0  0  0  0  0  0  0  0  0  0  0  0
    3.4406   -1.5610   -0.8957 C   0  0  0  0  0  0  0  0  0  0  0  0
    3.6539   -0.2282   -1.2935 C   0  0  0  0  0  0  0  0  0  0  0  0
    2.6892    0.7538   -1.0233 C   0  0  0  0  0  0  0  0  0  0  0  0
    1.5229    0.3707   -0.3587 C   0  0  0  0  0  0  0  0  0  0  0  0
    0.3935    1.1686    0.0488 C   0  0  0  0  0  0  0  0  0  0  0  0
    0.1667    2.5317   -0.1472 C   0  0  0  0  0  0  0  0  0  0  0  0
   -1.0331    3.0814    0.3225 C   0  0  0  0  0  0  0  0  0  0  0  0
   -1.9787    2.2676    0.9694 C   0  0  0  0  0  0  0  0  0  0  0  0
   -1.7322    0.8978    1.1534 C   0  0  0  0  0  0  0  0  0  0  0  0
   -0.5235    0.3507    0.6928 C   0  0  0  0  0  0  0  0  0  0  0  0
   -1.7867   -1.5340    3.0032 H   0  0  0  0  0  0  0  0  0  0  0  0
   -0.7088   -0.1575    3.4769 H   0  0  0  0  0  0  0  0  0  0  0  0
   -0.4908   -1.7741    4.2151 H   0  0  0  0  0  0  0  0  0  0  0  0
    0.3453   -2.7383    2.1584 H   0  0  0  0  0  0  0  0  0  0  0  0
    1.2424   -1.2486    2.5361 H   0  0  0  0  0  0  0  0  0  0  0  0
   -0.3345   -2.9707   -0.3658 H   0  0  0  0  0  0  0  0  0  0  0  0
   -1.1414   -1.5575   -1.0957 H   0  0  0  0  0  0  0  0  0  0  0  0
   -2.8929   -1.6691    0.7353 H   0  0  0  0  0  0  0  0  0  0  0  0
   -2.7673   -3.1569   -0.2427 H   0  0  0  0  0  0  0  0  0  0  0  0
   -2.0459   -3.1409    1.3925 H   0  0  0  0  0  0  0  0  0  0  0  0
    2.1011   -2.9456    0.0852 H   0  0  0  0  0  0  0  0  0  0  0  0
    4.1920   -2.3116   -1.1032 H   0  0  0  0  0  0  0  0  0  0  0  0
    4.5678    0.0414   -1.8067 H   0  0  0  0  0  0  0  0  0  0  0  0
    2.8521    1.7808   -1.3220 H   0  0  0  0  0  0  0  0  0  0  0  0
    0.8937    3.1531   -0.6531 H   0  0  0  0  0  0  0  0  0  0  0  0
   -1.2338    4.1358    0.1837 H   0  0  0  0  0  0  0  0  0  0  0  0
   -2.9037    2.7001    1.3281 H   0  0  0  0  0  0  0  0  0  0  0  0
   -2.4706    0.2977    1.6600 H   0  0  0  0  0  0  0  0  0  0  0  0
  1  2  1  0
  2  3  1  0
  3  4  1  0
  4  5  1  0
  3  6  1  0
  6  7  2  0
  7  8  1  0
  8  9  2  0
  9 10  1  0
 10 11  2  0
 11 12  1  0
 12 13  2  0
 13 14  1  0
 14 15  2  0
 15 16  1  0
 16 17  2  0
 17  3  1  0
 11  6  1  0
 17 12  1  0
  1 18  1  0
  1 19  1  0
  1 20  1  0
  2 21  1  0
  2 22  1  0
  4 23  1  0
  4 24  1  0
  5 25  1  0
  5 26  1  0
  5 27  1  0
  7 28  1  0
  8 29  1  0
  9 30  1  0
 10 31  1  0
 13 32  1  0
 14 33  1  0
 15 34  1  0
 16 35  1  0
M  END

