
     RDKit          3D

 50 53  0  0  0  0  0  0  0  0999 V2000
    2.1217   -3.2894    5.6592 C   0  0  0  0  0  0  0  0  0  0  0  0
    3.4803   -3.1140    4.9875 C   0  0  0  0  0  0  0  0  0  0  0  0
    3.3405   -3.0283    3.5695 O   0  0  0  0  0  0  0  0  0  0  0  0
    2.7911   -1.9599    2.8365 C   0  0  0  0  0  0  0  0  0  0  0  0
    2.5188   -2.1855    1.4801 C   0  0  0  0  0  0  0  0  0  0  0  0
    2.7927   -3.3937    0.9273 F   0  0  0  0  0  0  0  0  0  0  0  0
    1.9622   -1.1804    0.6861 C   0  0  0  0  0  0  0  0  0  0  0  0
    1.6564    0.0722    1.2383 C   0  0  0  0  0  0  0  0  0  0  0  0
    1.0686    1.1468    0.4075 C   0  0  0  0  0  0  0  0  0  0  0  0
    1.6619    2.3723    0.4293 N   0  0  0  0  0  0  0  0  0  0  0  0
    1.2283    3.3919   -0.3542 C   0  0  0  0  0  0  0  0  0  0  0  0
    1.8599    4.6397   -0.3165 C   0  0  0  0  0  0  0  0  0  0  0  0
    1.4065    5.6751   -1.1422 C   0  0  0  0  0  0  0  0  0  0  0  0
    2.0190    6.8844   -1.1057 F   0  0  0  0  0  0  0  0  0  0  0  0
    0.3233    5.4633   -2.0055 C   0  0  0  0  0  0  0  0  0  0  0  0
   -0.1145    6.4677   -2.8043 F   0  0  0  0  0  0  0  0  0  0  0  0
   -0.3103    4.2157   -2.0449 C   0  0  0  0  0  0  0  0  0  0  0  0
    0.1410    3.1794   -1.2204 C   0  0  0  0  0  0  0  0  0  0  0  0
   -0.4689    1.9673   -1.2351 N   0  0  0  0  0  0  0  0  0  0  0  0
   -0.0534    0.9439   -0.4386 C   0  0  0  0  0  0  0  0  0  0  0  0
   -0.8264   -0.3183   -0.4646 C   0  0  0  0  0  0  0  0  0  0  0  0
   -1.2709   -0.9173    0.7232 C   0  0  0  0  0  0  0  0  0  0  0  0
   -2.0048   -2.1049    0.6842 C   0  0  0  0  0  0  0  0  0  0  0  0
   -2.4151   -2.6708    1.8469 F   0  0  0  0  0  0  0  0  0  0  0  0
   -2.3304   -2.7073   -0.5390 C   0  0  0  0  0  0  0  0  0  0  0  0
   -3.0735   -3.9016   -0.4905 O   0  0  0  0  0  0  0  0  0  0  0  0
   -3.6998   -4.5686   -1.5862 C   0  0  0  0  0  0  0  0  0  0  0  0
   -4.9216   -3.7932   -2.0690 C   0  0  0  0  0  0  0  0  0  0  0  0
   -1.8944   -2.0963   -1.7382 C   0  0  0  0  0  0  0  0  0  0  0  0
   -2.1482   -2.6363   -2.9542 F   0  0  0  0  0  0  0  0  0  0  0  0
   -1.1582   -0.9076   -1.6920 C   0  0  0  0  0  0  0  0  0  0  0  0
    1.9580    0.3170    2.5847 C   0  0  0  0  0  0  0  0  0  0  0  0
    2.5163   -0.6853    3.3852 C   0  0  0  0  0  0  0  0  0  0  0  0
    2.7958   -0.3828    4.6756 F   0  0  0  0  0  0  0  0  0  0  0  0
    1.6271   -4.2060    5.2737 H   0  0  0  0  0  0  0  0  0  0  0  0
    1.4656   -2.4178    5.4602 H   0  0  0  0  0  0  0  0  0  0  0  0
    2.2584   -3.3897    6.7564 H   0  0  0  0  0  0  0  0  0  0  0  0
    4.0284   -2.2395    5.3923 H   0  0  0  0  0  0  0  0  0  0  0  0
    4.0955   -4.0090    5.2181 H   0  0  0  0  0  0  0  0  0  0  0  0
    1.7743   -1.3788   -0.3618 H   0  0  0  0  0  0  0  0  0  0  0  0
    2.6992    4.8073    0.3472 H   0  0  0  0  0  0  0  0  0  0  0  0
   -1.1490    4.0574   -2.7117 H   0  0  0  0  0  0  0  0  0  0  0  0
   -1.0555   -0.4619    1.6818 H   0  0  0  0  0  0  0  0  0  0  0  0
   -4.0427   -5.5634   -1.2315 H   0  0  0  0  0  0  0  0  0  0  0  0
   -2.9804   -4.7560   -2.4087 H   0  0  0  0  0  0  0  0  0  0  0  0
   -4.6340   -2.7857   -2.4320 H   0  0  0  0  0  0  0  0  0  0  0  0
   -5.4094   -4.3458   -2.8994 H   0  0  0  0  0  0  0  0  0  0  0  0
   -5.6487   -3.6803   -1.2372 H   0  0  0  0  0  0  0  0  0  0  0  0
   -0.8281   -0.4541   -2.6189 H   0  0  0  0  0  0  0  0  0  0  0  0
    1.7490    1.2865    3.0207 H   0  0  0  0  0  0  0  0  0  0  0  0
  1  2  1  0
  2  3  1  0
  3  4  1  0
  4  5  2  0
  5  6  1  0
  5  7  1  0
  7  8  2  0
  8  9  1  0
  9 10  2  0
 10 11  1  0
 11 12  2  0
 12 13  1  0
 13 14  1  0
 13 15  2  0
 15 16  1  0
 15 17  1  0
 17 18  2  0
 18 19  1  0
 19 20  2  0
 20 21  1  0
 21 22  2  0
 22 23  1  0
 23 24  1  0
 23 25  2  0
 25 26  1  0
 26 27  1  0
 27 28  1  0
 25 29  1  0
 29 30  1  0
 29 31  2  0
  8 32  1  0
 32 33  2  0
 33 34  1  0
 33  4  1  0
 20  9  1  0
 31 21  1  0
 18 11  1  0
  1 35  1  0
  1 36  1  0
  1 37  1  0
  2 38  1  0
  2 39  1  0
  7 40  1  0
 12 41  1  0
 17 42  1  0
 22 43  1  0
 27 44  1  0
 27 45  1  0
 28 46  1  0
 28 47  1  0
 28 48  1  0
 31 49  1  0
 32 50  1  0
M  END

