
     RDKit          3D

 28 30  0  0  0  0  0  0  0  0999 V2000
   -1.6490   -2.4898    2.3206 C   0  0  0  0  0  0  0  0  0  0  0  0
   -1.1065   -1.1027    2.6405 C   0  0  0  0  0  0  0  0  0  0  0  0
   -0.2160   -0.6456    1.5695 N   0  0  0  0  0  0  0  0  0  0  0  0
    1.1168   -0.8752    1.4509 C   0  0  0  0  0  0  0  0  0  0  0  0
    1.9550   -1.5618    2.3359 C   0  0  0  0  0  0  0  0  0  0  0  0
    3.3149   -1.6875    1.9976 C   0  0  0  0  0  0  0  0  0  0  0  0
    3.8102   -1.1388    0.7946 C   0  0  0  0  0  0  0  0  0  0  0  0
    2.9512   -0.4603   -0.0871 C   0  0  0  0  0  0  0  0  0  0  0  0
    1.6097   -0.3471    0.2732 C   0  0  0  0  0  0  0  0  0  0  0  0
    0.5375    0.2218   -0.3754 C   0  0  0  0  0  0  0  0  0  0  0  0
    0.4421    0.8711   -1.6048 C   0  0  0  0  0  0  0  0  0  0  0  0
   -0.8263    1.3215   -2.0100 C   0  0  0  0  0  0  0  0  0  0  0  0
   -1.9571    1.1100   -1.1914 C   0  0  0  0  0  0  0  0  0  0  0  0
   -1.8336    0.4485    0.0442 C   0  0  0  0  0  0  0  0  0  0  0  0
   -0.5621    0.0156    0.4353 C   0  0  0  0  0  0  0  0  0  0  0  0
   -0.8122   -3.2135    2.2234 H   0  0  0  0  0  0  0  0  0  0  0  0
   -2.3215   -2.8258    3.1376 H   0  0  0  0  0  0  0  0  0  0  0  0
   -2.2228   -2.4650    1.3701 H   0  0  0  0  0  0  0  0  0  0  0  0
   -0.5618   -1.1294    3.6077 H   0  0  0  0  0  0  0  0  0  0  0  0
   -1.9505   -0.3926    2.7677 H   0  0  0  0  0  0  0  0  0  0  0  0
    1.5805   -1.9926    3.2543 H   0  0  0  0  0  0  0  0  0  0  0  0
    3.9867   -2.2124    2.6642 H   0  0  0  0  0  0  0  0  0  0  0  0
    4.8582   -1.2458    0.5468 H   0  0  0  0  0  0  0  0  0  0  0  0
    3.3221   -0.0453   -1.0152 H   0  0  0  0  0  0  0  0  0  0  0  0
    1.3116    1.0215   -2.2313 H   0  0  0  0  0  0  0  0  0  0  0  0
   -0.9375    1.8296   -2.9590 H   0  0  0  0  0  0  0  0  0  0  0  0
   -2.9285    1.4571   -1.5188 H   0  0  0  0  0  0  0  0  0  0  0  0
   -2.7054    0.2816    0.6618 H   0  0  0  0  0  0  0  0  0  0  0  0
  1  2  1  0
  2  3  1  0
  3  4  1  0
  4  5  2  0
  5  6  1  0
  6  7  2  0
  7  8  1  0
  8  9  2  0
  9 10  1  0
 10 11  2  0
 11 12  1  0
 12 13  2  0
 13 14  1  0
 14 15  2  0
 15  3  1  0
  9  4  1  0
 15 10  1  0
  1 16  1  0
  1 17  1  0
  1 18  1  0
  2 19  1  0
  2 20  1  0
  5 21  1  0
  6 22  1  0
  7 23  1  0
  8 24  1  0
 11 25  1  0
 12 26  1  0
 13 27  1  0
 14 28  1  0
M  END

