
     RDKit          3D

 19 20  0  0  0  0  0  0  0  0999 V2000
    3.4452    0.0088    1.5537 C   0  0  0  0  0  0  0  0  0  0  0  0
    2.2337   -0.1335    1.0101 C   0  0  0  0  0  0  0  0  0  0  0  0
    1.9949   -0.8189   -0.2732 C   0  0  0  0  0  0  0  0  0  0  0  0
    2.8631   -1.3492   -1.0161 O   0  0  0  0  0  0  0  0  0  0  0  0
    0.5741   -0.7733   -0.5281 C   0  0  0  0  0  0  0  0  0  0  0  0
   -0.2575   -1.2314   -1.5455 C   0  0  0  0  0  0  0  0  0  0  0  0
   -1.5927   -0.9081   -1.2837 C   0  0  0  0  0  0  0  0  0  0  0  0
   -1.6968   -0.0681    0.1948 S   0  0  0  0  0  0  0  0  0  0  0  0
   -0.0436   -0.1244    0.4866 C   0  0  0  0  0  0  0  0  0  0  0  0
    0.9001    0.3300    1.5230 C   0  0  0  0  0  0  0  0  0  0  0  0
    0.5795    1.0036    2.6504 C   0  0  0  0  0  0  0  0  0  0  0  0
   -0.7877    1.3498    2.9458 C   0  0  0  0  0  0  0  0  0  0  0  0
   -1.8843    1.6302    3.1876 N   0  0  0  0  0  0  0  0  0  0  0  0
    1.5566    1.4183    3.6209 C   0  0  0  0  0  0  0  0  0  0  0  0
    2.3310    1.7588    4.4112 N   0  0  0  0  0  0  0  0  0  0  0  0
    4.3162   -0.3891    1.0488 H   0  0  0  0  0  0  0  0  0  0  0  0
    3.6129    0.5088    2.4901 H   0  0  0  0  0  0  0  0  0  0  0  0
    0.0829   -1.7662   -2.4220 H   0  0  0  0  0  0  0  0  0  0  0  0
   -2.4291   -1.1545   -1.9234 H   0  0  0  0  0  0  0  0  0  0  0  0
  1  2  2  3
  2  3  1  0
  3  4  2  0
  3  5  1  0
  5  6  1  0
  6  7  2  0
  7  8  1  0
  8  9  1  0
  9 10  1  0
 10 11  2  3
 11 12  1  0
 12 13  3  0
 11 14  1  0
 14 15  3  0
 10  2  1  0
  9  5  2  0
  1 16  1  0
  1 17  1  0
  6 18  1  0
  7 19  1  0
M  END

