
     RDKit          3D

 19 20  0  0  0  0  0  0  0  0999 V2000
   -1.7716   -0.0498   -0.0009 C   0  0  0  0  0  0  0  0  0  0  0  0
   -0.5111   -0.2766    0.3775 C   0  0  0  0  0  0  0  0  0  0  0  0
    0.1050   -1.6159    0.3867 C   0  0  0  0  0  0  0  0  0  0  0  0
   -0.4444   -2.6992    0.0530 O   0  0  0  0  0  0  0  0  0  0  0  0
    1.4637   -1.4621    0.8512 C   0  0  0  0  0  0  0  0  0  0  0  0
    2.5292   -2.3282    1.0744 C   0  0  0  0  0  0  0  0  0  0  0  0
    3.6421   -1.6226    1.5378 C   0  0  0  0  0  0  0  0  0  0  0  0
    5.1898   -2.3353    1.9399 Cl  0  0  0  0  0  0  0  0  0  0  0  0
    3.2835    0.0372    1.6582 S   0  0  0  0  0  0  0  0  0  0  0  0
    1.7033   -0.1548    1.1161 C   0  0  0  0  0  0  0  0  0  0  0  0
    0.5289    0.6964    0.8553 C   0  0  0  0  0  0  0  0  0  0  0  0
    0.4640    2.0360    1.0258 C   0  0  0  0  0  0  0  0  0  0  0  0
   -0.7196    2.8053    0.7505 C   0  0  0  0  0  0  0  0  0  0  0  0
   -1.6643    3.4383    0.5335 N   0  0  0  0  0  0  0  0  0  0  0  0
    1.6016    2.7807    1.5028 C   0  0  0  0  0  0  0  0  0  0  0  0
    2.5126    3.3834    1.8856 N   0  0  0  0  0  0  0  0  0  0  0  0
   -2.3976   -0.8724   -0.3224 H   0  0  0  0  0  0  0  0  0  0  0  0
   -2.2156    0.9288   -0.0057 H   0  0  0  0  0  0  0  0  0  0  0  0
    2.4991   -3.3973    0.9118 H   0  0  0  0  0  0  0  0  0  0  0  0
  1  2  2  3
  2  3  1  0
  3  4  2  0
  3  5  1  0
  5  6  1  0
  6  7  2  0
  7  8  1  0
  7  9  1  0
  9 10  1  0
 10 11  1  0
 11 12  2  3
 12 13  1  0
 13 14  3  0
 12 15  1  0
 15 16  3  0
 11  2  1  0
 10  5  2  0
  1 17  1  0
  1 18  1  0
  6 19  1  0
M  END

