
     RDKit          3D

 98109  0  0  0  0  0  0  0  0999 V2000
    0.5725    5.2758    4.1943 C   0  0  0  0  0  0  0  0  0  0  0  0
    2.0258    4.8130    4.1938 C   0  0  0  0  0  0  0  0  0  0  0  0
    2.1605    3.4296    3.6126 C   0  0  0  0  0  0  0  0  0  0  0  0
    2.7211    3.2403    2.3408 C   0  0  0  0  0  0  0  0  0  0  0  0
    2.8402    1.9553    1.8052 C   0  0  0  0  0  0  0  0  0  0  0  0
    2.4070    0.8243    2.5319 C   0  0  0  0  0  0  0  0  0  0  0  0
    2.4760   -0.5750    1.9072 C   0  0  0  0  0  0  0  0  0  0  0  0
    2.4141   -1.7272    2.9205 C   0  0  0  0  0  0  0  0  0  0  0  0
    1.5125   -2.8063    2.7850 C   0  0  0  0  0  0  0  0  0  0  0  0
    1.5309   -3.8716    3.6889 C   0  0  0  0  0  0  0  0  0  0  0  0
    2.4469   -3.8887    4.7499 C   0  0  0  0  0  0  0  0  0  0  0  0
    2.5013   -5.0657    5.6854 C   0  0  0  0  0  0  0  0  0  0  0  0
    3.4829   -6.1143    5.1711 C   0  0  0  0  0  0  0  0  0  0  0  0
    3.3532   -2.8291    4.8890 C   0  0  0  0  0  0  0  0  0  0  0  0
    3.3371   -1.7629    3.9853 C   0  0  0  0  0  0  0  0  0  0  0  0
    3.7073   -0.7778    1.0296 C   0  0  0  0  0  0  0  0  0  0  0  0
    3.3946   -1.0455   -0.2843 C   0  0  0  0  0  0  0  0  0  0  0  0
    4.7126   -0.8197   -1.3311 S   0  0  0  0  0  0  0  0  0  0  0  0
    5.7353   -0.4613   -0.0274 C   0  0  0  0  0  0  0  0  0  0  0  0
    7.0500   -0.0183    0.0473 C   0  0  0  0  0  0  0  0  0  0  0  0
    7.3819    0.3388    1.3586 C   0  0  0  0  0  0  0  0  0  0  0  0
    6.0307    0.1308    2.3796 S   0  0  0  0  0  0  0  0  0  0  0  0
    5.0515   -0.4553    1.1561 C   0  0  0  0  0  0  0  0  0  0  0  0
    1.9711   -0.9740   -0.4210 C   0  0  0  0  0  0  0  0  0  0  0  0
    0.8535   -0.8607   -1.6944 S   0  0  0  0  0  0  0  0  0  0  0  0
   -0.3776   -0.4481   -0.5999 C   0  0  0  0  0  0  0  0  0  0  0  0
   -1.7290   -0.1639   -0.7033 C   0  0  0  0  0  0  0  0  0  0  0  0
   -2.2602    0.1374    0.5277 C   0  0  0  0  0  0  0  0  0  0  0  0
   -1.1363    0.0479    1.7966 S   0  0  0  0  0  0  0  0  0  0  0  0
    0.0868   -0.3722    0.6957 C   0  0  0  0  0  0  0  0  0  0  0  0
    1.4328   -0.6768    0.8055 C   0  0  0  0  0  0  0  0  0  0  0  0
   -3.6795    0.2505    0.3856 C   0  0  0  0  0  0  0  0  0  0  0  0
   -5.0418    0.4173    1.3907 S   0  0  0  0  0  0  0  0  0  0  0  0
   -6.0722    0.2162    0.0512 C   0  0  0  0  0  0  0  0  0  0  0  0
   -7.4543    0.1769   -0.0890 C   0  0  0  0  0  0  0  0  0  0  0  0
   -7.8158   -0.0777   -1.4190 C   0  0  0  0  0  0  0  0  0  0  0  0
   -6.4181   -0.2582   -2.3838 S   0  0  0  0  0  0  0  0  0  0  0  0
   -5.3704    0.0015   -1.1039 C   0  0  0  0  0  0  0  0  0  0  0  0
   -3.9981    0.0144   -0.9276 C   0  0  0  0  0  0  0  0  0  0  0  0
   -2.7851   -0.2887   -1.7940 C   0  0  0  0  0  0  0  0  0  0  0  0
   -2.9212   -1.7134   -2.3458 C   0  0  0  0  0  0  0  0  0  0  0  0
   -3.5760   -1.9362   -3.5742 C   0  0  0  0  0  0  0  0  0  0  0  0
   -3.7418   -3.2301   -4.0777 C   0  0  0  0  0  0  0  0  0  0  0  0
   -3.2946   -4.3366   -3.3431 C   0  0  0  0  0  0  0  0  0  0  0  0
   -3.4371   -5.7280   -3.8978 C   0  0  0  0  0  0  0  0  0  0  0  0
   -2.1996   -6.1207   -4.6973 C   0  0  0  0  0  0  0  0  0  0  0  0
   -2.6780   -4.1307   -2.1005 C   0  0  0  0  0  0  0  0  0  0  0  0
   -2.5115   -2.8384   -1.5980 C   0  0  0  0  0  0  0  0  0  0  0  0
   -2.5146    0.7630   -2.8768 C   0  0  0  0  0  0  0  0  0  0  0  0
   -3.1664    2.0149   -2.8922 C   0  0  0  0  0  0  0  0  0  0  0  0
   -2.8908    2.9515   -3.8923 C   0  0  0  0  0  0  0  0  0  0  0  0
   -1.9334    2.6771   -4.8782 C   0  0  0  0  0  0  0  0  0  0  0  0
   -1.6636    3.6679   -5.9797 C   0  0  0  0  0  0  0  0  0  0  0  0
   -2.5554    3.3906   -7.1851 C   0  0  0  0  0  0  0  0  0  0  0  0
   -1.2622    1.4475   -4.8584 C   0  0  0  0  0  0  0  0  0  0  0  0
   -1.5411    0.5078   -3.8644 C   0  0  0  0  0  0  0  0  0  0  0  0
    1.7837    1.0355    3.7789 C   0  0  0  0  0  0  0  0  0  0  0  0
    1.6910    2.3174    4.3238 C   0  0  0  0  0  0  0  0  0  0  0  0
    0.5158    6.3193    4.5731 H   0  0  0  0  0  0  0  0  0  0  0  0
   -0.0383    4.6287    4.8581 H   0  0  0  0  0  0  0  0  0  0  0  0
    0.1544    5.2433    3.1666 H   0  0  0  0  0  0  0  0  0  0  0  0
    2.6271    5.5338    3.6074 H   0  0  0  0  0  0  0  0  0  0  0  0
    2.4224    4.8204    5.2313 H   0  0  0  0  0  0  0  0  0  0  0  0
    3.0655    4.0870    1.7574 H   0  0  0  0  0  0  0  0  0  0  0  0
    3.2624    1.8483    0.8124 H   0  0  0  0  0  0  0  0  0  0  0  0
    0.7937   -2.8464    1.9789 H   0  0  0  0  0  0  0  0  0  0  0  0
    0.8357   -4.6908    3.5561 H   0  0  0  0  0  0  0  0  0  0  0  0
    1.4912   -5.5237    5.7830 H   0  0  0  0  0  0  0  0  0  0  0  0
    2.8161   -4.7344    6.6992 H   0  0  0  0  0  0  0  0  0  0  0  0
    4.5060   -5.6855    5.1019 H   0  0  0  0  0  0  0  0  0  0  0  0
    3.1673   -6.4807    4.1717 H   0  0  0  0  0  0  0  0  0  0  0  0
    3.5027   -6.9759    5.8733 H   0  0  0  0  0  0  0  0  0  0  0  0
    4.0791   -2.8308    5.6952 H   0  0  0  0  0  0  0  0  0  0  0  0
    4.0441   -0.9570    4.1228 H   0  0  0  0  0  0  0  0  0  0  0  0
    7.7120    0.0769   -0.8035 H   0  0  0  0  0  0  0  0  0  0  0  0
    8.3418    0.7282    1.6673 H   0  0  0  0  0  0  0  0  0  0  0  0
   -8.1586    0.3101    0.7232 H   0  0  0  0  0  0  0  0  0  0  0  0
   -8.8340   -0.1633   -1.7771 H   0  0  0  0  0  0  0  0  0  0  0  0
   -3.9557   -1.1068   -4.1553 H   0  0  0  0  0  0  0  0  0  0  0  0
   -4.2316   -3.3660   -5.0344 H   0  0  0  0  0  0  0  0  0  0  0  0
   -3.5858   -6.4553   -3.0698 H   0  0  0  0  0  0  0  0  0  0  0  0
   -4.3332   -5.7882   -4.5528 H   0  0  0  0  0  0  0  0  0  0  0  0
   -1.3000   -6.1017   -4.0459 H   0  0  0  0  0  0  0  0  0  0  0  0
   -2.3260   -7.1482   -5.0981 H   0  0  0  0  0  0  0  0  0  0  0  0
   -2.0509   -5.4215   -5.5480 H   0  0  0  0  0  0  0  0  0  0  0  0
   -2.3267   -4.9735   -1.5183 H   0  0  0  0  0  0  0  0  0  0  0  0
   -2.0679   -2.7278   -0.6177 H   0  0  0  0  0  0  0  0  0  0  0  0
   -3.9034    2.2767   -2.1445 H   0  0  0  0  0  0  0  0  0  0  0  0
   -3.4234    3.8936   -3.8960 H   0  0  0  0  0  0  0  0  0  0  0  0
   -0.5982    3.6091   -6.2933 H   0  0  0  0  0  0  0  0  0  0  0  0
   -1.8479    4.7031   -5.6195 H   0  0  0  0  0  0  0  0  0  0  0  0
   -3.6241    3.4952   -6.9068 H   0  0  0  0  0  0  0  0  0  0  0  0
   -2.3767    2.3632   -7.5695 H   0  0  0  0  0  0  0  0  0  0  0  0
   -2.3269    4.1158   -7.9947 H   0  0  0  0  0  0  0  0  0  0  0  0
   -0.5270    1.2122   -5.6189 H   0  0  0  0  0  0  0  0  0  0  0  0
   -1.0057   -0.4320   -3.8771 H   0  0  0  0  0  0  0  0  0  0  0  0
    1.3695    0.2075    4.3425 H   0  0  0  0  0  0  0  0  0  0  0  0
    1.2369    2.4433    5.2977 H   0  0  0  0  0  0  0  0  0  0  0  0
  1  2  1  0
  2  3  1  0
  3  4  2  0
  4  5  1  0
  5  6  2  0
  6  7  1  0
  7  8  1  0
  8  9  2  0
  9 10  1  0
 10 11  2  0
 11 12  1  0
 12 13  1  0
 11 14  1  0
 14 15  2  0
  7 16  1  0
 16 17  2  0
 17 18  1  0
 18 19  1  0
 19 20  1  0
 20 21  2  0
 21 22  1  0
 22 23  1  0
 17 24  1  0
 24 25  1  0
 25 26  1  0
 26 27  1  0
 27 28  2  0
 28 29  1  0
 29 30  1  0
 30 31  1  0
 28 32  1  0
 32 33  1  0
 33 34  1  0
 34 35  1  0
 35 36  2  0
 36 37  1  0
 37 38  1  0
 38 39  1  0
 39 40  1  0
 40 41  1  0
 41 42  2  0
 42 43  1  0
 43 44  2  0
 44 45  1  0
 45 46  1  0
 44 47  1  0
 47 48  2  0
 40 49  1  0
 49 50  2  0
 50 51  1  0
 51 52  2  0
 52 53  1  0
 53 54  1  0
 52 55  1  0
 55 56  2  0
  6 57  1  0
 57 58  2  0
 58  3  1  0
 31  7  1  0
 39 32  2  0
 48 41  1  0
 56 49  1  0
 15  8  1  0
 23 16  1  0
 31 24  2  0
 38 34  2  0
 23 19  2  0
 30 26  2  0
 40 27  1  0
  1 59  1  0
  1 60  1  0
  1 61  1  0
  2 62  1  0
  2 63  1  0
  4 64  1  0
  5 65  1  0
  9 66  1  0
 10 67  1  0
 12 68  1  0
 12 69  1  0
 13 70  1  0
 13 71  1  0
 13 72  1  0
 14 73  1  0
 15 74  1  0
 20 75  1  0
 21 76  1  0
 35 77  1  0
 36 78  1  0
 42 79  1  0
 43 80  1  0
 45 81  1  0
 45 82  1  0
 46 83  1  0
 46 84  1  0
 46 85  1  0
 47 86  1  0
 48 87  1  0
 50 88  1  0
 51 89  1  0
 53 90  1  0
 53 91  1  0
 54 92  1  0
 54 93  1  0
 54 94  1  0
 55 95  1  0
 56 96  1  0
 57 97  1  0
 58 98  1  0
M  END

