
     RDKit          3D

 22 23  0  0  0  0  0  0  0  0999 V2000
   -2.0766   -1.7914    0.5208 C   0  0  0  0  0  0  0  0  0  0  0  0
   -0.8898   -1.2049    0.7055 C   0  0  0  0  0  0  0  0  0  0  0  0
    0.3628   -1.7573    0.1993 C   0  0  0  0  0  0  0  0  0  0  0  0
    0.5198   -2.9012   -0.3058 O   0  0  0  0  0  0  0  0  0  0  0  0
    1.3875   -0.7449    0.3252 C   0  0  0  0  0  0  0  0  0  0  0  0
    2.7127   -0.8049   -0.1049 C   0  0  0  0  0  0  0  0  0  0  0  0
    3.5170    0.3308    0.0508 C   0  0  0  0  0  0  0  0  0  0  0  0
    2.9825    1.5055    0.6095 C   0  0  0  0  0  0  0  0  0  0  0  0
    3.9907    2.9327    0.7645 Cl  0  0  0  0  0  0  0  0  0  0  0  0
    1.6418    1.5475    1.0305 C   0  0  0  0  0  0  0  0  0  0  0  0
    0.8481    0.3942    0.9043 C   0  0  0  0  0  0  0  0  0  0  0  0
   -0.5842    0.1517    1.2552 C   0  0  0  0  0  0  0  0  0  0  0  0
   -1.3731    0.9101    2.0611 C   0  0  0  0  0  0  0  0  0  0  0  0
   -2.6743    0.4778    2.5000 C   0  0  0  0  0  0  0  0  0  0  0  0
   -3.7204    0.1406    2.8639 N   0  0  0  0  0  0  0  0  0  0  0  0
   -0.9314    2.1534    2.6355 C   0  0  0  0  0  0  0  0  0  0  0  0
   -0.5926    3.1541    3.1089 N   0  0  0  0  0  0  0  0  0  0  0  0
   -2.1351   -2.7655    0.0520 H   0  0  0  0  0  0  0  0  0  0  0  0
   -3.0087   -1.3130    0.7664 H   0  0  0  0  0  0  0  0  0  0  0  0
    3.1103   -1.7031   -0.5596 H   0  0  0  0  0  0  0  0  0  0  0  0
    4.5481    0.3053   -0.2776 H   0  0  0  0  0  0  0  0  0  0  0  0
    1.2515    2.4749    1.4109 H   0  0  0  0  0  0  0  0  0  0  0  0
  1  2  2  3
  2  3  1  0
  3  4  2  0
  3  5  1  0
  5  6  2  0
  6  7  1  0
  7  8  2  0
  8  9  1  0
  8 10  1  0
 10 11  2  0
 11 12  1  0
 12 13  2  3
 13 14  1  0
 14 15  3  0
 13 16  1  0
 16 17  3  0
 12  2  1  0
 11  5  1  0
  1 18  1  0
  1 19  1  0
  6 20  1  0
  7 21  1  0
 10 22  1  0
M  END

