
     RDKit          3D

 15 16  0  0  0  0  0  0  0  0999 V2000
   -1.5133    0.0689    3.8607 N   0  0  0  0  0  0  0  0  0  0  0  0
   -0.7034    0.0600    3.0342 C   0  0  0  0  0  0  0  0  0  0  0  0
    0.3073    0.0489    2.0029 C   0  0  0  0  0  0  0  0  0  0  0  0
    1.5561   -0.5289    2.2882 C   0  0  0  0  0  0  0  0  0  0  0  0
    2.5443   -0.5486    1.3045 C   0  0  0  0  0  0  0  0  0  0  0  0
    3.7723   -1.0884    1.5065 N   0  0  0  0  0  0  0  0  0  0  0  0
    4.4563   -0.8127    0.0256 S   0  0  0  0  0  0  0  0  0  0  0  0
    3.3031   -0.0467   -0.8802 N   0  0  0  0  0  0  0  0  0  0  0  0
    2.2923    0.0108    0.0227 C   0  0  0  0  0  0  0  0  0  0  0  0
    1.0544    0.5851   -0.2642 C   0  0  0  0  0  0  0  0  0  0  0  0
    0.0560    0.6069    0.7245 C   0  0  0  0  0  0  0  0  0  0  0  0
   -1.2194    1.2058    0.4089 C   0  0  0  0  0  0  0  0  0  0  0  0
   -2.2416    1.6858    0.1560 N   0  0  0  0  0  0  0  0  0  0  0  0
    1.7563   -0.9577    3.2634 H   0  0  0  0  0  0  0  0  0  0  0  0
    0.8701    1.0097   -1.2444 H   0  0  0  0  0  0  0  0  0  0  0  0
  1  2  3  0
  2  3  1  0
  3  4  2  0
  4  5  1  0
  5  6  2  0
  6  7  1  0
  7  8  1  0
  8  9  2  0
  9 10  1  0
 10 11  2  0
 11 12  1  0
 12 13  3  0
 11  3  1  0
  9  5  1  0
  4 14  1  0
 10 15  1  0
M  END

