
     RDKit          3D

 30 32  0  0  0  0  0  0  0  0999 V2000
   -1.7404   -1.4045    3.6928 C   0  0  0  0  0  0  0  0  0  0  0  0
   -0.5230   -0.4882    3.6270 C   0  0  0  0  0  0  0  0  0  0  0  0
    0.0491   -0.4551    2.2285 C   0  0  0  0  0  0  0  0  0  0  0  0
    0.9612   -1.4290    1.7647 C   0  0  0  0  0  0  0  0  0  0  0  0
    1.4610   -2.5229    2.4945 C   0  0  0  0  0  0  0  0  0  0  0  0
    2.3370   -3.3189    1.7636 C   0  0  0  0  0  0  0  0  0  0  0  0
    2.4932   -2.6776    0.2136 S   0  0  0  0  0  0  0  0  0  0  0  0
    1.4513   -1.3782    0.4547 C   0  0  0  0  0  0  0  0  0  0  0  0
    1.0731   -0.3818   -0.4654 C   0  0  0  0  0  0  0  0  0  0  0  0
    1.6036   -0.3810   -1.8806 C   0  0  0  0  0  0  0  0  0  0  0  0
    0.6625   -1.1373   -2.8124 C   0  0  0  0  0  0  0  0  0  0  0  0
    0.1284    0.5668   -0.0146 C   0  0  0  0  0  0  0  0  0  0  0  0
   -0.4339    1.6122   -0.7695 C   0  0  0  0  0  0  0  0  0  0  0  0
   -1.3486    2.3783   -0.0542 C   0  0  0  0  0  0  0  0  0  0  0  0
   -1.4693    1.7645    1.5101 S   0  0  0  0  0  0  0  0  0  0  0  0
   -0.3572    0.5194    1.2972 C   0  0  0  0  0  0  0  0  0  0  0  0
   -1.4599   -2.4426    3.4144 H   0  0  0  0  0  0  0  0  0  0  0  0
   -2.1455   -1.4111    4.7265 H   0  0  0  0  0  0  0  0  0  0  0  0
   -2.5319   -1.0422    3.0025 H   0  0  0  0  0  0  0  0  0  0  0  0
   -0.8185    0.5320    3.9515 H   0  0  0  0  0  0  0  0  0  0  0  0
    0.2431   -0.8309    4.3534 H   0  0  0  0  0  0  0  0  0  0  0  0
    1.1964   -2.7485    3.5181 H   0  0  0  0  0  0  0  0  0  0  0  0
    2.8311   -4.2081    2.1309 H   0  0  0  0  0  0  0  0  0  0  0  0
    2.6090   -0.8511   -1.9202 H   0  0  0  0  0  0  0  0  0  0  0  0
    1.7368    0.6585   -2.2462 H   0  0  0  0  0  0  0  0  0  0  0  0
   -0.3396   -0.6585   -2.8236 H   0  0  0  0  0  0  0  0  0  0  0  0
    0.5596   -2.1927   -2.4809 H   0  0  0  0  0  0  0  0  0  0  0  0
    1.0728   -1.1268   -3.8440 H   0  0  0  0  0  0  0  0  0  0  0  0
   -0.2019    1.8126   -1.8062 H   0  0  0  0  0  0  0  0  0  0  0  0
   -1.8967    3.2256   -0.4431 H   0  0  0  0  0  0  0  0  0  0  0  0
  1  2  1  0
  2  3  1  0
  3  4  2  0
  4  5  1  0
  5  6  2  0
  6  7  1  0
  7  8  1  0
  8  9  2  0
  9 10  1  0
 10 11  1  0
  9 12  1  0
 12 13  1  0
 13 14  2  0
 14 15  1  0
 15 16  1  0
 16  3  1  0
  8  4  1  0
 16 12  2  0
  1 17  1  0
  1 18  1  0
  1 19  1  0
  2 20  1  0
  2 21  1  0
  5 22  1  0
  6 23  1  0
 10 24  1  0
 10 25  1  0
 11 26  1  0
 11 27  1  0
 11 28  1  0
 13 29  1  0
 14 30  1  0
M  END

