
     RDKit          3D

100111  0  0  0  0  0  0  0  0999 V2000
    3.1208    2.5836    5.1566 C   0  0  0  0  0  0  0  0  0  0  0  0
    4.4291    2.1258    4.5191 C   0  0  0  0  0  0  0  0  0  0  0  0
    4.1625    1.3223    3.2756 C   0  0  0  0  0  0  0  0  0  0  0  0
    3.8877   -0.0478    3.3673 C   0  0  0  0  0  0  0  0  0  0  0  0
    3.5648   -0.7812    2.2242 C   0  0  0  0  0  0  0  0  0  0  0  0
    3.5093   -0.1577    0.9584 C   0  0  0  0  0  0  0  0  0  0  0  0
    3.0552   -0.8913   -0.3021 C   0  0  0  0  0  0  0  0  0  0  0  0
    3.1048   -2.4185   -0.1380 C   0  0  0  0  0  0  0  0  0  0  0  0
    1.9494   -3.2168    0.0257 C   0  0  0  0  0  0  0  0  0  0  0  0
    2.0558   -4.5984    0.2027 C   0  0  0  0  0  0  0  0  0  0  0  0
    3.3115   -5.2189    0.2225 C   0  0  0  0  0  0  0  0  0  0  0  0
    3.4181   -6.7014    0.4615 C   0  0  0  0  0  0  0  0  0  0  0  0
    3.4510   -7.0060    1.9559 C   0  0  0  0  0  0  0  0  0  0  0  0
    4.4653   -4.4355    0.0863 C   0  0  0  0  0  0  0  0  0  0  0  0
    4.3627   -3.0536   -0.0966 C   0  0  0  0  0  0  0  0  0  0  0  0
    3.9878   -0.5594   -1.3609 O   0  0  0  0  0  0  0  0  0  0  0  0
    3.5955   -0.4476   -2.7023 C   0  0  0  0  0  0  0  0  0  0  0  0
    2.2648   -0.3397   -3.0675 C   0  0  0  0  0  0  0  0  0  0  0  0
    2.1069   -0.1150   -4.7500 S   0  0  0  0  0  0  0  0  0  0  0  0
    3.7774   -0.1913   -4.9883 C   0  0  0  0  0  0  0  0  0  0  0  0
    4.5982   -0.0748   -6.1029 C   0  0  0  0  0  0  0  0  0  0  0  0
    5.9472   -0.1742   -5.7385 C   0  0  0  0  0  0  0  0  0  0  0  0
    6.0826   -0.3926   -4.0503 S   0  0  0  0  0  0  0  0  0  0  0  0
    4.4266   -0.3662   -3.8051 C   0  0  0  0  0  0  0  0  0  0  0  0
    1.2625   -0.2667   -2.0214 C   0  0  0  0  0  0  0  0  0  0  0  0
   -0.3821    0.1328   -2.1651 S   0  0  0  0  0  0  0  0  0  0  0  0
   -0.6207    0.1289   -0.4964 C   0  0  0  0  0  0  0  0  0  0  0  0
   -1.7232    0.3380    0.3391 C   0  0  0  0  0  0  0  0  0  0  0  0
   -1.3383    0.1949    1.6748 C   0  0  0  0  0  0  0  0  0  0  0  0
    0.3086   -0.1924    1.8189 S   0  0  0  0  0  0  0  0  0  0  0  0
    0.5478   -0.1711    0.1511 C   0  0  0  0  0  0  0  0  0  0  0  0
    1.6432   -0.4106   -0.6852 C   0  0  0  0  0  0  0  0  0  0  0  0
   -2.2832    0.4963    2.7329 C   0  0  0  0  0  0  0  0  0  0  0  0
   -2.0716    0.4819    4.4238 S   0  0  0  0  0  0  0  0  0  0  0  0
   -3.6027    1.1395    4.6927 C   0  0  0  0  0  0  0  0  0  0  0  0
   -4.3038    1.5121    5.8326 C   0  0  0  0  0  0  0  0  0  0  0  0
   -5.5493    2.0547    5.4925 C   0  0  0  0  0  0  0  0  0  0  0  0
   -5.7395    2.0648    3.7951 S   0  0  0  0  0  0  0  0  0  0  0  0
   -4.2409    1.3752    3.5141 C   0  0  0  0  0  0  0  0  0  0  0  0
   -3.5153    1.0240    2.3897 C   0  0  0  0  0  0  0  0  0  0  0  0
   -3.8920    1.2080    1.0517 O   0  0  0  0  0  0  0  0  0  0  0  0
   -3.1993    0.5591   -0.0456 C   0  0  0  0  0  0  0  0  0  0  0  0
   -3.9203   -0.7742   -0.2893 C   0  0  0  0  0  0  0  0  0  0  0  0
   -3.2377   -1.9761   -0.5854 C   0  0  0  0  0  0  0  0  0  0  0  0
   -3.9435   -3.1588   -0.8198 C   0  0  0  0  0  0  0  0  0  0  0  0
   -5.3441   -3.1718   -0.7706 C   0  0  0  0  0  0  0  0  0  0  0  0
   -6.1028   -4.4406   -1.0529 C   0  0  0  0  0  0  0  0  0  0  0  0
   -6.4012   -4.5679   -2.5441 C   0  0  0  0  0  0  0  0  0  0  0  0
   -6.0328   -1.9778   -0.5168 C   0  0  0  0  0  0  0  0  0  0  0  0
   -5.3296   -0.7944   -0.2797 C   0  0  0  0  0  0  0  0  0  0  0  0
   -3.2805    1.4836   -1.2589 C   0  0  0  0  0  0  0  0  0  0  0  0
   -2.9749    2.8477   -1.0948 C   0  0  0  0  0  0  0  0  0  0  0  0
   -2.9596    3.7149   -2.1894 C   0  0  0  0  0  0  0  0  0  0  0  0
   -3.2514    3.2391   -3.4757 C   0  0  0  0  0  0  0  0  0  0  0  0
   -3.1744    4.1650   -4.6610 C   0  0  0  0  0  0  0  0  0  0  0  0
   -1.7442    4.2517   -5.1842 C   0  0  0  0  0  0  0  0  0  0  0  0
   -3.5415    1.8787   -3.6559 C   0  0  0  0  0  0  0  0  0  0  0  0
   -3.5552    1.0081   -2.5621 C   0  0  0  0  0  0  0  0  0  0  0  0
    3.7809    1.2220    0.8802 C   0  0  0  0  0  0  0  0  0  0  0  0
    4.1028    1.9522    2.0255 C   0  0  0  0  0  0  0  0  0  0  0  0
    2.4979    1.7067    5.4326 H   0  0  0  0  0  0  0  0  0  0  0  0
    2.5532    3.2242    4.4484 H   0  0  0  0  0  0  0  0  0  0  0  0
    3.3373    3.1691    6.0751 H   0  0  0  0  0  0  0  0  0  0  0  0
    5.0495    3.0167    4.2759 H   0  0  0  0  0  0  0  0  0  0  0  0
    4.9944    1.5119    5.2510 H   0  0  0  0  0  0  0  0  0  0  0  0
    3.9027   -0.5466    4.3285 H   0  0  0  0  0  0  0  0  0  0  0  0
    3.3299   -1.8296    2.3471 H   0  0  0  0  0  0  0  0  0  0  0  0
    0.9568   -2.7919    0.0217 H   0  0  0  0  0  0  0  0  0  0  0  0
    1.1548   -5.1855    0.3325 H   0  0  0  0  0  0  0  0  0  0  0  0
    4.3377   -7.1024   -0.0178 H   0  0  0  0  0  0  0  0  0  0  0  0
    2.5516   -7.2247    0.0015 H   0  0  0  0  0  0  0  0  0  0  0  0
    2.5169   -6.6520    2.4418 H   0  0  0  0  0  0  0  0  0  0  0  0
    3.5392   -8.1021    2.1105 H   0  0  0  0  0  0  0  0  0  0  0  0
    4.3215   -6.5046    2.4310 H   0  0  0  0  0  0  0  0  0  0  0  0
    5.4468   -4.8930    0.1251 H   0  0  0  0  0  0  0  0  0  0  0  0
    5.2721   -2.4724   -0.1870 H   0  0  0  0  0  0  0  0  0  0  0  0
    4.2421    0.0730   -7.1134 H   0  0  0  0  0  0  0  0  0  0  0  0
    6.7798   -0.1136   -6.4250 H   0  0  0  0  0  0  0  0  0  0  0  0
   -3.9336    1.4028    6.8435 H   0  0  0  0  0  0  0  0  0  0  0  0
   -6.2789    2.4198    6.2020 H   0  0  0  0  0  0  0  0  0  0  0  0
   -2.1606   -2.0190   -0.6400 H   0  0  0  0  0  0  0  0  0  0  0  0
   -3.3959   -4.0665   -1.0433 H   0  0  0  0  0  0  0  0  0  0  0  0
   -7.0579   -4.4493   -0.4815 H   0  0  0  0  0  0  0  0  0  0  0  0
   -5.5109   -5.3229   -0.7223 H   0  0  0  0  0  0  0  0  0  0  0  0
   -6.9604   -5.5079   -2.7345 H   0  0  0  0  0  0  0  0  0  0  0  0
   -7.0199   -3.7119   -2.8896 H   0  0  0  0  0  0  0  0  0  0  0  0
   -5.4545   -4.5937   -3.1265 H   0  0  0  0  0  0  0  0  0  0  0  0
   -7.1166   -1.9610   -0.5072 H   0  0  0  0  0  0  0  0  0  0  0  0
   -5.8882    0.1146   -0.0924 H   0  0  0  0  0  0  0  0  0  0  0  0
   -2.7281    3.2389   -0.1153 H   0  0  0  0  0  0  0  0  0  0  0  0
   -2.7023    4.7557   -2.0358 H   0  0  0  0  0  0  0  0  0  0  0  0
   -3.5193    5.1803   -4.3720 H   0  0  0  0  0  0  0  0  0  0  0  0
   -3.8401    3.8035   -5.4749 H   0  0  0  0  0  0  0  0  0  0  0  0
   -1.0711    4.6659   -4.4008 H   0  0  0  0  0  0  0  0  0  0  0  0
   -1.3825    3.2438   -5.4838 H   0  0  0  0  0  0  0  0  0  0  0  0
   -1.7135    4.9200   -6.0703 H   0  0  0  0  0  0  0  0  0  0  0  0
   -3.7403    1.4876   -4.6479 H   0  0  0  0  0  0  0  0  0  0  0  0
   -3.7536   -0.0394   -2.7491 H   0  0  0  0  0  0  0  0  0  0  0  0
    3.7154    1.7396   -0.0695 H   0  0  0  0  0  0  0  0  0  0  0  0
    4.2899    3.0139    1.9390 H   0  0  0  0  0  0  0  0  0  0  0  0
  1  2  1  0
  2  3  1  0
  3  4  2  0
  4  5  1  0
  5  6  2  0
  6  7  1  0
  7  8  1  0
  8  9  2  0
  9 10  1  0
 10 11  2  0
 11 12  1  0
 12 13  1  0
 11 14  1  0
 14 15  2  0
  7 16  1  0
 16 17  1  0
 17 18  2  0
 18 19  1  0
 19 20  1  0
 20 21  1  0
 21 22  2  0
 22 23  1  0
 23 24  1  0
 18 25  1  0
 25 26  1  0
 26 27  1  0
 27 28  1  0
 28 29  2  0
 29 30  1  0
 30 31  1  0
 31 32  1  0
 29 33  1  0
 33 34  1  0
 34 35  1  0
 35 36  1  0
 36 37  2  0
 37 38  1  0
 38 39  1  0
 39 40  1  0
 40 41  1  0
 41 42  1  0
 42 43  1  0
 43 44  2  0
 44 45  1  0
 45 46  2  0
 46 47  1  0
 47 48  1  0
 46 49  1  0
 49 50  2  0
 42 51  1  0
 51 52  2  0
 52 53  1  0
 53 54  2  0
 54 55  1  0
 55 56  1  0
 54 57  1  0
 57 58  2  0
  6 59  1  0
 59 60  2  0
 60  3  1  0
 32  7  1  0
 40 33  2  0
 50 43  1  0
 58 51  1  0
 15  8  1  0
 24 17  1  0
 32 25  2  0
 39 35  2  0
 24 20  2  0
 31 27  2  0
 42 28  1  0
  1 61  1  0
  1 62  1  0
  1 63  1  0
  2 64  1  0
  2 65  1  0
  4 66  1  0
  5 67  1  0
  9 68  1  0
 10 69  1  0
 12 70  1  0
 12 71  1  0
 13 72  1  0
 13 73  1  0
 13 74  1  0
 14 75  1  0
 15 76  1  0
 21 77  1  0
 22 78  1  0
 36 79  1  0
 37 80  1  0
 44 81  1  0
 45 82  1  0
 47 83  1  0
 47 84  1  0
 48 85  1  0
 48 86  1  0
 48 87  1  0
 49 88  1  0
 50 89  1  0
 52 90  1  0
 53 91  1  0
 55 92  1  0
 55 93  1  0
 56 94  1  0
 56 95  1  0
 56 96  1  0
 57 97  1  0
 58 98  1  0
 59 99  1  0
 60100  1  0
M  END

