
     RDKit          3D

 22 24  0  0  0  0  0  0  0  0999 V2000
    1.1835    0.3385    3.2774 C   0  0  0  0  0  0  0  0  0  0  0  0
   -0.1913    0.1122    2.6608 C   0  0  0  0  0  0  0  0  0  0  0  0
   -0.0866    0.0223    1.2061 N   0  0  0  0  0  0  0  0  0  0  0  0
    0.2194   -1.0647    0.4511 C   0  0  0  0  0  0  0  0  0  0  0  0
    0.4933   -2.3871    0.7792 C   0  0  0  0  0  0  0  0  0  0  0  0
    0.9049   -3.0944   -0.3629 C   0  0  0  0  0  0  0  0  0  0  0  0
    0.9531   -2.0620   -1.7322 S   0  0  0  0  0  0  0  0  0  0  0  0
    0.4113   -0.7486   -0.8532 C   0  0  0  0  0  0  0  0  0  0  0  0
    0.2323    0.6008   -0.9495 C   0  0  0  0  0  0  0  0  0  0  0  0
    0.4313    1.8738   -2.0130 S   0  0  0  0  0  0  0  0  0  0  0  0
    0.0917    3.0390   -0.8005 C   0  0  0  0  0  0  0  0  0  0  0  0
   -0.1435    2.4157    0.4365 C   0  0  0  0  0  0  0  0  0  0  0  0
   -0.0590    1.0351    0.3012 C   0  0  0  0  0  0  0  0  0  0  0  0
    1.8593   -0.5055    3.0235 H   0  0  0  0  0  0  0  0  0  0  0  0
    1.0913    0.4051    4.3818 H   0  0  0  0  0  0  0  0  0  0  0  0
    1.6218    1.2850    2.8957 H   0  0  0  0  0  0  0  0  0  0  0  0
   -0.6298   -0.8255    3.0647 H   0  0  0  0  0  0  0  0  0  0  0  0
   -0.8653    0.9511    2.9379 H   0  0  0  0  0  0  0  0  0  0  0  0
    0.4272   -2.8069    1.7739 H   0  0  0  0  0  0  0  0  0  0  0  0
    1.1850   -4.1390   -0.3689 H   0  0  0  0  0  0  0  0  0  0  0  0
    0.0914    4.1090   -0.9574 H   0  0  0  0  0  0  0  0  0  0  0  0
   -0.3346    2.9385    1.3640 H   0  0  0  0  0  0  0  0  0  0  0  0
  1  2  1  0
  2  3  1  0
  3  4  1  0
  4  5  1  0
  5  6  2  0
  6  7  1  0
  7  8  1  0
  8  9  1  0
  9 10  1  0
 10 11  1  0
 11 12  2  0
 12 13  1  0
 13  3  1  0
  8  4  2  0
 13  9  2  0
  1 14  1  0
  1 15  1  0
  1 16  1  0
  2 17  1  0
  2 18  1  0
  5 19  1  0
  6 20  1  0
 11 21  1  0
 12 22  1  0
M  END

