
     RDKit          3D

 24 24  0  0  0  0  0  0  0  0999 V2000
    1.5334    3.0339    1.9260 C   0  0  0  0  0  0  0  0  0  0  0  0
    2.4791    1.9428    1.4354 C   0  0  0  0  0  0  0  0  0  0  0  0
    1.7111    0.7114    1.0362 C   0  0  0  0  0  0  0  0  0  0  0  0
    1.4191   -0.2800    1.9862 C   0  0  0  0  0  0  0  0  0  0  0  0
    0.6780   -1.4084    1.6235 C   0  0  0  0  0  0  0  0  0  0  0  0
    0.2184   -1.5611    0.3060 C   0  0  0  0  0  0  0  0  0  0  0  0
   -0.6091   -2.7590   -0.0756 C   0  0  0  0  0  0  0  0  0  0  0  0
   -2.0921   -2.4858    0.1522 C   0  0  0  0  0  0  0  0  0  0  0  0
    0.4876   -0.5568   -0.6372 C   0  0  0  0  0  0  0  0  0  0  0  0
    1.2287    0.5716   -0.2746 C   0  0  0  0  0  0  0  0  0  0  0  0
    0.8214    3.3173    1.1215 H   0  0  0  0  0  0  0  0  0  0  0  0
    2.1193    3.9318    2.2148 H   0  0  0  0  0  0  0  0  0  0  0  0
    0.9638    2.6805    2.8121 H   0  0  0  0  0  0  0  0  0  0  0  0
    3.2044    1.6965    2.2413 H   0  0  0  0  0  0  0  0  0  0  0  0
    3.0637    2.3258    0.5706 H   0  0  0  0  0  0  0  0  0  0  0  0
    1.7617   -0.1766    3.0084 H   0  0  0  0  0  0  0  0  0  0  0  0
    0.4583   -2.1610    2.3707 H   0  0  0  0  0  0  0  0  0  0  0  0
   -0.3025   -3.6426    0.5256 H   0  0  0  0  0  0  0  0  0  0  0  0
   -0.4432   -3.0133   -1.1451 H   0  0  0  0  0  0  0  0  0  0  0  0
   -2.6835   -3.3805   -0.1350 H   0  0  0  0  0  0  0  0  0  0  0  0
   -2.4251   -1.6254   -0.4668 H   0  0  0  0  0  0  0  0  0  0  0  0
   -2.2827   -2.2622    1.2238 H   0  0  0  0  0  0  0  0  0  0  0  0
    0.1195   -0.6459   -1.6519 H   0  0  0  0  0  0  0  0  0  0  0  0
    1.4229    1.3386   -1.0142 H   0  0  0  0  0  0  0  0  0  0  0  0
  1  2  1  0
  2  3  1  0
  3  4  2  0
  4  5  1  0
  5  6  2  0
  6  7  1  0
  7  8  1  0
  6  9  1  0
  9 10  2  0
 10  3  1  0
  1 11  1  0
  1 12  1  0
  1 13  1  0
  2 14  1  0
  2 15  1  0
  4 16  1  0
  5 17  1  0
  7 18  1  0
  7 19  1  0
  8 20  1  0
  8 21  1  0
  8 22  1  0
  9 23  1  0
 10 24  1  0
M  END

