
     RDKit          3D

 12 12  0  0  0  0  0  0  0  0999 V2000
   -0.9909   -0.9834    2.4262 F   0  0  0  0  0  0  0  0  0  0  0  0
    0.1625   -0.8773    1.7215 C   0  0  0  0  0  0  0  0  0  0  0  0
    0.6207   -1.9594    0.9617 C   0  0  0  0  0  0  0  0  0  0  0  0
    1.8108   -1.8498    0.2346 C   0  0  0  0  0  0  0  0  0  0  0  0
    2.5435   -0.6581    0.2666 C   0  0  0  0  0  0  0  0  0  0  0  0
    3.6969   -0.5520   -0.4381 F   0  0  0  0  0  0  0  0  0  0  0  0
    2.0854    0.4240    1.0264 C   0  0  0  0  0  0  0  0  0  0  0  0
    0.8952    0.3144    1.7536 C   0  0  0  0  0  0  0  0  0  0  0  0
    0.0551   -2.8819    0.9359 H   0  0  0  0  0  0  0  0  0  0  0  0
    2.1639   -2.6878   -0.3526 H   0  0  0  0  0  0  0  0  0  0  0  0
    2.6510    1.3465    1.0522 H   0  0  0  0  0  0  0  0  0  0  0  0
    0.5422    1.1524    2.3407 H   0  0  0  0  0  0  0  0  0  0  0  0
  1  2  1  0
  2  3  2  0
  3  4  1  0
  4  5  2  0
  5  6  1  0
  5  7  1  0
  7  8  2  0
  8  2  1  0
  3  9  1  0
  4 10  1  0
  7 11  1  0
  8 12  1  0
M  END

