
     RDKit          3D

 25 27  0  0  0  0  0  0  0  0999 V2000
   -2.4781   -3.8086    3.4555 C   0  0  0  0  0  0  0  0  0  0  0  0
   -1.1981   -3.8724    2.6380 C   0  0  0  0  0  0  0  0  0  0  0  0
   -0.8858   -2.5760    2.1393 O   0  0  0  0  0  0  0  0  0  0  0  0
    0.2395   -2.3224    1.3499 C   0  0  0  0  0  0  0  0  0  0  0  0
    1.0329   -3.2552    1.0469 O   0  0  0  0  0  0  0  0  0  0  0  0
    0.4950   -0.9584    0.8728 C   0  0  0  0  0  0  0  0  0  0  0  0
    1.5738   -0.5604    0.0807 C   0  0  0  0  0  0  0  0  0  0  0  0
    1.5444    0.8074   -0.2122 C   0  0  0  0  0  0  0  0  0  0  0  0
    2.4865    1.5006   -0.9827 C   0  0  0  0  0  0  0  0  0  0  0  0
    2.2972    2.8769   -1.1736 C   0  0  0  0  0  0  0  0  0  0  0  0
    3.1502    3.6392   -1.9020 N   0  0  0  0  0  0  0  0  0  0  0  0
    2.4156    5.1154   -1.7612 S   0  0  0  0  0  0  0  0  0  0  0  0
    1.0676    4.8786   -0.8309 N   0  0  0  0  0  0  0  0  0  0  0  0
    1.1712    3.5473   -0.5946 C   0  0  0  0  0  0  0  0  0  0  0  0
    0.2378    2.8400    0.1735 C   0  0  0  0  0  0  0  0  0  0  0  0
    0.4530    1.4716    0.3457 C   0  0  0  0  0  0  0  0  0  0  0  0
   -0.4871    0.3790    1.2061 S   0  0  0  0  0  0  0  0  0  0  0  0
   -3.3166   -3.4526    2.8201 H   0  0  0  0  0  0  0  0  0  0  0  0
   -2.3475   -3.1126    4.3110 H   0  0  0  0  0  0  0  0  0  0  0  0
   -2.7245   -4.8185    3.8459 H   0  0  0  0  0  0  0  0  0  0  0  0
   -1.3387   -4.5771    1.7898 H   0  0  0  0  0  0  0  0  0  0  0  0
   -0.3686   -4.2367    3.2822 H   0  0  0  0  0  0  0  0  0  0  0  0
    2.3471   -1.2331   -0.2686 H   0  0  0  0  0  0  0  0  0  0  0  0
    3.3364    0.9900   -1.4188 H   0  0  0  0  0  0  0  0  0  0  0  0
   -0.6176    3.3335    0.6170 H   0  0  0  0  0  0  0  0  0  0  0  0
  1  2  1  0
  2  3  1  0
  3  4  1  0
  4  5  2  0
  4  6  1  0
  6  7  2  0
  7  8  1  0
  8  9  2  0
  9 10  1  0
 10 11  2  0
 11 12  1  0
 12 13  1  0
 13 14  2  0
 14 15  1  0
 15 16  2  0
 16 17  1  0
 17  6  1  0
 16  8  1  0
 14 10  1  0
  1 18  1  0
  1 19  1  0
  1 20  1  0
  2 21  1  0
  2 22  1  0
  7 23  1  0
  9 24  1  0
 15 25  1  0
M  END

