
     RDKit          3D

 50 54  0  0  0  0  0  0  0  0999 V2000
    0.7671   -4.6652    5.2914 C   0  0  0  0  0  0  0  0  0  0  0  0
    1.8397   -4.1851    4.3193 C   0  0  0  0  0  0  0  0  0  0  0  0
    1.2413   -3.2994    3.2596 C   0  0  0  0  0  0  0  0  0  0  0  0
    1.1230   -1.9201    3.4746 C   0  0  0  0  0  0  0  0  0  0  0  0
    0.5381   -1.1022    2.5051 C   0  0  0  0  0  0  0  0  0  0  0  0
    0.0790   -1.6385    1.2842 C   0  0  0  0  0  0  0  0  0  0  0  0
   -0.6143   -0.7172    0.2729 C   0  0  0  0  0  0  0  0  0  0  0  0
    0.1647    0.5825    0.0527 C   0  0  0  0  0  0  0  0  0  0  0  0
    1.5756    0.5968    0.0251 C   0  0  0  0  0  0  0  0  0  0  0  0
    2.2736    1.7787   -0.2344 C   0  0  0  0  0  0  0  0  0  0  0  0
    1.5805    2.9702   -0.4873 C   0  0  0  0  0  0  0  0  0  0  0  0
    2.3334    4.2343   -0.8042 C   0  0  0  0  0  0  0  0  0  0  0  0
    2.5946    4.3462   -2.3026 C   0  0  0  0  0  0  0  0  0  0  0  0
    0.1791    2.9568   -0.5097 C   0  0  0  0  0  0  0  0  0  0  0  0
   -0.5211    1.7760   -0.2496 C   0  0  0  0  0  0  0  0  0  0  0  0
   -1.8997   -0.3894    0.8624 O   0  0  0  0  0  0  0  0  0  0  0  0
   -3.1383   -0.7139    0.2894 C   0  0  0  0  0  0  0  0  0  0  0  0
   -4.3811   -0.4413    0.8635 C   0  0  0  0  0  0  0  0  0  0  0  0
   -5.4434   -0.8665    0.0670 C   0  0  0  0  0  0  0  0  0  0  0  0
   -4.8291   -1.5738   -1.3425 S   0  0  0  0  0  0  0  0  0  0  0  0
   -3.2206   -1.3371   -0.9288 C   0  0  0  0  0  0  0  0  0  0  0  0
   -2.0098   -1.6687   -1.6465 C   0  0  0  0  0  0  0  0  0  0  0  0
   -1.8405   -2.4030   -3.1448 S   0  0  0  0  0  0  0  0  0  0  0  0
   -0.1540   -2.3710   -3.1352 C   0  0  0  0  0  0  0  0  0  0  0  0
    0.2821   -1.7824   -1.9513 C   0  0  0  0  0  0  0  0  0  0  0  0
   -0.7683   -1.3814   -1.1072 C   0  0  0  0  0  0  0  0  0  0  0  0
    0.1450   -3.0384    1.1074 C   0  0  0  0  0  0  0  0  0  0  0  0
    0.7300   -3.8548    2.0790 C   0  0  0  0  0  0  0  0  0  0  0  0
    1.2293   -5.3156    6.0636 H   0  0  0  0  0  0  0  0  0  0  0  0
   -0.0084   -5.2498    4.7517 H   0  0  0  0  0  0  0  0  0  0  0  0
    0.2883   -3.7990    5.7960 H   0  0  0  0  0  0  0  0  0  0  0  0
    2.3294   -5.0659    3.8495 H   0  0  0  0  0  0  0  0  0  0  0  0
    2.6233   -3.6320    4.8817 H   0  0  0  0  0  0  0  0  0  0  0  0
    1.4750   -1.4783    4.3986 H   0  0  0  0  0  0  0  0  0  0  0  0
    0.4414   -0.0432    2.7097 H   0  0  0  0  0  0  0  0  0  0  0  0
    2.1419   -0.3088    0.2001 H   0  0  0  0  0  0  0  0  0  0  0  0
    3.3564    1.7625   -0.2473 H   0  0  0  0  0  0  0  0  0  0  0  0
    1.7527    5.1202   -0.4660 H   0  0  0  0  0  0  0  0  0  0  0  0
    3.3034    4.2480   -0.2608 H   0  0  0  0  0  0  0  0  0  0  0  0
    3.1494    5.2843   -2.5145 H   0  0  0  0  0  0  0  0  0  0  0  0
    1.6342    4.3667   -2.8609 H   0  0  0  0  0  0  0  0  0  0  0  0
    3.2040    3.4857   -2.6528 H   0  0  0  0  0  0  0  0  0  0  0  0
   -0.3725    3.8600   -0.7394 H   0  0  0  0  0  0  0  0  0  0  0  0
   -1.6020    1.7969   -0.2971 H   0  0  0  0  0  0  0  0  0  0  0  0
   -4.5066    0.0477    1.8203 H   0  0  0  0  0  0  0  0  0  0  0  0
   -6.4913   -0.7581    0.3117 H   0  0  0  0  0  0  0  0  0  0  0  0
    0.4876   -2.7516   -3.9182 H   0  0  0  0  0  0  0  0  0  0  0  0
    1.3286   -1.6630   -1.7084 H   0  0  0  0  0  0  0  0  0  0  0  0
   -0.2632   -3.5154    0.2272 H   0  0  0  0  0  0  0  0  0  0  0  0
    0.7737   -4.9246    1.9153 H   0  0  0  0  0  0  0  0  0  0  0  0
  1  2  1  0
  2  3  1  0
  3  4  2  0
  4  5  1  0
  5  6  2  0
  6  7  1  0
  7  8  1  0
  8  9  2  0
  9 10  1  0
 10 11  2  0
 11 12  1  0
 12 13  1  0
 11 14  1  0
 14 15  2  0
  7 16  1  0
 16 17  1  0
 17 18  1  0
 18 19  2  0
 19 20  1  0
 20 21  1  0
 21 22  1  0
 22 23  1  0
 23 24  1  0
 24 25  2  0
 25 26  1  0
  6 27  1  0
 27 28  2  0
 28  3  1  0
 26  7  1  0
 15  8  1  0
 21 17  2  0
 26 22  2  0
  1 29  1  0
  1 30  1  0
  1 31  1  0
  2 32  1  0
  2 33  1  0
  4 34  1  0
  5 35  1  0
  9 36  1  0
 10 37  1  0
 12 38  1  0
 12 39  1  0
 13 40  1  0
 13 41  1  0
 13 42  1  0
 14 43  1  0
 15 44  1  0
 18 45  1  0
 19 46  1  0
 24 47  1  0
 25 48  1  0
 27 49  1  0
 28 50  1  0
M  END

