
     RDKit          3D

114126  0  0  0  0  0  0  0  0999 V2000
    8.5343   -0.9732    1.8249 C   0  0  0  0  0  0  0  0  0  0  0  0
    7.4451    0.0457    1.4977 C   0  0  0  0  0  0  0  0  0  0  0  0
    6.2995   -0.6133    0.7745 C   0  0  0  0  0  0  0  0  0  0  0  0
    6.3481   -0.7865   -0.6151 C   0  0  0  0  0  0  0  0  0  0  0  0
    5.3171   -1.4526   -1.2819 C   0  0  0  0  0  0  0  0  0  0  0  0
    4.1999   -1.9474   -0.5794 C   0  0  0  0  0  0  0  0  0  0  0  0
    3.1356   -2.7757   -1.3131 C   0  0  0  0  0  0  0  0  0  0  0  0
    2.7708   -2.2387   -2.7010 C   0  0  0  0  0  0  0  0  0  0  0  0
    2.4155   -3.1001   -3.7622 C   0  0  0  0  0  0  0  0  0  0  0  0
    2.0168   -2.5870   -4.9987 C   0  0  0  0  0  0  0  0  0  0  0  0
    1.9533   -1.2026   -5.2026 C   0  0  0  0  0  0  0  0  0  0  0  0
    1.4894   -0.6467   -6.5225 C   0  0  0  0  0  0  0  0  0  0  0  0
    0.0038   -0.3020   -6.4720 C   0  0  0  0  0  0  0  0  0  0  0  0
    2.2612   -0.3374   -4.1433 C   0  0  0  0  0  0  0  0  0  0  0  0
    2.6503   -0.8496   -2.9052 C   0  0  0  0  0  0  0  0  0  0  0  0
    1.8484   -2.9585   -0.5037 C   0  0  0  0  0  0  0  0  0  0  0  0
    0.8939   -1.9809   -0.1621 C   0  0  0  0  0  0  0  0  0  0  0  0
   -0.1896   -2.4093    0.6149 C   0  0  0  0  0  0  0  0  0  0  0  0
   -1.2760   -1.7248    1.1089 C   0  0  0  0  0  0  0  0  0  0  0  0
   -1.6735   -0.3901    0.9523 C   0  0  0  0  0  0  0  0  0  0  0  0
   -2.8697   -0.0113    1.5893 C   0  0  0  0  0  0  0  0  0  0  0  0
   -3.6013   -0.9467    2.3374 C   0  0  0  0  0  0  0  0  0  0  0  0
   -3.2148   -2.2844    2.4731 C   0  0  0  0  0  0  0  0  0  0  0  0
   -2.0259   -2.6541    1.8273 C   0  0  0  0  0  0  0  0  0  0  0  0
   -1.4452   -3.8802    1.7996 N   0  0  0  0  0  0  0  0  0  0  0  0
   -1.9774   -5.1271    2.3562 C   0  0  0  0  0  0  0  0  0  0  0  0
   -2.8412   -5.8364    1.3213 C   0  0  0  0  0  0  0  0  0  0  0  0
   -0.3312   -3.7281    1.0421 C   0  0  0  0  0  0  0  0  0  0  0  0
    0.6007   -4.7142    0.6877 C   0  0  0  0  0  0  0  0  0  0  0  0
    1.6811   -4.2900   -0.0909 C   0  0  0  0  0  0  0  0  0  0  0  0
    2.7878   -5.0400   -0.6151 C   0  0  0  0  0  0  0  0  0  0  0  0
    3.3068   -6.6602   -0.6208 S   0  0  0  0  0  0  0  0  0  0  0  0
    4.6437   -6.2476   -1.5874 C   0  0  0  0  0  0  0  0  0  0  0  0
    5.6897   -6.9839   -2.1340 C   0  0  0  0  0  0  0  0  0  0  0  0
    6.5402   -6.1628   -2.8849 C   0  0  0  0  0  0  0  0  0  0  0  0
    5.9775   -4.5501   -2.8523 S   0  0  0  0  0  0  0  0  0  0  0  0
    4.6618   -4.9128   -1.8819 C   0  0  0  0  0  0  0  0  0  0  0  0
    3.6033   -4.2122   -1.3297 C   0  0  0  0  0  0  0  0  0  0  0  0
   -4.7384   -0.2581    2.8755 C   0  0  0  0  0  0  0  0  0  0  0  0
   -6.0509   -0.6345    3.8858 S   0  0  0  0  0  0  0  0  0  0  0  0
   -6.6073    0.9688    3.7884 C   0  0  0  0  0  0  0  0  0  0  0  0
   -7.6952    1.6376    4.3382 C   0  0  0  0  0  0  0  0  0  0  0  0
   -7.7038    2.9825    3.9437 C   0  0  0  0  0  0  0  0  0  0  0  0
   -6.3649    3.3085    2.9349 S   0  0  0  0  0  0  0  0  0  0  0  0
   -5.7941    1.7379    3.0032 C   0  0  0  0  0  0  0  0  0  0  0  0
   -4.7159    1.0466    2.4802 C   0  0  0  0  0  0  0  0  0  0  0  0
   -3.5535    1.3586    1.5651 C   0  0  0  0  0  0  0  0  0  0  0  0
   -2.5872    2.4101    2.1228 C   0  0  0  0  0  0  0  0  0  0  0  0
   -1.6369    3.0093    1.2693 C   0  0  0  0  0  0  0  0  0  0  0  0
   -0.7354    3.9581    1.7547 C   0  0  0  0  0  0  0  0  0  0  0  0
   -0.7318    4.3039    3.1121 C   0  0  0  0  0  0  0  0  0  0  0  0
    0.2139    5.3562    3.6247 C   0  0  0  0  0  0  0  0  0  0  0  0
   -0.4174    6.7406    3.5203 C   0  0  0  0  0  0  0  0  0  0  0  0
   -1.6462    3.6889    3.9774 C   0  0  0  0  0  0  0  0  0  0  0  0
   -2.5528    2.7410    3.4950 C   0  0  0  0  0  0  0  0  0  0  0  0
   -4.1302    1.7325    0.1929 C   0  0  0  0  0  0  0  0  0  0  0  0
   -4.3981    0.7582   -0.7932 C   0  0  0  0  0  0  0  0  0  0  0  0
   -5.0212    1.1085   -1.9933 C   0  0  0  0  0  0  0  0  0  0  0  0
   -5.4109    2.4328   -2.2328 C   0  0  0  0  0  0  0  0  0  0  0  0
   -6.1325    2.7945   -3.5034 C   0  0  0  0  0  0  0  0  0  0  0  0
   -7.6331    2.5625   -3.3564 C   0  0  0  0  0  0  0  0  0  0  0  0
   -5.1873    3.4014   -1.2458 C   0  0  0  0  0  0  0  0  0  0  0  0
   -4.5583    3.0550   -0.0473 C   0  0  0  0  0  0  0  0  0  0  0  0
    4.1804   -1.7993    0.8261 C   0  0  0  0  0  0  0  0  0  0  0  0
    5.2145   -1.1342    1.4910 C   0  0  0  0  0  0  0  0  0  0  0  0
    9.3579   -0.4752    2.3833 H   0  0  0  0  0  0  0  0  0  0  0  0
    8.1218   -1.7903    2.4542 H   0  0  0  0  0  0  0  0  0  0  0  0
    8.9514   -1.4064    0.8915 H   0  0  0  0  0  0  0  0  0  0  0  0
    7.0888    0.5119    2.4410 H   0  0  0  0  0  0  0  0  0  0  0  0
    7.8772    0.8561    0.8682 H   0  0  0  0  0  0  0  0  0  0  0  0
    7.1960   -0.4250   -1.1840 H   0  0  0  0  0  0  0  0  0  0  0  0
    5.4012   -1.6014   -2.3503 H   0  0  0  0  0  0  0  0  0  0  0  0
    2.4257   -4.1734   -3.6388 H   0  0  0  0  0  0  0  0  0  0  0  0
    1.7472   -3.2695   -5.7969 H   0  0  0  0  0  0  0  0  0  0  0  0
    1.6672   -1.3803   -7.3394 H   0  0  0  0  0  0  0  0  0  0  0  0
    2.0726    0.2668   -6.7701 H   0  0  0  0  0  0  0  0  0  0  0  0
   -0.3071    0.1497   -7.4418 H   0  0  0  0  0  0  0  0  0  0  0  0
   -0.5929   -1.2227   -6.2860 H   0  0  0  0  0  0  0  0  0  0  0  0
   -0.1927    0.4358   -5.6635 H   0  0  0  0  0  0  0  0  0  0  0  0
    2.1832    0.7361   -4.2766 H   0  0  0  0  0  0  0  0  0  0  0  0
    2.8513   -0.1524   -2.1032 H   0  0  0  0  0  0  0  0  0  0  0  0
    0.9961   -0.9508   -0.4729 H   0  0  0  0  0  0  0  0  0  0  0  0
   -1.0931    0.3080    0.3613 H   0  0  0  0  0  0  0  0  0  0  0  0
   -3.8130   -2.9825    3.0412 H   0  0  0  0  0  0  0  0  0  0  0  0
   -1.1455   -5.7914    2.6649 H   0  0  0  0  0  0  0  0  0  0  0  0
   -2.5763   -4.9216    3.2686 H   0  0  0  0  0  0  0  0  0  0  0  0
   -2.2278   -6.1083    0.4368 H   0  0  0  0  0  0  0  0  0  0  0  0
   -3.6711   -5.1739    0.9987 H   0  0  0  0  0  0  0  0  0  0  0  0
   -3.2700   -6.7598    1.7607 H   0  0  0  0  0  0  0  0  0  0  0  0
    0.5009   -5.7464    0.9931 H   0  0  0  0  0  0  0  0  0  0  0  0
    5.8280   -8.0500   -2.0053 H   0  0  0  0  0  0  0  0  0  0  0  0
    7.4240   -6.5035   -3.4095 H   0  0  0  0  0  0  0  0  0  0  0  0
   -8.4348    1.1831    4.9849 H   0  0  0  0  0  0  0  0  0  0  0  0
   -8.4502    3.7081    4.2419 H   0  0  0  0  0  0  0  0  0  0  0  0
   -1.5991    2.7521    0.2162 H   0  0  0  0  0  0  0  0  0  0  0  0
   -0.0416    4.4272    1.0678 H   0  0  0  0  0  0  0  0  0  0  0  0
    1.1611    5.3407    3.0416 H   0  0  0  0  0  0  0  0  0  0  0  0
    0.4772    5.1523    4.6854 H   0  0  0  0  0  0  0  0  0  0  0  0
   -0.6612    6.9736    2.4628 H   0  0  0  0  0  0  0  0  0  0  0  0
    0.2905    7.5059    3.9015 H   0  0  0  0  0  0  0  0  0  0  0  0
   -1.3482    6.7860    4.1265 H   0  0  0  0  0  0  0  0  0  0  0  0
   -1.6532    3.9405    5.0296 H   0  0  0  0  0  0  0  0  0  0  0  0
   -3.2206    2.2689    4.2041 H   0  0  0  0  0  0  0  0  0  0  0  0
   -4.1476   -0.2820   -0.6354 H   0  0  0  0  0  0  0  0  0  0  0  0
   -5.2161    0.3393   -2.7298 H   0  0  0  0  0  0  0  0  0  0  0  0
   -5.9500    3.8609   -3.7559 H   0  0  0  0  0  0  0  0  0  0  0  0
   -5.7455    2.1845   -4.3494 H   0  0  0  0  0  0  0  0  0  0  0  0
   -8.0420    3.1929   -2.5385 H   0  0  0  0  0  0  0  0  0  0  0  0
   -8.1485    2.8290   -4.3036 H   0  0  0  0  0  0  0  0  0  0  0  0
   -7.8364    1.4944   -3.1280 H   0  0  0  0  0  0  0  0  0  0  0  0
   -5.5159    4.4227   -1.3995 H   0  0  0  0  0  0  0  0  0  0  0  0
   -4.4205    3.8226    0.7030 H   0  0  0  0  0  0  0  0  0  0  0  0
    3.3844   -2.2178    1.4269 H   0  0  0  0  0  0  0  0  0  0  0  0
    5.1840   -1.0422    2.5705 H   0  0  0  0  0  0  0  0  0  0  0  0
  1  2  1  0
  2  3  1  0
  3  4  2  0
  4  5  1  0
  5  6  2  0
  6  7  1  0
  7  8  1  0
  8  9  2  0
  9 10  1  0
 10 11  2  0
 11 12  1  0
 12 13  1  0
 11 14  1  0
 14 15  2  0
  7 16  1  0
 16 17  2  0
 17 18  1  0
 18 19  1  0
 19 20  2  0
 20 21  1  0
 21 22  2  0
 22 23  1  0
 23 24  2  0
 24 25  1  0
 25 26  1  0
 26 27  1  0
 25 28  1  0
 28 29  1  0
 29 30  2  0
 30 31  1  0
 31 32  1  0
 32 33  1  0
 33 34  1  0
 34 35  2  0
 35 36  1  0
 36 37  1  0
 37 38  1  0
 22 39  1  0
 39 40  1  0
 40 41  1  0
 41 42  1  0
 42 43  2  0
 43 44  1  0
 44 45  1  0
 45 46  1  0
 46 47  1  0
 47 48  1  0
 48 49  2  0
 49 50  1  0
 50 51  2  0
 51 52  1  0
 52 53  1  0
 51 54  1  0
 54 55  2  0
 47 56  1  0
 56 57  2  0
 57 58  1  0
 58 59  2  0
 59 60  1  0
 60 61  1  0
 59 62  1  0
 62 63  2  0
  6 64  1  0
 64 65  2  0
 65  3  1  0
 38  7  1  0
 46 39  2  0
 55 48  1  0
 63 56  1  0
 15  8  1  0
 30 16  1  0
 38 31  2  0
 45 41  2  0
 28 18  2  0
 37 33  2  0
 24 19  1  0
 47 21  1  0
  1 66  1  0
  1 67  1  0
  1 68  1  0
  2 69  1  0
  2 70  1  0
  4 71  1  0
  5 72  1  0
  9 73  1  0
 10 74  1  0
 12 75  1  0
 12 76  1  0
 13 77  1  0
 13 78  1  0
 13 79  1  0
 14 80  1  0
 15 81  1  0
 17 82  1  0
 20 83  1  0
 23 84  1  0
 26 85  1  0
 26 86  1  0
 27 87  1  0
 27 88  1  0
 27 89  1  0
 29 90  1  0
 34 91  1  0
 35 92  1  0
 42 93  1  0
 43 94  1  0
 49 95  1  0
 50 96  1  0
 52 97  1  0
 52 98  1  0
 53 99  1  0
 53100  1  0
 53101  1  0
 54102  1  0
 55103  1  0
 57104  1  0
 58105  1  0
 60106  1  0
 60107  1  0
 61108  1  0
 61109  1  0
 61110  1  0
 62111  1  0
 63112  1  0
 64113  1  0
 65114  1  0
M  END

