
     RDKit          3D

 13 14  0  0  0  0  0  0  0  0999 V2000
   -0.4643   -2.0756   -1.3387 F   0  0  0  0  0  0  0  0  0  0  0  0
    0.2192   -1.3235   -0.4413 C   0  0  0  0  0  0  0  0  0  0  0  0
   -0.4111   -0.9075    0.7440 C   0  0  0  0  0  0  0  0  0  0  0  0
    0.2796   -0.1293    1.6837 C   0  0  0  0  0  0  0  0  0  0  0  0
    1.6042    0.2291    1.4289 C   0  0  0  0  0  0  0  0  0  0  0  0
    2.3423    0.9790    2.2850 N   0  0  0  0  0  0  0  0  0  0  0  0
    3.7673    1.0540    1.4474 S   0  0  0  0  0  0  0  0  0  0  0  0
    3.5307    0.1960    0.0525 N   0  0  0  0  0  0  0  0  0  0  0  0
    2.2430   -0.1917    0.2291 C   0  0  0  0  0  0  0  0  0  0  0  0
    1.5499   -0.9664   -0.7027 C   0  0  0  0  0  0  0  0  0  0  0  0
   -1.4386   -1.1895    0.9344 H   0  0  0  0  0  0  0  0  0  0  0  0
   -0.2117    0.1879    2.5949 H   0  0  0  0  0  0  0  0  0  0  0  0
    2.0321   -1.2888   -1.6170 H   0  0  0  0  0  0  0  0  0  0  0  0
  1  2  1  0
  2  3  1  0
  3  4  2  0
  4  5  1  0
  5  6  2  0
  6  7  1  0
  7  8  1  0
  8  9  2  0
  9 10  1  0
 10  2  2  0
  9  5  1  0
  3 11  1  0
  4 12  1  0
 10 13  1  0
M  END

