
     RDKit          3D

 92100  0  0  0  0  0  0  0  0999 V2000
    1.9552   -0.3828    6.7799 C   0  0  0  0  0  0  0  0  0  0  0  0
    2.8124    0.7837    6.2947 C   0  0  0  0  0  0  0  0  0  0  0  0
    2.5417    1.0791    4.8436 C   0  0  0  0  0  0  0  0  0  0  0  0
    3.2627    0.4208    3.8391 C   0  0  0  0  0  0  0  0  0  0  0  0
    2.9732    0.6529    2.4932 C   0  0  0  0  0  0  0  0  0  0  0  0
    1.9602    1.5603    2.1173 C   0  0  0  0  0  0  0  0  0  0  0  0
    1.5466    1.7378    0.6514 C   0  0  0  0  0  0  0  0  0  0  0  0
    1.1179    3.1687    0.3118 C   0  0  0  0  0  0  0  0  0  0  0  0
    1.8888    4.2547    0.7744 C   0  0  0  0  0  0  0  0  0  0  0  0
    1.5400    5.5680    0.4558 C   0  0  0  0  0  0  0  0  0  0  0  0
    0.4238    5.8286   -0.3493 C   0  0  0  0  0  0  0  0  0  0  0  0
    0.0661    7.2446   -0.7138 C   0  0  0  0  0  0  0  0  0  0  0  0
    0.8494    7.7034   -1.9405 C   0  0  0  0  0  0  0  0  0  0  0  0
   -0.3145    4.7558   -0.8661 C   0  0  0  0  0  0  0  0  0  0  0  0
    0.0308    3.4405   -0.5459 C   0  0  0  0  0  0  0  0  0  0  0  0
    0.4951    0.6772    0.3239 C   0  0  0  0  0  0  0  0  0  0  0  0
   -0.7741    0.5141    0.9031 C   0  0  0  0  0  0  0  0  0  0  0  0
   -1.5354   -0.5688    0.4536 C   0  0  0  0  0  0  0  0  0  0  0  0
   -1.0788   -1.4697   -0.5144 C   0  0  0  0  0  0  0  0  0  0  0  0
    0.1838   -1.2967   -1.1059 C   0  0  0  0  0  0  0  0  0  0  0  0
    0.9431   -0.2096   -0.6614 C   0  0  0  0  0  0  0  0  0  0  0  0
    2.2567    0.2228   -1.0427 C   0  0  0  0  0  0  0  0  0  0  0  0
    3.4481   -0.2338   -2.1265 S   0  0  0  0  0  0  0  0  0  0  0  0
    4.4870    1.0338   -1.6553 C   0  0  0  0  0  0  0  0  0  0  0  0
    3.8867    1.8008   -0.6491 C   0  0  0  0  0  0  0  0  0  0  0  0
    2.6185    1.3160   -0.3306 C   0  0  0  0  0  0  0  0  0  0  0  0
   -2.1075   -2.5659   -0.7972 C   0  0  0  0  0  0  0  0  0  0  0  0
   -2.4919   -2.5034   -2.2804 C   0  0  0  0  0  0  0  0  0  0  0  0
   -1.7392   -3.2240   -3.2302 C   0  0  0  0  0  0  0  0  0  0  0  0
   -2.0200   -3.1211   -4.5946 C   0  0  0  0  0  0  0  0  0  0  0  0
   -3.0486   -2.2835   -5.0451 C   0  0  0  0  0  0  0  0  0  0  0  0
   -3.3180   -2.1404   -6.5186 C   0  0  0  0  0  0  0  0  0  0  0  0
   -2.4175   -1.0725   -7.1299 C   0  0  0  0  0  0  0  0  0  0  0  0
   -3.7719   -1.5239   -4.1157 C   0  0  0  0  0  0  0  0  0  0  0  0
   -3.4921   -1.6239   -2.7508 C   0  0  0  0  0  0  0  0  0  0  0  0
   -1.6681   -3.9640   -0.3430 C   0  0  0  0  0  0  0  0  0  0  0  0
   -0.5415   -4.1700    0.4813 C   0  0  0  0  0  0  0  0  0  0  0  0
   -0.1867   -5.4572    0.8948 C   0  0  0  0  0  0  0  0  0  0  0  0
   -0.9669   -6.5621    0.5278 C   0  0  0  0  0  0  0  0  0  0  0  0
   -0.5625   -7.9504    0.9453 C   0  0  0  0  0  0  0  0  0  0  0  0
    0.3400   -8.5893   -0.1036 C   0  0  0  0  0  0  0  0  0  0  0  0
   -2.1000   -6.3657   -0.2708 C   0  0  0  0  0  0  0  0  0  0  0  0
   -2.4534   -5.0817   -0.6903 C   0  0  0  0  0  0  0  0  0  0  0  0
   -3.2083   -2.0988    0.1312 C   0  0  0  0  0  0  0  0  0  0  0  0
   -4.4978   -2.5512    0.4105 C   0  0  0  0  0  0  0  0  0  0  0  0
   -5.1305   -1.7357    1.3565 C   0  0  0  0  0  0  0  0  0  0  0  0
   -4.0878   -0.4720    1.8295 S   0  0  0  0  0  0  0  0  0  0  0  0
   -2.8540   -0.9926    0.8259 C   0  0  0  0  0  0  0  0  0  0  0  0
    1.2172    2.1877    3.1385 C   0  0  0  0  0  0  0  0  0  0  0  0
    1.5105    1.9571    4.4843 C   0  0  0  0  0  0  0  0  0  0  0  0
    0.8752   -0.1413    6.6769 H   0  0  0  0  0  0  0  0  0  0  0  0
    2.1837   -1.2989    6.1915 H   0  0  0  0  0  0  0  0  0  0  0  0
    2.1709   -0.5848    7.8489 H   0  0  0  0  0  0  0  0  0  0  0  0
    3.8849    0.5363    6.4382 H   0  0  0  0  0  0  0  0  0  0  0  0
    2.5929    1.6789    6.9150 H   0  0  0  0  0  0  0  0  0  0  0  0
    4.0370   -0.2907    4.0976 H   0  0  0  0  0  0  0  0  0  0  0  0
    3.5298    0.0956    1.7519 H   0  0  0  0  0  0  0  0  0  0  0  0
    2.7642    4.0864    1.3886 H   0  0  0  0  0  0  0  0  0  0  0  0
    2.1453    6.3834    0.8323 H   0  0  0  0  0  0  0  0  0  0  0  0
   -1.0239    7.3219   -0.9226 H   0  0  0  0  0  0  0  0  0  0  0  0
    0.2908    7.9233    0.1384 H   0  0  0  0  0  0  0  0  0  0  0  0
    0.5633    8.7472   -2.1924 H   0  0  0  0  0  0  0  0  0  0  0  0
    0.6229    7.0504   -2.8104 H   0  0  0  0  0  0  0  0  0  0  0  0
    1.9403    7.6737   -1.7334 H   0  0  0  0  0  0  0  0  0  0  0  0
   -1.1553    4.9390   -1.5237 H   0  0  0  0  0  0  0  0  0  0  0  0
   -0.5529    2.6427   -0.9819 H   0  0  0  0  0  0  0  0  0  0  0  0
   -1.1487    1.1933    1.6576 H   0  0  0  0  0  0  0  0  0  0  0  0
    0.5600   -1.9799   -1.8554 H   0  0  0  0  0  0  0  0  0  0  0  0
    5.4676    1.2200   -2.0710 H   0  0  0  0  0  0  0  0  0  0  0  0
    4.3507    2.6553   -0.1750 H   0  0  0  0  0  0  0  0  0  0  0  0
   -0.9210   -3.8603   -2.9168 H   0  0  0  0  0  0  0  0  0  0  0  0
   -1.4271   -3.6876   -5.3019 H   0  0  0  0  0  0  0  0  0  0  0  0
   -3.1410   -3.1100   -7.0328 H   0  0  0  0  0  0  0  0  0  0  0  0
   -4.3813   -1.8659   -6.6905 H   0  0  0  0  0  0  0  0  0  0  0  0
   -1.3494   -1.3429   -6.9909 H   0  0  0  0  0  0  0  0  0  0  0  0
   -2.6095   -0.0885   -6.6531 H   0  0  0  0  0  0  0  0  0  0  0  0
   -2.6257   -0.9879   -8.2174 H   0  0  0  0  0  0  0  0  0  0  0  0
   -4.5442   -0.8403   -4.4497 H   0  0  0  0  0  0  0  0  0  0  0  0
   -4.0526   -0.9978   -2.0705 H   0  0  0  0  0  0  0  0  0  0  0  0
    0.0739   -3.3443    0.8117 H   0  0  0  0  0  0  0  0  0  0  0  0
    0.6949   -5.5932    1.5078 H   0  0  0  0  0  0  0  0  0  0  0  0
   -0.0253   -7.9185    1.9191 H   0  0  0  0  0  0  0  0  0  0  0  0
   -1.4647   -8.5858    1.0877 H   0  0  0  0  0  0  0  0  0  0  0  0
    1.2621   -7.9844   -0.2371 H   0  0  0  0  0  0  0  0  0  0  0  0
    0.6268   -9.6114    0.2215 H   0  0  0  0  0  0  0  0  0  0  0  0
   -0.1937   -8.6625   -1.0748 H   0  0  0  0  0  0  0  0  0  0  0  0
   -2.7070   -7.2092   -0.5738 H   0  0  0  0  0  0  0  0  0  0  0  0
   -3.3421   -4.9588   -1.2965 H   0  0  0  0  0  0  0  0  0  0  0  0
   -4.9568   -3.4149   -0.0514 H   0  0  0  0  0  0  0  0  0  0  0  0
   -6.1379   -1.8819    1.7226 H   0  0  0  0  0  0  0  0  0  0  0  0
    0.3933    2.8446    2.8951 H   0  0  0  0  0  0  0  0  0  0  0  0
    0.9204    2.4476    5.2484 H   0  0  0  0  0  0  0  0  0  0  0  0
  1  2  1  0
  2  3  1  0
  3  4  2  0
  4  5  1  0
  5  6  2  0
  6  7  1  0
  7  8  1  0
  8  9  2  0
  9 10  1  0
 10 11  2  0
 11 12  1  0
 12 13  1  0
 11 14  1  0
 14 15  2  0
  7 16  1  0
 16 17  2  0
 17 18  1  0
 18 19  2  0
 19 20  1  0
 20 21  2  0
 21 22  1  0
 22 23  1  0
 23 24  1  0
 24 25  2  0
 25 26  1  0
 19 27  1  0
 27 28  1  0
 28 29  2  0
 29 30  1  0
 30 31  2  0
 31 32  1  0
 32 33  1  0
 31 34  1  0
 34 35  2  0
 27 36  1  0
 36 37  2  0
 37 38  1  0
 38 39  2  0
 39 40  1  0
 40 41  1  0
 39 42  1  0
 42 43  2  0
 27 44  1  0
 44 45  1  0
 45 46  2  0
 46 47  1  0
 47 48  1  0
  6 49  1  0
 49 50  2  0
 50  3  1  0
 26  7  1  0
 35 28  1  0
 43 36  1  0
 48 44  2  0
 15  8  1  0
 21 16  1  0
 26 22  2  0
 48 18  1  0
  1 51  1  0
  1 52  1  0
  1 53  1  0
  2 54  1  0
  2 55  1  0
  4 56  1  0
  5 57  1  0
  9 58  1  0
 10 59  1  0
 12 60  1  0
 12 61  1  0
 13 62  1  0
 13 63  1  0
 13 64  1  0
 14 65  1  0
 15 66  1  0
 17 67  1  0
 20 68  1  0
 24 69  1  0
 25 70  1  0
 29 71  1  0
 30 72  1  0
 32 73  1  0
 32 74  1  0
 33 75  1  0
 33 76  1  0
 33 77  1  0
 34 78  1  0
 35 79  1  0
 37 80  1  0
 38 81  1  0
 40 82  1  0
 40 83  1  0
 41 84  1  0
 41 85  1  0
 41 86  1  0
 42 87  1  0
 43 88  1  0
 45 89  1  0
 46 90  1  0
 49 91  1  0
 50 92  1  0
M  END

