
     RDKit          3D

110121  0  0  0  0  0  0  0  0999 V2000
    6.2362   -1.9473    3.7920 C   0  0  0  0  0  0  0  0  0  0  0  0
    5.8170   -0.5244    4.1466 C   0  0  0  0  0  0  0  0  0  0  0  0
    4.8996    0.0357    3.0934 C   0  0  0  0  0  0  0  0  0  0  0  0
    5.4200    0.7346    1.9962 C   0  0  0  0  0  0  0  0  0  0  0  0
    4.5683    1.2258    1.0036 C   0  0  0  0  0  0  0  0  0  0  0  0
    3.1790    0.9915    1.0610 C   0  0  0  0  0  0  0  0  0  0  0  0
    2.2589    1.5874   -0.0107 C   0  0  0  0  0  0  0  0  0  0  0  0
    2.8178    1.4882   -1.4334 C   0  0  0  0  0  0  0  0  0  0  0  0
    2.5937    2.4996   -2.3922 C   0  0  0  0  0  0  0  0  0  0  0  0
    3.0655    2.3610   -3.7005 C   0  0  0  0  0  0  0  0  0  0  0  0
    3.7373    1.1948   -4.0927 C   0  0  0  0  0  0  0  0  0  0  0  0
    4.2710    1.0548   -5.4936 C   0  0  0  0  0  0  0  0  0  0  0  0
    5.6979    1.5831   -5.5817 C   0  0  0  0  0  0  0  0  0  0  0  0
    3.9396    0.1726   -3.1575 C   0  0  0  0  0  0  0  0  0  0  0  0
    3.4746    0.3120   -1.8485 C   0  0  0  0  0  0  0  0  0  0  0  0
    1.8883    3.0013    0.4107 C   0  0  0  0  0  0  0  0  0  0  0  0
    0.5453    3.1624    0.6389 C   0  0  0  0  0  0  0  0  0  0  0  0
    0.1168    4.7605    1.0195 S   0  0  0  0  0  0  0  0  0  0  0  0
    1.7464    5.2463    0.9064 C   0  0  0  0  0  0  0  0  0  0  0  0
    2.3989    6.4732    1.0280 C   0  0  0  0  0  0  0  0  0  0  0  0
    1.7186    7.7796    1.3141 C   0  0  0  0  0  0  0  0  0  0  0  0
    1.2663    8.4428    0.0181 C   0  0  0  0  0  0  0  0  0  0  0  0
    3.7698    6.3463    0.7572 C   0  0  0  0  0  0  0  0  0  0  0  0
    4.1409    4.7234    0.3853 S   0  0  0  0  0  0  0  0  0  0  0  0
    2.5618    4.1993    0.5732 C   0  0  0  0  0  0  0  0  0  0  0  0
   -0.1041    1.9136    0.3759 C   0  0  0  0  0  0  0  0  0  0  0  0
   -1.6599    1.2463    0.5071 S   0  0  0  0  0  0  0  0  0  0  0  0
   -1.0605   -0.2701    0.0275 C   0  0  0  0  0  0  0  0  0  0  0  0
   -1.6058   -1.5343   -0.1147 C   0  0  0  0  0  0  0  0  0  0  0  0
   -0.6453   -2.4446   -0.4801 C   0  0  0  0  0  0  0  0  0  0  0  0
    0.9119   -1.7794   -0.6118 S   0  0  0  0  0  0  0  0  0  0  0  0
    0.2980   -0.2454   -0.2105 C   0  0  0  0  0  0  0  0  0  0  0  0
    0.8537    1.0051   -0.0024 C   0  0  0  0  0  0  0  0  0  0  0  0
   -1.2577   -3.7363   -0.5515 C   0  0  0  0  0  0  0  0  0  0  0  0
   -0.8489   -5.2980   -1.0770 S   0  0  0  0  0  0  0  0  0  0  0  0
   -2.4564   -5.8150   -0.8559 C   0  0  0  0  0  0  0  0  0  0  0  0
   -3.1225   -7.0143   -1.1013 C   0  0  0  0  0  0  0  0  0  0  0  0
   -2.4743   -8.2426   -1.6672 C   0  0  0  0  0  0  0  0  0  0  0  0
   -2.4659   -8.1929   -3.1905 C   0  0  0  0  0  0  0  0  0  0  0  0
   -4.4982   -6.8901   -0.8515 C   0  0  0  0  0  0  0  0  0  0  0  0
   -4.8498   -5.3060   -0.3231 S   0  0  0  0  0  0  0  0  0  0  0  0
   -3.2569   -4.7977   -0.4133 C   0  0  0  0  0  0  0  0  0  0  0  0
   -2.5861   -3.5986   -0.2391 C   0  0  0  0  0  0  0  0  0  0  0  0
   -2.9725   -2.1670    0.1049 C   0  0  0  0  0  0  0  0  0  0  0  0
   -3.4415   -2.1357    1.5634 C   0  0  0  0  0  0  0  0  0  0  0  0
   -4.7741   -2.4714    1.8739 C   0  0  0  0  0  0  0  0  0  0  0  0
   -5.2147   -2.5135    3.1989 C   0  0  0  0  0  0  0  0  0  0  0  0
   -4.3301   -2.2270    4.2480 C   0  0  0  0  0  0  0  0  0  0  0  0
   -4.7919   -2.3109    5.6782 C   0  0  0  0  0  0  0  0  0  0  0  0
   -4.6276   -3.7291    6.2136 C   0  0  0  0  0  0  0  0  0  0  0  0
   -2.9913   -1.9335    3.9556 C   0  0  0  0  0  0  0  0  0  0  0  0
   -2.5479   -1.9006    2.6312 C   0  0  0  0  0  0  0  0  0  0  0  0
   -3.9649   -1.5403   -0.8789 C   0  0  0  0  0  0  0  0  0  0  0  0
   -4.1271   -2.0432   -2.1878 C   0  0  0  0  0  0  0  0  0  0  0  0
   -5.0016   -1.4275   -3.0861 C   0  0  0  0  0  0  0  0  0  0  0  0
   -5.7123   -0.2794   -2.7121 C   0  0  0  0  0  0  0  0  0  0  0  0
   -6.6233    0.4014   -3.6988 C   0  0  0  0  0  0  0  0  0  0  0  0
   -5.8430    1.3799   -4.5678 C   0  0  0  0  0  0  0  0  0  0  0  0
   -5.5184    0.2594   -1.4339 C   0  0  0  0  0  0  0  0  0  0  0  0
   -4.6487   -0.3569   -0.5317 C   0  0  0  0  0  0  0  0  0  0  0  0
    2.6649    0.3050    2.1827 C   0  0  0  0  0  0  0  0  0  0  0  0
    3.5181   -0.1784    3.1768 C   0  0  0  0  0  0  0  0  0  0  0  0
    6.7740   -1.9599    2.8198 H   0  0  0  0  0  0  0  0  0  0  0  0
    6.9139   -2.3428    4.5769 H   0  0  0  0  0  0  0  0  0  0  0  0
    5.3451   -2.6079    3.7272 H   0  0  0  0  0  0  0  0  0  0  0  0
    6.7224    0.1131    4.2474 H   0  0  0  0  0  0  0  0  0  0  0  0
    5.3053   -0.5309    5.1335 H   0  0  0  0  0  0  0  0  0  0  0  0
    6.4858    0.9061    1.9122 H   0  0  0  0  0  0  0  0  0  0  0  0
    4.9983    1.7874    0.1838 H   0  0  0  0  0  0  0  0  0  0  0  0
    2.0472    3.3978   -2.1405 H   0  0  0  0  0  0  0  0  0  0  0  0
    2.8983    3.1595   -4.4130 H   0  0  0  0  0  0  0  0  0  0  0  0
    3.6298    1.6135   -6.2094 H   0  0  0  0  0  0  0  0  0  0  0  0
    4.2594   -0.0145   -5.8010 H   0  0  0  0  0  0  0  0  0  0  0  0
    6.0723    1.4769   -6.6209 H   0  0  0  0  0  0  0  0  0  0  0  0
    6.3629    1.0085   -4.9038 H   0  0  0  0  0  0  0  0  0  0  0  0
    5.7304    2.6571   -5.3000 H   0  0  0  0  0  0  0  0  0  0  0  0
    4.4545   -0.7370   -3.4433 H   0  0  0  0  0  0  0  0  0  0  0  0
    3.6332   -0.5049   -1.1571 H   0  0  0  0  0  0  0  0  0  0  0  0
    0.8378    7.6118    1.9699 H   0  0  0  0  0  0  0  0  0  0  0  0
    2.4165    8.4576    1.8539 H   0  0  0  0  0  0  0  0  0  0  0  0
    0.7648    9.4063    0.2509 H   0  0  0  0  0  0  0  0  0  0  0  0
    2.1405    8.6456   -0.6363 H   0  0  0  0  0  0  0  0  0  0  0  0
    0.5521    7.7864   -0.5247 H   0  0  0  0  0  0  0  0  0  0  0  0
    4.4834    7.1595    0.7601 H   0  0  0  0  0  0  0  0  0  0  0  0
   -1.4295   -8.3195   -1.2969 H   0  0  0  0  0  0  0  0  0  0  0  0
   -3.0204   -9.1484   -1.3278 H   0  0  0  0  0  0  0  0  0  0  0  0
   -1.8925   -7.3092   -3.5440 H   0  0  0  0  0  0  0  0  0  0  0  0
   -3.5051   -8.1356   -3.5788 H   0  0  0  0  0  0  0  0  0  0  0  0
   -1.9835   -9.1097   -3.5895 H   0  0  0  0  0  0  0  0  0  0  0  0
   -5.2315   -7.6725   -0.9974 H   0  0  0  0  0  0  0  0  0  0  0  0
   -5.4768   -2.7055    1.0858 H   0  0  0  0  0  0  0  0  0  0  0  0
   -6.2448   -2.7790    3.4064 H   0  0  0  0  0  0  0  0  0  0  0  0
   -4.2027   -1.6119    6.3120 H   0  0  0  0  0  0  0  0  0  0  0  0
   -5.8601   -2.0113    5.7519 H   0  0  0  0  0  0  0  0  0  0  0  0
   -3.5631   -4.0421    6.1502 H   0  0  0  0  0  0  0  0  0  0  0  0
   -4.9463   -3.7691    7.2773 H   0  0  0  0  0  0  0  0  0  0  0  0
   -5.2551   -4.4334    5.6262 H   0  0  0  0  0  0  0  0  0  0  0  0
   -2.2854   -1.7456    4.7565 H   0  0  0  0  0  0  0  0  0  0  0  0
   -1.5004   -1.7030    2.4545 H   0  0  0  0  0  0  0  0  0  0  0  0
   -3.5771   -2.9102   -2.5295 H   0  0  0  0  0  0  0  0  0  0  0  0
   -5.1164   -1.8380   -4.0814 H   0  0  0  0  0  0  0  0  0  0  0  0
   -7.1094   -0.3563   -4.3494 H   0  0  0  0  0  0  0  0  0  0  0  0
   -7.4318    0.9456   -3.1660 H   0  0  0  0  0  0  0  0  0  0  0  0
   -5.0453    0.8478   -5.1277 H   0  0  0  0  0  0  0  0  0  0  0  0
   -6.5309    1.8559   -5.2963 H   0  0  0  0  0  0  0  0  0  0  0  0
   -5.3817    2.1718   -3.9398 H   0  0  0  0  0  0  0  0  0  0  0  0
   -6.0359    1.1620   -1.1357 H   0  0  0  0  0  0  0  0  0  0  0  0
   -4.5127    0.0931    0.4429 H   0  0  0  0  0  0  0  0  0  0  0  0
    1.6027    0.1419    2.3046 H   0  0  0  0  0  0  0  0  0  0  0  0
    3.0995   -0.7150    4.0186 H   0  0  0  0  0  0  0  0  0  0  0  0
  1  2  1  0
  2  3  1  0
  3  4  2  0
  4  5  1  0
  5  6  2  0
  6  7  1  0
  7  8  1  0
  8  9  2  0
  9 10  1  0
 10 11  2  0
 11 12  1  0
 12 13  1  0
 11 14  1  0
 14 15  2  0
  7 16  1  0
 16 17  2  0
 17 18  1  0
 18 19  1  0
 19 20  1  0
 20 21  1  0
 21 22  1  0
 20 23  2  0
 23 24  1  0
 24 25  1  0
 17 26  1  0
 26 27  1  0
 27 28  1  0
 28 29  1  0
 29 30  2  0
 30 31  1  0
 31 32  1  0
 32 33  1  0
 30 34  1  0
 34 35  1  0
 35 36  1  0
 36 37  1  0
 37 38  1  0
 38 39  1  0
 37 40  2  0
 40 41  1  0
 41 42  1  0
 42 43  1  0
 43 44  1  0
 44 45  1  0
 45 46  2  0
 46 47  1  0
 47 48  2  0
 48 49  1  0
 49 50  1  0
 48 51  1  0
 51 52  2  0
 44 53  1  0
 53 54  2  0
 54 55  1  0
 55 56  2  0
 56 57  1  0
 57 58  1  0
 56 59  1  0
 59 60  2  0
  6 61  1  0
 61 62  2  0
 62  3  1  0
 33  7  1  0
 43 34  2  0
 52 45  1  0
 60 53  1  0
 15  8  1  0
 25 16  1  0
 33 26  2  0
 42 36  2  0
 25 19  2  0
 32 28  2  0
 44 29  1  0
  1 63  1  0
  1 64  1  0
  1 65  1  0
  2 66  1  0
  2 67  1  0
  4 68  1  0
  5 69  1  0
  9 70  1  0
 10 71  1  0
 12 72  1  0
 12 73  1  0
 13 74  1  0
 13 75  1  0
 13 76  1  0
 14 77  1  0
 15 78  1  0
 21 79  1  0
 21 80  1  0
 22 81  1  0
 22 82  1  0
 22 83  1  0
 23 84  1  0
 38 85  1  0
 38 86  1  0
 39 87  1  0
 39 88  1  0
 39 89  1  0
 40 90  1  0
 46 91  1  0
 47 92  1  0
 49 93  1  0
 49 94  1  0
 50 95  1  0
 50 96  1  0
 50 97  1  0
 51 98  1  0
 52 99  1  0
 54100  1  0
 55101  1  0
 57102  1  0
 57103  1  0
 58104  1  0
 58105  1  0
 58106  1  0
 59107  1  0
 60108  1  0
 61109  1  0
 62110  1  0
M  END

