
     RDKit          3D

  5  4  0  0  0  0  0  0  0  0999 V2000
    1.1605   -1.3888    2.5698 C   0  0  0  0  0  0  0  0  0  0  0  0
    1.7184   -2.2395    3.0124 H   0  0  0  0  0  0  0  0  0  0  0  0
    0.1411   -1.3484    3.0056 H   0  0  0  0  0  0  0  0  0  0  0  0
    1.0879   -1.5257    1.4713 H   0  0  0  0  0  0  0  0  0  0  0  0
    1.6946   -0.4417    2.7900 H   0  0  0  0  0  0  0  0  0  0  0  0
  1  2  1  0
  1  3  1  0
  1  4  1  0
  1  5  1  0
M  END

