
     RDKit          3D

135148  0  0  0  0  0  0  0  0999 V2000
    5.2737    7.4139    1.4389 C   0  0  0  0  0  0  0  0  0  0  0  0
    4.4855    7.0049    0.1977 C   0  0  0  0  0  0  0  0  0  0  0  0
    4.3742    5.5061    0.1136 C   0  0  0  0  0  0  0  0  0  0  0  0
    5.4164    4.7504   -0.4405 C   0  0  0  0  0  0  0  0  0  0  0  0
    5.3610    3.3545   -0.4305 C   0  0  0  0  0  0  0  0  0  0  0  0
    4.2582    2.6782    0.1312 C   0  0  0  0  0  0  0  0  0  0  0  0
    4.3076    1.1541    0.2761 C   0  0  0  0  0  0  0  0  0  0  0  0
    4.7714    0.4373   -0.9946 C   0  0  0  0  0  0  0  0  0  0  0  0
    5.5289   -0.7538   -0.9403 C   0  0  0  0  0  0  0  0  0  0  0  0
    5.8488   -1.4520   -2.1100 C   0  0  0  0  0  0  0  0  0  0  0  0
    5.4145   -0.9857   -3.3594 C   0  0  0  0  0  0  0  0  0  0  0  0
    5.7024   -1.7753   -4.6085 C   0  0  0  0  0  0  0  0  0  0  0  0
    4.5851   -2.7793   -4.8775 C   0  0  0  0  0  0  0  0  0  0  0  0
    4.6328    0.1758   -3.4203 C   0  0  0  0  0  0  0  0  0  0  0  0
    4.3098    0.8744   -2.2535 C   0  0  0  0  0  0  0  0  0  0  0  0
    2.9875    0.5380    0.7389 C   0  0  0  0  0  0  0  0  0  0  0  0
    1.7975    0.4009    0.0076 C   0  0  0  0  0  0  0  0  0  0  0  0
    0.7212   -0.2019    0.6642 C   0  0  0  0  0  0  0  0  0  0  0  0
    0.7873   -0.6352    1.9950 C   0  0  0  0  0  0  0  0  0  0  0  0
    1.9881   -0.5251    2.7161 C   0  0  0  0  0  0  0  0  0  0  0  0
    3.0714    0.0549    2.0492 C   0  0  0  0  0  0  0  0  0  0  0  0
    4.4241    0.2588    2.4804 C   0  0  0  0  0  0  0  0  0  0  0  0
    5.3559   -0.0426    3.8364 S   0  0  0  0  0  0  0  0  0  0  0  0
    6.7596    0.6226    3.1313 C   0  0  0  0  0  0  0  0  0  0  0  0
    6.4806    1.0717    1.8362 C   0  0  0  0  0  0  0  0  0  0  0  0
    5.1472    0.8428    1.4964 C   0  0  0  0  0  0  0  0  0  0  0  0
   -0.5514   -1.2057    2.4723 C   0  0  0  0  0  0  0  0  0  0  0  0
   -1.1347   -0.2376    3.5157 C   0  0  0  0  0  0  0  0  0  0  0  0
   -2.0940    0.7417    3.1760 C   0  0  0  0  0  0  0  0  0  0  0  0
   -2.5474    1.6614    4.1264 C   0  0  0  0  0  0  0  0  0  0  0  0
   -2.0406    1.6427    5.4318 C   0  0  0  0  0  0  0  0  0  0  0  0
   -2.5059    2.6651    6.4342 C   0  0  0  0  0  0  0  0  0  0  0  0
   -1.9346    4.0478    6.1142 C   0  0  0  0  0  0  0  0  0  0  0  0
   -1.0723    0.6903    5.7765 C   0  0  0  0  0  0  0  0  0  0  0  0
   -0.6185   -0.2331    4.8286 C   0  0  0  0  0  0  0  0  0  0  0  0
   -0.4651   -2.6612    2.9449 C   0  0  0  0  0  0  0  0  0  0  0  0
   -1.3991   -3.1716    3.8727 C   0  0  0  0  0  0  0  0  0  0  0  0
   -1.3776   -4.5173    4.2459 C   0  0  0  0  0  0  0  0  0  0  0  0
   -0.4517   -5.3979    3.6682 C   0  0  0  0  0  0  0  0  0  0  0  0
   -0.4216   -6.8450    4.0837 C   0  0  0  0  0  0  0  0  0  0  0  0
    0.5130   -7.0482    5.2697 C   0  0  0  0  0  0  0  0  0  0  0  0
    0.4627   -4.9109    2.7217 C   0  0  0  0  0  0  0  0  0  0  0  0
    0.4483   -3.5621    2.3529 C   0  0  0  0  0  0  0  0  0  0  0  0
   -1.2907   -1.1663    1.1568 C   0  0  0  0  0  0  0  0  0  0  0  0
   -0.5800   -0.5450    0.1686 C   0  0  0  0  0  0  0  0  0  0  0  0
   -1.3509   -0.5835   -1.3463 S   0  0  0  0  0  0  0  0  0  0  0  0
   -2.6658   -1.4136   -0.6643 C   0  0  0  0  0  0  0  0  0  0  0  0
   -3.8432   -1.9415   -1.1550 C   0  0  0  0  0  0  0  0  0  0  0  0
   -4.5410   -2.5869   -0.1696 C   0  0  0  0  0  0  0  0  0  0  0  0
   -3.7771   -2.5477    1.3484 S   0  0  0  0  0  0  0  0  0  0  0  0
   -2.4877   -1.6662    0.6782 C   0  0  0  0  0  0  0  0  0  0  0  0
   -5.7715   -3.0459   -0.7358 C   0  0  0  0  0  0  0  0  0  0  0  0
   -7.1788   -3.8021   -0.2470 S   0  0  0  0  0  0  0  0  0  0  0  0
   -7.8905   -3.6694   -1.7924 C   0  0  0  0  0  0  0  0  0  0  0  0
   -7.0200   -3.0155   -2.6734 C   0  0  0  0  0  0  0  0  0  0  0  0
   -5.8241   -2.6732   -2.0449 C   0  0  0  0  0  0  0  0  0  0  0  0
   -4.5831   -1.9024   -2.4820 C   0  0  0  0  0  0  0  0  0  0  0  0
   -4.8693   -0.4378   -2.8295 C   0  0  0  0  0  0  0  0  0  0  0  0
   -3.9360    0.3059   -3.5809 C   0  0  0  0  0  0  0  0  0  0  0  0
   -4.1332    1.6674   -3.8235 C   0  0  0  0  0  0  0  0  0  0  0  0
   -5.2617    2.3217   -3.3145 C   0  0  0  0  0  0  0  0  0  0  0  0
   -5.4513    3.7975   -3.5413 C   0  0  0  0  0  0  0  0  0  0  0  0
   -4.7645    4.6048   -2.4441 C   0  0  0  0  0  0  0  0  0  0  0  0
   -6.1706    1.6063   -2.5251 C   0  0  0  0  0  0  0  0  0  0  0  0
   -5.9751    0.2447   -2.2777 C   0  0  0  0  0  0  0  0  0  0  0  0
   -3.9004   -2.6803   -3.6112 C   0  0  0  0  0  0  0  0  0  0  0  0
   -4.4252   -2.6058   -4.9182 C   0  0  0  0  0  0  0  0  0  0  0  0
   -3.8716   -3.3578   -5.9582 C   0  0  0  0  0  0  0  0  0  0  0  0
   -2.7822   -4.2057   -5.7161 C   0  0  0  0  0  0  0  0  0  0  0  0
   -2.2314   -5.0710   -6.8180 C   0  0  0  0  0  0  0  0  0  0  0  0
   -2.9035   -6.4405   -6.8124 C   0  0  0  0  0  0  0  0  0  0  0  0
   -2.2656   -4.3059   -4.4161 C   0  0  0  0  0  0  0  0  0  0  0  0
   -2.8203   -3.5586   -3.3736 C   0  0  0  0  0  0  0  0  0  0  0  0
    3.2168    3.4502    0.6925 C   0  0  0  0  0  0  0  0  0  0  0  0
    3.2747    4.8462    0.6785 C   0  0  0  0  0  0  0  0  0  0  0  0
    5.3256    8.5202    1.4999 H   0  0  0  0  0  0  0  0  0  0  0  0
    6.3099    7.0117    1.3885 H   0  0  0  0  0  0  0  0  0  0  0  0
    4.7797    7.0279    2.3550 H   0  0  0  0  0  0  0  0  0  0  0  0
    3.4743    7.4638    0.2410 H   0  0  0  0  0  0  0  0  0  0  0  0
    4.9941    7.4009   -0.7079 H   0  0  0  0  0  0  0  0  0  0  0  0
    6.2862    5.2428   -0.8577 H   0  0  0  0  0  0  0  0  0  0  0  0
    6.1977    2.7989   -0.8360 H   0  0  0  0  0  0  0  0  0  0  0  0
    5.8581   -1.1647    0.0048 H   0  0  0  0  0  0  0  0  0  0  0  0
    6.4241   -2.3675   -2.0396 H   0  0  0  0  0  0  0  0  0  0  0  0
    5.7966   -1.0896   -5.4787 H   0  0  0  0  0  0  0  0  0  0  0  0
    6.6664   -2.3213   -4.5045 H   0  0  0  0  0  0  0  0  0  0  0  0
    4.4820   -3.4845   -4.0263 H   0  0  0  0  0  0  0  0  0  0  0  0
    3.6208   -2.2518   -5.0342 H   0  0  0  0  0  0  0  0  0  0  0  0
    4.8192   -3.3616   -5.7932 H   0  0  0  0  0  0  0  0  0  0  0  0
    4.2552    0.5321   -4.3725 H   0  0  0  0  0  0  0  0  0  0  0  0
    3.6778    1.7506   -2.3339 H   0  0  0  0  0  0  0  0  0  0  0  0
    1.7147    0.7348   -1.0175 H   0  0  0  0  0  0  0  0  0  0  0  0
    2.0802   -0.8866    3.7301 H   0  0  0  0  0  0  0  0  0  0  0  0
    7.7226    0.6935    3.6166 H   0  0  0  0  0  0  0  0  0  0  0  0
    7.2062    1.5383    1.1866 H   0  0  0  0  0  0  0  0  0  0  0  0
   -2.4967    0.8159    2.1763 H   0  0  0  0  0  0  0  0  0  0  0  0
   -3.2899    2.3960    3.8373 H   0  0  0  0  0  0  0  0  0  0  0  0
   -3.6187    2.7181    6.4261 H   0  0  0  0  0  0  0  0  0  0  0  0
   -2.1910    2.3821    7.4642 H   0  0  0  0  0  0  0  0  0  0  0  0
   -2.3148    4.4046    5.1286 H   0  0  0  0  0  0  0  0  0  0  0  0
   -0.8238    4.0051    6.0825 H   0  0  0  0  0  0  0  0  0  0  0  0
   -2.2382    4.7672    6.8990 H   0  0  0  0  0  0  0  0  0  0  0  0
   -0.6609    0.6625    6.7778 H   0  0  0  0  0  0  0  0  0  0  0  0
    0.1343   -0.9517    5.1230 H   0  0  0  0  0  0  0  0  0  0  0  0
   -2.1618   -2.5336    4.3024 H   0  0  0  0  0  0  0  0  0  0  0  0
   -2.0939   -4.8753    4.9765 H   0  0  0  0  0  0  0  0  0  0  0  0
   -0.0817   -7.4787    3.2365 H   0  0  0  0  0  0  0  0  0  0  0  0
   -1.4443   -7.1828    4.3606 H   0  0  0  0  0  0  0  0  0  0  0  0
    0.2024   -6.4044    6.1235 H   0  0  0  0  0  0  0  0  0  0  0  0
    1.5571   -6.7943    4.9818 H   0  0  0  0  0  0  0  0  0  0  0  0
    0.4801   -8.1090    5.5908 H   0  0  0  0  0  0  0  0  0  0  0  0
    1.1816   -5.5808    2.2634 H   0  0  0  0  0  0  0  0  0  0  0  0
    1.1442   -3.2295    1.5924 H   0  0  0  0  0  0  0  0  0  0  0  0
   -8.8780   -4.0241   -2.0523 H   0  0  0  0  0  0  0  0  0  0  0  0
   -7.2557   -2.7815   -3.7017 H   0  0  0  0  0  0  0  0  0  0  0  0
   -3.0402   -0.1641   -3.9670 H   0  0  0  0  0  0  0  0  0  0  0  0
   -3.3980    2.2139   -4.4013 H   0  0  0  0  0  0  0  0  0  0  0  0
   -6.5366    4.0455   -3.5522 H   0  0  0  0  0  0  0  0  0  0  0  0
   -5.0339    4.0912   -4.5295 H   0  0  0  0  0  0  0  0  0  0  0  0
   -4.9285    5.6880   -2.6186 H   0  0  0  0  0  0  0  0  0  0  0  0
   -3.6708    4.4048   -2.4478 H   0  0  0  0  0  0  0  0  0  0  0  0
   -5.1813    4.3372   -1.4500 H   0  0  0  0  0  0  0  0  0  0  0  0
   -7.0264    2.1066   -2.0882 H   0  0  0  0  0  0  0  0  0  0  0  0
   -6.6828   -0.2608   -1.6356 H   0  0  0  0  0  0  0  0  0  0  0  0
   -5.2755   -1.9699   -5.1315 H   0  0  0  0  0  0  0  0  0  0  0  0
   -4.3011   -3.2878   -6.9504 H   0  0  0  0  0  0  0  0  0  0  0  0
   -1.1351   -5.2019   -6.6850 H   0  0  0  0  0  0  0  0  0  0  0  0
   -2.3904   -4.5882   -7.8060 H   0  0  0  0  0  0  0  0  0  0  0  0
   -2.4777   -7.0690   -7.6220 H   0  0  0  0  0  0  0  0  0  0  0  0
   -3.9956   -6.3321   -6.9821 H   0  0  0  0  0  0  0  0  0  0  0  0
   -2.7344   -6.9505   -5.8399 H   0  0  0  0  0  0  0  0  0  0  0  0
   -1.4423   -4.9795   -4.2072 H   0  0  0  0  0  0  0  0  0  0  0  0
   -2.4065   -3.6874   -2.3828 H   0  0  0  0  0  0  0  0  0  0  0  0
    2.3668    2.9873    1.1733 H   0  0  0  0  0  0  0  0  0  0  0  0
    2.4710    5.4140    1.1322 H   0  0  0  0  0  0  0  0  0  0  0  0
  1  2  1  0
  2  3  1  0
  3  4  2  0
  4  5  1  0
  5  6  2  0
  6  7  1  0
  7  8  1  0
  8  9  2  0
  9 10  1  0
 10 11  2  0
 11 12  1  0
 12 13  1  0
 11 14  1  0
 14 15  2  0
  7 16  1  0
 16 17  2  0
 17 18  1  0
 18 19  2  0
 19 20  1  0
 20 21  2  0
 21 22  1  0
 22 23  1  0
 23 24  1  0
 24 25  2  0
 25 26  1  0
 19 27  1  0
 27 28  1  0
 28 29  2  0
 29 30  1  0
 30 31  2  0
 31 32  1  0
 32 33  1  0
 31 34  1  0
 34 35  2  0
 27 36  1  0
 36 37  2  0
 37 38  1  0
 38 39  2  0
 39 40  1  0
 40 41  1  0
 39 42  1  0
 42 43  2  0
 27 44  1  0
 44 45  2  0
 45 46  1  0
 46 47  1  0
 47 48  1  0
 48 49  2  0
 49 50  1  0
 50 51  1  0
 49 52  1  0
 52 53  1  0
 53 54  1  0
 54 55  2  0
 55 56  1  0
 56 57  1  0
 57 58  1  0
 58 59  2  0
 59 60  1  0
 60 61  2  0
 61 62  1  0
 62 63  1  0
 61 64  1  0
 64 65  2  0
 57 66  1  0
 66 67  2  0
 67 68  1  0
 68 69  2  0
 69 70  1  0
 70 71  1  0
 69 72  1  0
 72 73  2  0
  6 74  1  0
 74 75  2  0
 75  3  1  0
 26  7  1  0
 35 28  1  0
 43 36  1  0
 51 44  1  0
 56 52  2  0
 65 58  1  0
 73 66  1  0
 15  8  1  0
 21 16  1  0
 26 22  2  0
 51 47  2  0
 45 18  1  0
 57 48  1  0
  1 76  1  0
  1 77  1  0
  1 78  1  0
  2 79  1  0
  2 80  1  0
  4 81  1  0
  5 82  1  0
  9 83  1  0
 10 84  1  0
 12 85  1  0
 12 86  1  0
 13 87  1  0
 13 88  1  0
 13 89  1  0
 14 90  1  0
 15 91  1  0
 17 92  1  0
 20 93  1  0
 24 94  1  0
 25 95  1  0
 29 96  1  0
 30 97  1  0
 32 98  1  0
 32 99  1  0
 33100  1  0
 33101  1  0
 33102  1  0
 34103  1  0
 35104  1  0
 37105  1  0
 38106  1  0
 40107  1  0
 40108  1  0
 41109  1  0
 41110  1  0
 41111  1  0
 42112  1  0
 43113  1  0
 54114  1  0
 55115  1  0
 59116  1  0
 60117  1  0
 62118  1  0
 62119  1  0
 63120  1  0
 63121  1  0
 63122  1  0
 64123  1  0
 65124  1  0
 67125  1  0
 68126  1  0
 70127  1  0
 70128  1  0
 71129  1  0
 71130  1  0
 71131  1  0
 72132  1  0
 73133  1  0
 74134  1  0
 75135  1  0
M  END

