
     RDKit          3D

 96104  0  0  0  0  0  0  0  0999 V2000
    6.9850    5.7899   -1.8428 C   0  0  0  0  0  0  0  0  0  0  0  0
    6.5826    4.3366   -2.0269 C   0  0  0  0  0  0  0  0  0  0  0  0
    5.2172    4.1720   -1.6507 O   0  0  0  0  0  0  0  0  0  0  0  0
    4.5441    2.9416   -1.6231 C   0  0  0  0  0  0  0  0  0  0  0  0
    5.1387    1.7448   -2.0555 C   0  0  0  0  0  0  0  0  0  0  0  0
    4.4412    0.5370   -1.9698 C   0  0  0  0  0  0  0  0  0  0  0  0
    3.1298    0.4924   -1.4547 C   0  0  0  0  0  0  0  0  0  0  0  0
    2.4470   -0.8674   -1.2554 C   0  0  0  0  0  0  0  0  0  0  0  0
    2.5095   -1.7727   -2.4927 C   0  0  0  0  0  0  0  0  0  0  0  0
    2.5459   -3.1775   -2.3767 C   0  0  0  0  0  0  0  0  0  0  0  0
    2.5322   -3.9901   -3.5139 C   0  0  0  0  0  0  0  0  0  0  0  0
    2.4590   -3.4291   -4.7913 C   0  0  0  0  0  0  0  0  0  0  0  0
    2.4527   -4.2947   -5.8973 O   0  0  0  0  0  0  0  0  0  0  0  0
    2.4991   -3.8925   -7.2652 C   0  0  0  0  0  0  0  0  0  0  0  0
    3.8970   -3.4162   -7.6458 C   0  0  0  0  0  0  0  0  0  0  0  0
    2.3774   -2.0317   -4.9170 C   0  0  0  0  0  0  0  0  0  0  0  0
    2.3897   -1.2172   -3.7829 C   0  0  0  0  0  0  0  0  0  0  0  0
    0.9942   -0.7604   -0.7910 C   0  0  0  0  0  0  0  0  0  0  0  0
   -0.1223   -0.3371   -1.5337 C   0  0  0  0  0  0  0  0  0  0  0  0
   -1.3551   -0.3383   -0.8721 C   0  0  0  0  0  0  0  0  0  0  0  0
   -1.4989   -0.7326    0.4632 C   0  0  0  0  0  0  0  0  0  0  0  0
   -0.3870   -1.1879    1.1919 C   0  0  0  0  0  0  0  0  0  0  0  0
    0.8429   -1.1913    0.5307 C   0  0  0  0  0  0  0  0  0  0  0  0
    2.1286   -1.6464    0.9722 C   0  0  0  0  0  0  0  0  0  0  0  0
    2.7884   -2.3691    2.3274 S   0  0  0  0  0  0  0  0  0  0  0  0
    4.3357   -2.4906    1.6227 C   0  0  0  0  0  0  0  0  0  0  0  0
    4.3138   -1.9690    0.3241 C   0  0  0  0  0  0  0  0  0  0  0  0
    3.0434   -1.5012   -0.0135 C   0  0  0  0  0  0  0  0  0  0  0  0
   -2.9574   -0.6630    0.9209 C   0  0  0  0  0  0  0  0  0  0  0  0
   -3.5252   -2.0247    1.3337 C   0  0  0  0  0  0  0  0  0  0  0  0
   -3.0078   -3.2231    0.7957 C   0  0  0  0  0  0  0  0  0  0  0  0
   -3.5534   -4.4583    1.1538 C   0  0  0  0  0  0  0  0  0  0  0  0
   -4.6224   -4.5320    2.0506 C   0  0  0  0  0  0  0  0  0  0  0  0
   -5.0998   -5.8011    2.4123 O   0  0  0  0  0  0  0  0  0  0  0  0
   -6.0152   -6.0786    3.4727 C   0  0  0  0  0  0  0  0  0  0  0  0
   -5.3556   -5.8584    4.8327 C   0  0  0  0  0  0  0  0  0  0  0  0
   -5.1822   -3.3434    2.5458 C   0  0  0  0  0  0  0  0  0  0  0  0
   -4.6568   -2.1035    2.1721 C   0  0  0  0  0  0  0  0  0  0  0  0
   -3.0645    0.4059    2.0196 C   0  0  0  0  0  0  0  0  0  0  0  0
   -3.4608    1.7305    1.7434 C   0  0  0  0  0  0  0  0  0  0  0  0
   -3.4953    2.6963    2.7510 C   0  0  0  0  0  0  0  0  0  0  0  0
   -3.1200    2.3648    4.0675 C   0  0  0  0  0  0  0  0  0  0  0  0
   -3.1511    3.2917    5.1233 O   0  0  0  0  0  0  0  0  0  0  0  0
   -3.7552    4.5853    5.0680 C   0  0  0  0  0  0  0  0  0  0  0  0
   -5.2765    4.4714    5.0626 C   0  0  0  0  0  0  0  0  0  0  0  0
   -2.6894    1.0641    4.3436 C   0  0  0  0  0  0  0  0  0  0  0  0
   -2.6629    0.0961    3.3375 C   0  0  0  0  0  0  0  0  0  0  0  0
   -3.5922   -0.2462   -0.3891 C   0  0  0  0  0  0  0  0  0  0  0  0
   -4.9097   -0.0791   -0.8153 C   0  0  0  0  0  0  0  0  0  0  0  0
   -4.9648    0.2596   -2.1730 C   0  0  0  0  0  0  0  0  0  0  0  0
   -3.3907    0.3309   -2.8262 S   0  0  0  0  0  0  0  0  0  0  0  0
   -2.6713   -0.0385   -1.3601 C   0  0  0  0  0  0  0  0  0  0  0  0
    2.5403    1.7042   -1.0288 C   0  0  0  0  0  0  0  0  0  0  0  0
    3.2391    2.9111   -1.1280 C   0  0  0  0  0  0  0  0  0  0  0  0
    8.0478    5.9246   -2.1301 H   0  0  0  0  0  0  0  0  0  0  0  0
    6.8552    6.0857   -0.7793 H   0  0  0  0  0  0  0  0  0  0  0  0
    6.3545    6.4382   -2.4854 H   0  0  0  0  0  0  0  0  0  0  0  0
    6.7215    4.0477   -3.0917 H   0  0  0  0  0  0  0  0  0  0  0  0
    7.2312    3.7043   -1.3843 H   0  0  0  0  0  0  0  0  0  0  0  0
    6.1484    1.7346   -2.4359 H   0  0  0  0  0  0  0  0  0  0  0  0
    4.9348   -0.3719   -2.2894 H   0  0  0  0  0  0  0  0  0  0  0  0
    2.5633   -3.6579   -1.4073 H   0  0  0  0  0  0  0  0  0  0  0  0
    2.5677   -5.0659   -3.4034 H   0  0  0  0  0  0  0  0  0  0  0  0
    1.7411   -3.1098   -7.4759 H   0  0  0  0  0  0  0  0  0  0  0  0
    2.2437   -4.7698   -7.8940 H   0  0  0  0  0  0  0  0  0  0  0  0
    4.1506   -2.4794   -7.1068 H   0  0  0  0  0  0  0  0  0  0  0  0
    3.9371   -3.2200   -8.7410 H   0  0  0  0  0  0  0  0  0  0  0  0
    4.6481   -4.1952   -7.3864 H   0  0  0  0  0  0  0  0  0  0  0  0
    2.2811   -1.5595   -5.8825 H   0  0  0  0  0  0  0  0  0  0  0  0
    2.2998   -0.1461   -3.9164 H   0  0  0  0  0  0  0  0  0  0  0  0
   -0.0351   -0.0334   -2.5687 H   0  0  0  0  0  0  0  0  0  0  0  0
   -0.4772   -1.5373    2.2110 H   0  0  0  0  0  0  0  0  0  0  0  0
    5.2079   -2.9118    2.1089 H   0  0  0  0  0  0  0  0  0  0  0  0
    5.1741   -1.9403   -0.3303 H   0  0  0  0  0  0  0  0  0  0  0  0
   -2.1836   -3.2113    0.0928 H   0  0  0  0  0  0  0  0  0  0  0  0
   -3.1342   -5.3662    0.7386 H   0  0  0  0  0  0  0  0  0  0  0  0
   -6.3102   -7.1466    3.3990 H   0  0  0  0  0  0  0  0  0  0  0  0
   -6.9353   -5.4671    3.3726 H   0  0  0  0  0  0  0  0  0  0  0  0
   -6.0048   -6.2699    5.6333 H   0  0  0  0  0  0  0  0  0  0  0  0
   -5.2035   -4.7811    5.0199 H   0  0  0  0  0  0  0  0  0  0  0  0
   -4.3755   -6.3673    4.8666 H   0  0  0  0  0  0  0  0  0  0  0  0
   -6.0322   -3.3642    3.2092 H   0  0  0  0  0  0  0  0  0  0  0  0
   -5.1334   -1.2045    2.5481 H   0  0  0  0  0  0  0  0  0  0  0  0
   -3.7383    2.0337    0.7442 H   0  0  0  0  0  0  0  0  0  0  0  0
   -3.8081    3.6971    2.4909 H   0  0  0  0  0  0  0  0  0  0  0  0
   -3.4528    5.1514    5.9733 H   0  0  0  0  0  0  0  0  0  0  0  0
   -3.3953    5.1504    4.1830 H   0  0  0  0  0  0  0  0  0  0  0  0
   -5.6169    3.8956    5.9527 H   0  0  0  0  0  0  0  0  0  0  0  0
   -5.6229    3.9580    4.1415 H   0  0  0  0  0  0  0  0  0  0  0  0
   -5.7289    5.4850    5.0874 H   0  0  0  0  0  0  0  0  0  0  0  0
   -2.3780    0.7989    5.3470 H   0  0  0  0  0  0  0  0  0  0  0  0
   -2.3329   -0.9024    3.5928 H   0  0  0  0  0  0  0  0  0  0  0  0
   -5.7771   -0.2130   -0.1821 H   0  0  0  0  0  0  0  0  0  0  0  0
   -5.8771    0.4282   -2.7297 H   0  0  0  0  0  0  0  0  0  0  0  0
    1.5536    1.7283   -0.5888 H   0  0  0  0  0  0  0  0  0  0  0  0
    2.7705    3.8282   -0.7963 H   0  0  0  0  0  0  0  0  0  0  0  0
  1  2  1  0
  2  3  1  0
  3  4  1  0
  4  5  2  0
  5  6  1  0
  6  7  2  0
  7  8  1  0
  8  9  1  0
  9 10  2  0
 10 11  1  0
 11 12  2  0
 12 13  1  0
 13 14  1  0
 14 15  1  0
 12 16  1  0
 16 17  2  0
  8 18  1  0
 18 19  2  0
 19 20  1  0
 20 21  2  0
 21 22  1  0
 22 23  2  0
 23 24  1  0
 24 25  1  0
 25 26  1  0
 26 27  2  0
 27 28  1  0
 21 29  1  0
 29 30  1  0
 30 31  2  0
 31 32  1  0
 32 33  2  0
 33 34  1  0
 34 35  1  0
 35 36  1  0
 33 37  1  0
 37 38  2  0
 29 39  1  0
 39 40  2  0
 40 41  1  0
 41 42  2  0
 42 43  1  0
 43 44  1  0
 44 45  1  0
 42 46  1  0
 46 47  2  0
 29 48  1  0
 48 49  1  0
 49 50  2  0
 50 51  1  0
 51 52  1  0
  7 53  1  0
 53 54  2  0
 54  4  1  0
 28  8  1  0
 38 30  1  0
 47 39  1  0
 52 48  2  0
 17  9  1  0
 23 18  1  0
 28 24  2  0
 52 20  1  0
  1 55  1  0
  1 56  1  0
  1 57  1  0
  2 58  1  0
  2 59  1  0
  5 60  1  0
  6 61  1  0
 10 62  1  0
 11 63  1  0
 14 64  1  0
 14 65  1  0
 15 66  1  0
 15 67  1  0
 15 68  1  0
 16 69  1  0
 17 70  1  0
 19 71  1  0
 22 72  1  0
 26 73  1  0
 27 74  1  0
 31 75  1  0
 32 76  1  0
 35 77  1  0
 35 78  1  0
 36 79  1  0
 36 80  1  0
 36 81  1  0
 37 82  1  0
 38 83  1  0
 40 84  1  0
 41 85  1  0
 44 86  1  0
 44 87  1  0
 45 88  1  0
 45 89  1  0
 45 90  1  0
 46 91  1  0
 47 92  1  0
 49 93  1  0
 50 94  1  0
 53 95  1  0
 54 96  1  0
M  END

