
     RDKit          3D

 18 18  0  0  0  0  0  0  0  0999 V2000
   -0.4913    1.1390    3.3744 C   0  0  0  0  0  0  0  0  0  0  0  0
    0.5179   -0.0027    3.3381 C   0  0  0  0  0  0  0  0  0  0  0  0
    0.7185   -0.4549    2.0004 O   0  0  0  0  0  0  0  0  0  0  0  0
    1.4816    0.2427    1.0560 C   0  0  0  0  0  0  0  0  0  0  0  0
    2.0819    1.3048    1.3776 O   0  0  0  0  0  0  0  0  0  0  0  0
    1.5878   -0.2738   -0.3183 C   0  0  0  0  0  0  0  0  0  0  0  0
    2.3337    0.3560   -1.3292 C   0  0  0  0  0  0  0  0  0  0  0  0
    2.2903   -0.3076   -2.5472 C   0  0  0  0  0  0  0  0  0  0  0  0
    1.3270   -1.6717   -2.3642 S   0  0  0  0  0  0  0  0  0  0  0  0
    0.9543   -1.4381   -0.7426 C   0  0  0  0  0  0  0  0  0  0  0  0
   -0.1040    2.0167    2.8163 H   0  0  0  0  0  0  0  0  0  0  0  0
   -0.6770    1.4396    4.4270 H   0  0  0  0  0  0  0  0  0  0  0  0
   -1.4498    0.8116    2.9189 H   0  0  0  0  0  0  0  0  0  0  0  0
    0.1223   -0.8472    3.9408 H   0  0  0  0  0  0  0  0  0  0  0  0
    1.4824    0.3194    3.7875 H   0  0  0  0  0  0  0  0  0  0  0  0
    2.8920    1.2715   -1.1822 H   0  0  0  0  0  0  0  0  0  0  0  0
    2.7904    0.0020   -3.4548 H   0  0  0  0  0  0  0  0  0  0  0  0
    0.3299   -2.0837   -0.1393 H   0  0  0  0  0  0  0  0  0  0  0  0
  1  2  1  0
  2  3  1  0
  3  4  1  0
  4  5  2  0
  4  6  1  0
  6  7  1  0
  7  8  2  0
  8  9  1  0
  9 10  1  0
 10  6  2  0
  1 11  1  0
  1 12  1  0
  1 13  1  0
  2 14  1  0
  2 15  1  0
  7 16  1  0
  8 17  1  0
 10 18  1  0
M  END

