
     RDKit          3D

 22 23  0  0  0  0  0  0  0  0999 V2000
   -0.1461   -2.8844    1.9115 C   0  0  0  0  0  0  0  0  0  0  0  0
    0.0884   -1.7294    1.2810 C   0  0  0  0  0  0  0  0  0  0  0  0
    0.8857   -1.6304    0.0626 C   0  0  0  0  0  0  0  0  0  0  0  0
    1.2986   -2.5951   -0.6354 O   0  0  0  0  0  0  0  0  0  0  0  0
    1.1704   -0.2335   -0.1796 C   0  0  0  0  0  0  0  0  0  0  0  0
    1.9655    0.3194   -1.1817 C   0  0  0  0  0  0  0  0  0  0  0  0
    2.1733    1.7058   -1.1887 C   0  0  0  0  0  0  0  0  0  0  0  0
    3.2654    2.4583   -2.5710 Br  0  0  0  0  0  0  0  0  0  0  0  0
    1.5982    2.5097   -0.1778 C   0  0  0  0  0  0  0  0  0  0  0  0
    1.8870    4.4032   -0.1232 Br  0  0  0  0  0  0  0  0  0  0  0  0
    0.8055    1.9252    0.8260 C   0  0  0  0  0  0  0  0  0  0  0  0
    0.5741    0.5402    0.8029 C   0  0  0  0  0  0  0  0  0  0  0  0
   -0.2087   -0.3341    1.7284 C   0  0  0  0  0  0  0  0  0  0  0  0
   -1.1343    0.0573    2.6433 C   0  0  0  0  0  0  0  0  0  0  0  0
   -1.4277    1.4405    2.9105 C   0  0  0  0  0  0  0  0  0  0  0  0
   -1.6792    2.5478    3.1366 N   0  0  0  0  0  0  0  0  0  0  0  0
   -1.9799   -0.8781    3.3380 C   0  0  0  0  0  0  0  0  0  0  0  0
   -2.6693   -1.6189    3.9004 N   0  0  0  0  0  0  0  0  0  0  0  0
    0.1854   -3.8188    1.4767 H   0  0  0  0  0  0  0  0  0  0  0  0
   -0.6082   -2.9364    2.8820 H   0  0  0  0  0  0  0  0  0  0  0  0
    2.4220   -0.3121   -1.9332 H   0  0  0  0  0  0  0  0  0  0  0  0
    0.4205    2.5564    1.6072 H   0  0  0  0  0  0  0  0  0  0  0  0
  1  2  2  3
  2  3  1  0
  3  4  2  0
  3  5  1  0
  5  6  2  0
  6  7  1  0
  7  8  1  0
  7  9  2  0
  9 10  1  0
  9 11  1  0
 11 12  2  0
 12 13  1  0
 13 14  2  3
 14 15  1  0
 15 16  3  0
 14 17  1  0
 17 18  3  0
 13  2  1  0
 12  5  1  0
  1 19  1  0
  1 20  1  0
  6 21  1  0
 11 22  1  0
M  END

