
     RDKit          3D

 12 12  0  0  0  0  0  0  0  0999 V2000
    1.2066   -0.6977    2.3837 C   0  0  0  0  0  0  0  0  0  0  0  0
    0.4503   -1.6148    1.6459 C   0  0  0  0  0  0  0  0  0  0  0  0
    0.5968   -1.6848    0.2563 C   0  0  0  0  0  0  0  0  0  0  0  0
    1.4995   -0.8377   -0.3955 C   0  0  0  0  0  0  0  0  0  0  0  0
    2.2557    0.0794    0.3423 C   0  0  0  0  0  0  0  0  0  0  0  0
    2.1093    0.1494    1.7319 C   0  0  0  0  0  0  0  0  0  0  0  0
    1.0933   -0.6436    3.4587 H   0  0  0  0  0  0  0  0  0  0  0  0
   -0.2480   -2.2702    2.1501 H   0  0  0  0  0  0  0  0  0  0  0  0
    0.0117   -2.3943   -0.3145 H   0  0  0  0  0  0  0  0  0  0  0  0
    1.6128   -0.8918   -1.4706 H   0  0  0  0  0  0  0  0  0  0  0  0
    2.9541    0.7348   -0.1620 H   0  0  0  0  0  0  0  0  0  0  0  0
    2.6943    0.8589    2.3026 H   0  0  0  0  0  0  0  0  0  0  0  0
  1  2  2  0
  2  3  1  0
  3  4  2  0
  4  5  1  0
  5  6  2  0
  6  1  1  0
  1  7  1  0
  2  8  1  0
  3  9  1  0
  4 10  1  0
  5 11  1  0
  6 12  1  0
M  END

