
     RDKit          3D

 75 81  0  0  0  0  0  0  0  0999 V2000
    0.9601    1.0095    4.6335 C   0  0  0  0  0  0  0  0  0  0  0  0
   -0.1711    0.6229    3.6778 C   0  0  0  0  0  0  0  0  0  0  0  0
    0.0748   -0.6583    2.8266 C   0  0  0  0  0  0  0  0  0  0  0  0
    0.4155   -1.9408    3.6430 C   0  0  0  0  0  0  0  0  0  0  0  0
   -0.6030   -2.3339    4.7158 C   0  0  0  0  0  0  0  0  0  0  0  0
    1.1609   -0.4371    1.7811 C   0  0  0  0  0  0  0  0  0  0  0  0
    2.5443   -0.2919    1.9888 C   0  0  0  0  0  0  0  0  0  0  0  0
    3.3478   -0.1648    0.8531 C   0  0  0  0  0  0  0  0  0  0  0  0
    2.8362   -0.1886   -0.4462 C   0  0  0  0  0  0  0  0  0  0  0  0
    1.4647   -0.4077   -0.6522 C   0  0  0  0  0  0  0  0  0  0  0  0
    0.6531   -0.5228    0.4854 C   0  0  0  0  0  0  0  0  0  0  0  0
   -0.7599   -0.7981    0.5642 C   0  0  0  0  0  0  0  0  0  0  0  0
   -1.6914   -0.9240   -0.4767 C   0  0  0  0  0  0  0  0  0  0  0  0
   -3.0294   -1.1216   -0.1125 C   0  0  0  0  0  0  0  0  0  0  0  0
   -3.3966   -1.1709    1.2341 C   0  0  0  0  0  0  0  0  0  0  0  0
   -2.4726   -1.0370    2.2726 C   0  0  0  0  0  0  0  0  0  0  0  0
   -1.1218   -0.8777    1.9098 C   0  0  0  0  0  0  0  0  0  0  0  0
   -4.8235   -1.3432    1.2720 C   0  0  0  0  0  0  0  0  0  0  0  0
   -6.0296   -1.4855    2.4224 S   0  0  0  0  0  0  0  0  0  0  0  0
   -7.2598   -1.6324    1.2499 C   0  0  0  0  0  0  0  0  0  0  0  0
   -6.7083   -1.5668   -0.0356 C   0  0  0  0  0  0  0  0  0  0  0  0
   -5.3261   -1.4030    0.0162 C   0  0  0  0  0  0  0  0  0  0  0  0
   -4.2423   -1.2672   -1.0277 C   0  0  0  0  0  0  0  0  0  0  0  0
   -4.1445   -2.5351   -1.9161 C   0  0  0  0  0  0  0  0  0  0  0  0
   -3.9193   -3.8380   -1.1391 C   0  0  0  0  0  0  0  0  0  0  0  0
   -4.4564   -0.0079   -1.9086 C   0  0  0  0  0  0  0  0  0  0  0  0
   -4.5515    1.3065   -1.1239 C   0  0  0  0  0  0  0  0  0  0  0  0
    3.9474   -0.0743   -1.4957 C   0  0  0  0  0  0  0  0  0  0  0  0
    3.8565    1.2592   -2.2916 C   0  0  0  0  0  0  0  0  0  0  0  0
    2.6641    1.3729   -3.2443 C   0  0  0  0  0  0  0  0  0  0  0  0
    3.9798   -1.3629   -2.3651 C   0  0  0  0  0  0  0  0  0  0  0  0
    5.0800   -1.3959   -3.4283 C   0  0  0  0  0  0  0  0  0  0  0  0
    5.1408   -0.0091   -0.5619 C   0  0  0  0  0  0  0  0  0  0  0  0
    6.4985    0.2626   -0.7433 C   0  0  0  0  0  0  0  0  0  0  0  0
    7.1683    0.3792    0.4801 C   0  0  0  0  0  0  0  0  0  0  0  0
    6.0672    0.1971    1.7663 S   0  0  0  0  0  0  0  0  0  0  0  0
    4.7724   -0.0662    0.7397 C   0  0  0  0  0  0  0  0  0  0  0  0
    1.8488    1.3595    4.0727 H   0  0  0  0  0  0  0  0  0  0  0  0
    1.2344    0.1688    5.3017 H   0  0  0  0  0  0  0  0  0  0  0  0
    0.6211    1.8522    5.2722 H   0  0  0  0  0  0  0  0  0  0  0  0
   -0.3535    1.4849    2.9978 H   0  0  0  0  0  0  0  0  0  0  0  0
   -1.0977    0.5009    4.2776 H   0  0  0  0  0  0  0  0  0  0  0  0
    1.4015   -1.8171    4.1385 H   0  0  0  0  0  0  0  0  0  0  0  0
    0.5253   -2.8008    2.9451 H   0  0  0  0  0  0  0  0  0  0  0  0
   -0.1874   -3.1677    5.3200 H   0  0  0  0  0  0  0  0  0  0  0  0
   -0.8163   -1.4918    5.4042 H   0  0  0  0  0  0  0  0  0  0  0  0
   -1.5411   -2.6996    4.2543 H   0  0  0  0  0  0  0  0  0  0  0  0
    2.9828   -0.3156    2.9766 H   0  0  0  0  0  0  0  0  0  0  0  0
    1.0517   -0.5172   -1.6450 H   0  0  0  0  0  0  0  0  0  0  0  0
   -1.3970   -0.8549   -1.5152 H   0  0  0  0  0  0  0  0  0  0  0  0
   -2.7965   -1.0308    3.3038 H   0  0  0  0  0  0  0  0  0  0  0  0
   -8.3122   -1.7567    1.4653 H   0  0  0  0  0  0  0  0  0  0  0  0
   -7.2810   -1.6331   -0.9506 H   0  0  0  0  0  0  0  0  0  0  0  0
   -3.3078   -2.4132   -2.6383 H   0  0  0  0  0  0  0  0  0  0  0  0
   -5.0801   -2.6403   -2.5080 H   0  0  0  0  0  0  0  0  0  0  0  0
   -3.8663   -4.6867   -1.8529 H   0  0  0  0  0  0  0  0  0  0  0  0
   -2.9645   -3.8005   -0.5740 H   0  0  0  0  0  0  0  0  0  0  0  0
   -4.7569   -4.0281   -0.4359 H   0  0  0  0  0  0  0  0  0  0  0  0
   -3.6175    0.0808   -2.6329 H   0  0  0  0  0  0  0  0  0  0  0  0
   -5.3912   -0.1288   -2.4988 H   0  0  0  0  0  0  0  0  0  0  0  0
   -5.4089    1.2845   -0.4193 H   0  0  0  0  0  0  0  0  0  0  0  0
   -3.6150    1.4980   -0.5594 H   0  0  0  0  0  0  0  0  0  0  0  0
   -4.7067    2.1468   -1.8327 H   0  0  0  0  0  0  0  0  0  0  0  0
    3.8052    2.1110   -1.5771 H   0  0  0  0  0  0  0  0  0  0  0  0
    4.7868    1.4031   -2.8817 H   0  0  0  0  0  0  0  0  0  0  0  0
    2.6249    0.5198   -3.9509 H   0  0  0  0  0  0  0  0  0  0  0  0
    1.7137    1.4445   -2.6797 H   0  0  0  0  0  0  0  0  0  0  0  0
    2.7658    2.3036   -3.8413 H   0  0  0  0  0  0  0  0  0  0  0  0
    4.1138   -2.2477   -1.7036 H   0  0  0  0  0  0  0  0  0  0  0  0
    3.0022   -1.4985   -2.8739 H   0  0  0  0  0  0  0  0  0  0  0  0
    4.9761   -0.5523   -4.1404 H   0  0  0  0  0  0  0  0  0  0  0  0
    6.0837   -1.3743   -2.9604 H   0  0  0  0  0  0  0  0  0  0  0  0
    4.9975   -2.3402   -4.0065 H   0  0  0  0  0  0  0  0  0  0  0  0
    6.9714    0.4114   -1.7040 H   0  0  0  0  0  0  0  0  0  0  0  0
    8.2216    0.5984    0.5898 H   0  0  0  0  0  0  0  0  0  0  0  0
  1  2  1  0
  2  3  1  0
  3  4  1  0
  4  5  1  0
  3  6  1  0
  6  7  2  0
  7  8  1  0
  8  9  2  0
  9 10  1  0
 10 11  2  0
 11 12  1  0
 12 13  2  0
 13 14  1  0
 14 15  2  0
 15 16  1  0
 16 17  2  0
 15 18  1  0
 18 19  1  0
 19 20  1  0
 20 21  2  0
 21 22  1  0
 22 23  1  0
 23 24  1  0
 24 25  1  0
 23 26  1  0
 26 27  1  0
  9 28  1  0
 28 29  1  0
 29 30  1  0
 28 31  1  0
 31 32  1  0
 28 33  1  0
 33 34  1  0
 34 35  2  0
 35 36  1  0
 36 37  1  0
 17  3  1  0
 22 18  2  0
 37 33  2  0
 11  6  1  0
 17 12  1  0
 37  8  1  0
 23 14  1  0
  1 38  1  0
  1 39  1  0
  1 40  1  0
  2 41  1  0
  2 42  1  0
  4 43  1  0
  4 44  1  0
  5 45  1  0
  5 46  1  0
  5 47  1  0
  7 48  1  0
 10 49  1  0
 13 50  1  0
 16 51  1  0
 20 52  1  0
 21 53  1  0
 24 54  1  0
 24 55  1  0
 25 56  1  0
 25 57  1  0
 25 58  1  0
 26 59  1  0
 26 60  1  0
 27 61  1  0
 27 62  1  0
 27 63  1  0
 29 64  1  0
 29 65  1  0
 30 66  1  0
 30 67  1  0
 30 68  1  0
 31 69  1  0
 31 70  1  0
 32 71  1  0
 32 72  1  0
 32 73  1  0
 34 74  1  0
 35 75  1  0
M  END

