
     RDKit          3D

 24 27  0  0  0  0  0  0  0  0999 V2000
    0.9407   -1.3329    3.7172 C   0  0  0  0  0  0  0  0  0  0  0  0
    0.9420   -1.8219    2.5066 N   0  0  0  0  0  0  0  0  0  0  0  0
    1.0593   -0.9105    1.3660 C   0  0  0  0  0  0  0  0  0  0  0  0
    0.6749   -1.5193    0.0369 C   0  0  0  0  0  0  0  0  0  0  0  0
    0.7944   -2.8599   -0.3463 C   0  0  0  0  0  0  0  0  0  0  0  0
    0.5350   -3.0593   -1.7015 C   0  0  0  0  0  0  0  0  0  0  0  0
    0.1989   -1.5693   -2.4293 S   0  0  0  0  0  0  0  0  0  0  0  0
    0.3693   -0.6740   -1.0215 C   0  0  0  0  0  0  0  0  0  0  0  0
    0.2471    0.7738   -0.8078 C   0  0  0  0  0  0  0  0  0  0  0  0
    0.0825    2.0135   -1.9252 S   0  0  0  0  0  0  0  0  0  0  0  0
   -0.0037    3.2467   -0.7700 C   0  0  0  0  0  0  0  0  0  0  0  0
    0.0858    2.6887    0.5045 C   0  0  0  0  0  0  0  0  0  0  0  0
    0.2525    1.2995    0.4774 C   0  0  0  0  0  0  0  0  0  0  0  0
    0.2004    0.3493    1.6517 C   0  0  0  0  0  0  0  0  0  0  0  0
    0.6376    0.9318    2.9225 N   0  0  0  0  0  0  0  0  0  0  0  0
    0.9318    0.1417    3.9195 C   0  0  0  0  0  0  0  0  0  0  0  0
    0.9229   -1.9984    4.5693 H   0  0  0  0  0  0  0  0  0  0  0  0
    2.1251   -0.5974    1.2852 H   0  0  0  0  0  0  0  0  0  0  0  0
    1.0809   -3.6559    0.3281 H   0  0  0  0  0  0  0  0  0  0  0  0
    0.5710   -4.0128   -2.2105 H   0  0  0  0  0  0  0  0  0  0  0  0
   -0.1356    4.2987   -0.9832 H   0  0  0  0  0  0  0  0  0  0  0  0
    0.0096    3.2686    1.4146 H   0  0  0  0  0  0  0  0  0  0  0  0
   -0.8609    0.0314    1.7672 H   0  0  0  0  0  0  0  0  0  0  0  0
    1.1905    0.5597    4.8827 H   0  0  0  0  0  0  0  0  0  0  0  0
  1  2  2  0
  2  3  1  0
  3  4  1  0
  4  5  1  0
  5  6  2  0
  6  7  1  0
  7  8  1  0
  8  9  1  0
  9 10  1  0
 10 11  1  0
 11 12  2  0
 12 13  1  0
 13 14  1  0
 14 15  1  0
 15 16  2  0
 16  1  1  0
 14  3  1  0
  8  4  2  0
 13  9  2  0
  1 17  1  0
  3 18  1  0
  5 19  1  0
  6 20  1  0
 11 21  1  0
 12 22  1  0
 14 23  1  0
 16 24  1  0
M  END

