
     RDKit          3D

 20 21  0  0  0  0  0  0  0  0999 V2000
    0.5445    1.3838    3.6459 C   0  0  0  0  0  0  0  0  0  0  0  0
   -0.5724    0.6076    2.9607 C   0  0  0  0  0  0  0  0  0  0  0  0
   -0.1233    0.1234    1.6614 N   0  0  0  0  0  0  0  0  0  0  0  0
    0.4937   -1.0443    1.4885 N   0  0  0  0  0  0  0  0  0  0  0  0
    0.7821   -1.0836    0.1792 C   0  0  0  0  0  0  0  0  0  0  0  0
    1.4277   -2.0808   -0.5447 C   0  0  0  0  0  0  0  0  0  0  0  0
    1.6122   -1.8622   -1.9250 C   0  0  0  0  0  0  0  0  0  0  0  0
    2.2353   -2.8033   -2.6763 F   0  0  0  0  0  0  0  0  0  0  0  0
    1.1520   -0.6657   -2.5300 C   0  0  0  0  0  0  0  0  0  0  0  0
    1.3362   -0.4656   -3.8583 F   0  0  0  0  0  0  0  0  0  0  0  0
    0.5041    0.3206   -1.7589 C   0  0  0  0  0  0  0  0  0  0  0  0
    0.3404    0.0646   -0.4013 C   0  0  0  0  0  0  0  0  0  0  0  0
   -0.2284    0.8332    0.5392 N   0  0  0  0  0  0  0  0  0  0  0  0
    1.4277    0.7276    3.7977 H   0  0  0  0  0  0  0  0  0  0  0  0
    0.1941    1.7487    4.6343 H   0  0  0  0  0  0  0  0  0  0  0  0
    0.8397    2.2561    3.0249 H   0  0  0  0  0  0  0  0  0  0  0  0
   -0.8721   -0.2523    3.5980 H   0  0  0  0  0  0  0  0  0  0  0  0
   -1.4569    1.2678    2.8293 H   0  0  0  0  0  0  0  0  0  0  0  0
    1.7749   -2.9876   -0.0666 H   0  0  0  0  0  0  0  0  0  0  0  0
    0.1487    1.2407   -2.2045 H   0  0  0  0  0  0  0  0  0  0  0  0
  1  2  1  0
  2  3  1  0
  3  4  1  0
  4  5  2  0
  5  6  1  0
  6  7  2  0
  7  8  1  0
  7  9  1  0
  9 10  1  0
  9 11  2  0
 11 12  1  0
 12 13  2  0
 13  3  1  0
 12  5  1  0
  1 14  1  0
  1 15  1  0
  1 16  1  0
  2 17  1  0
  2 18  1  0
  6 19  1  0
 11 20  1  0
M  END

