
     RDKit          3D

 18 19  0  0  0  0  0  0  0  0999 V2000
   -1.7688    0.9091    2.6516 C   0  0  0  0  0  0  0  0  0  0  0  0
   -0.6688    0.5893    1.9750 C   0  0  0  0  0  0  0  0  0  0  0  0
    0.5732    0.0376    2.5224 C   0  0  0  0  0  0  0  0  0  0  0  0
    0.8009   -0.2251    3.7331 O   0  0  0  0  0  0  0  0  0  0  0  0
    1.5041   -0.1550    1.4137 C   0  0  0  0  0  0  0  0  0  0  0  0
    2.8072   -0.6519    1.4248 C   0  0  0  0  0  0  0  0  0  0  0  0
    3.4968   -0.7363    0.2030 C   0  0  0  0  0  0  0  0  0  0  0  0
    2.8781   -0.3266   -0.9965 C   0  0  0  0  0  0  0  0  0  0  0  0
    1.5639    0.1715   -0.9859 C   0  0  0  0  0  0  0  0  0  0  0  0
    0.8971    0.2470    0.2368 C   0  0  0  0  0  0  0  0  0  0  0  0
   -0.4536    0.7176    0.5314 C   0  0  0  0  0  0  0  0  0  0  0  0
   -1.2838    1.1554   -0.3087 O   0  0  0  0  0  0  0  0  0  0  0  0
   -2.6322    1.3120    2.1381 H   0  0  0  0  0  0  0  0  0  0  0  0
   -1.8143    0.7703    3.7240 H   0  0  0  0  0  0  0  0  0  0  0  0
    3.2765   -0.9647    2.3485 H   0  0  0  0  0  0  0  0  0  0  0  0
    4.5092   -1.1182    0.1827 H   0  0  0  0  0  0  0  0  0  0  0  0
    3.4188   -0.3961   -1.9315 H   0  0  0  0  0  0  0  0  0  0  0  0
    1.0837    0.4874   -1.9029 H   0  0  0  0  0  0  0  0  0  0  0  0
  1  2  2  3
  2  3  1  0
  3  4  2  0
  3  5  1  0
  5  6  2  0
  6  7  1  0
  7  8  2  0
  8  9  1  0
  9 10  2  0
 10 11  1  0
 11 12  2  0
 11  2  1  0
 10  5  1  0
  1 13  1  0
  1 14  1  0
  6 15  1  0
  7 16  1  0
  8 17  1  0
  9 18  1  0
M  END

