
     RDKit          3D

 36 40  0  0  0  0  0  0  0  0999 V2000
    1.9384   -5.9953   -0.0804 C   0  0  0  0  0  0  0  0  0  0  0  0
    3.0085   -4.9813   -0.4668 C   0  0  0  0  0  0  0  0  0  0  0  0
    2.5069   -3.6203   -0.2967 N   0  0  0  0  0  0  0  0  0  0  0  0
    2.4095   -2.9017    0.9361 C   0  0  0  0  0  0  0  0  0  0  0  0
    2.9795   -3.2474    2.0047 O   0  0  0  0  0  0  0  0  0  0  0  0
    1.5391   -1.7427    0.7751 C   0  0  0  0  0  0  0  0  0  0  0  0
    1.1578   -0.7574    1.6962 C   0  0  0  0  0  0  0  0  0  0  0  0
    0.2814    0.2242    1.2164 C   0  0  0  0  0  0  0  0  0  0  0  0
   -0.1889    0.2162   -0.1072 C   0  0  0  0  0  0  0  0  0  0  0  0
    0.1920   -0.7737   -1.0219 C   0  0  0  0  0  0  0  0  0  0  0  0
    1.0728   -1.7506   -0.5375 C   0  0  0  0  0  0  0  0  0  0  0  0
    1.6508   -2.9145   -1.1992 C   0  0  0  0  0  0  0  0  0  0  0  0
    1.4201   -3.2737   -2.3842 O   0  0  0  0  0  0  0  0  0  0  0  0
   -1.0790    1.3677   -0.2623 C   0  0  0  0  0  0  0  0  0  0  0  0
   -1.8247    1.8640   -1.3322 C   0  0  0  0  0  0  0  0  0  0  0  0
   -2.5940    3.0318   -1.1169 C   0  0  0  0  0  0  0  0  0  0  0  0
   -2.6041    3.6744    0.1489 C   0  0  0  0  0  0  0  0  0  0  0  0
   -1.8396    3.1457    1.2071 C   0  0  0  0  0  0  0  0  0  0  0  0
   -1.7670    3.6885    2.5048 C   0  0  0  0  0  0  0  0  0  0  0  0
   -0.9581    3.0595    3.4872 C   0  0  0  0  0  0  0  0  0  0  0  0
   -0.2209    1.8911    3.1812 C   0  0  0  0  0  0  0  0  0  0  0  0
   -0.3156    1.3806    1.8861 C   0  0  0  0  0  0  0  0  0  0  0  0
   -1.1015    2.0018    0.9517 C   0  0  0  0  0  0  0  0  0  0  0  0
    1.6478   -5.8585    0.9828 H   0  0  0  0  0  0  0  0  0  0  0  0
    2.3334   -7.0243   -0.2146 H   0  0  0  0  0  0  0  0  0  0  0  0
    1.0416   -5.8688   -0.7234 H   0  0  0  0  0  0  0  0  0  0  0  0
    3.3055   -5.1401   -1.5256 H   0  0  0  0  0  0  0  0  0  0  0  0
    3.9076   -5.1299    0.1690 H   0  0  0  0  0  0  0  0  0  0  0  0
    1.5171   -0.7562    2.7168 H   0  0  0  0  0  0  0  0  0  0  0  0
   -0.1733   -0.7848   -2.0403 H   0  0  0  0  0  0  0  0  0  0  0  0
   -1.8151    1.3718   -2.2957 H   0  0  0  0  0  0  0  0  0  0  0  0
   -3.1825    3.4403   -1.9279 H   0  0  0  0  0  0  0  0  0  0  0  0
   -3.1993    4.5670    0.2945 H   0  0  0  0  0  0  0  0  0  0  0  0
   -2.3241    4.5818    2.7579 H   0  0  0  0  0  0  0  0  0  0  0  0
   -0.9045    3.4787    4.4834 H   0  0  0  0  0  0  0  0  0  0  0  0
    0.3963    1.4092    3.9279 H   0  0  0  0  0  0  0  0  0  0  0  0
  1  2  1  0
  2  3  1  0
  3  4  1  0
  4  5  2  0
  4  6  1  0
  6  7  2  0
  7  8  1  0
  8  9  2  0
  9 10  1  0
 10 11  2  0
 11 12  1  0
 12 13  2  0
  9 14  1  0
 14 15  2  0
 15 16  1  0
 16 17  2  0
 17 18  1  0
 18 19  1  0
 19 20  2  0
 20 21  1  0
 21 22  2  0
 22 23  1  0
 12  3  1  0
 23 14  1  0
 11  6  1  0
 23 18  2  0
 22  8  1  0
  1 24  1  0
  1 25  1  0
  1 26  1  0
  2 27  1  0
  2 28  1  0
  7 29  1  0
 10 30  1  0
 15 31  1  0
 16 32  1  0
 17 33  1  0
 19 34  1  0
 20 35  1  0
 21 36  1  0
M  END

