
     RDKit          3D

 77 83  0  0  0  0  0  0  0  0999 V2000
    0.0933    4.5654    3.9802 C   0  0  0  0  0  0  0  0  0  0  0  0
   -1.3381    4.0322    4.0959 C   0  0  0  0  0  0  0  0  0  0  0  0
   -1.4314    2.5645    4.5888 C   0  0  0  0  0  0  0  0  0  0  0  0
   -0.9214    2.4340    6.0485 C   0  0  0  0  0  0  0  0  0  0  0  0
   -1.0564    1.0130    6.6052 C   0  0  0  0  0  0  0  0  0  0  0  0
   -0.5914    1.7459    3.7472 O   0  0  0  0  0  0  0  0  0  0  0  0
   -1.0439    0.9098    2.7128 C   0  0  0  0  0  0  0  0  0  0  0  0
   -0.1160    0.3456    1.8257 C   0  0  0  0  0  0  0  0  0  0  0  0
   -0.5871   -0.4954    0.8167 C   0  0  0  0  0  0  0  0  0  0  0  0
   -1.9291   -0.8065    0.6842 C   0  0  0  0  0  0  0  0  0  0  0  0
   -2.8705   -0.2228    1.5430 C   0  0  0  0  0  0  0  0  0  0  0  0
   -2.4187    0.6283    2.5694 C   0  0  0  0  0  0  0  0  0  0  0  0
   -3.3297    1.2536    3.5266 C   0  0  0  0  0  0  0  0  0  0  0  0
   -4.9963    1.0656    3.6537 S   0  0  0  0  0  0  0  0  0  0  0  0
   -5.1868    2.1270    4.9472 C   0  0  0  0  0  0  0  0  0  0  0  0
   -3.9406    2.6408    5.2876 C   0  0  0  0  0  0  0  0  0  0  0  0
   -2.8927    2.1381    4.4963 C   0  0  0  0  0  0  0  0  0  0  0  0
   -2.1825   -1.7036   -0.5208 C   0  0  0  0  0  0  0  0  0  0  0  0
   -3.0941   -0.9439   -1.5307 C   0  0  0  0  0  0  0  0  0  0  0  0
   -3.4201   -1.6934   -2.8251 C   0  0  0  0  0  0  0  0  0  0  0  0
   -2.6956   -3.1113   -0.0928 C   0  0  0  0  0  0  0  0  0  0  0  0
   -4.1039   -3.1493    0.5052 C   0  0  0  0  0  0  0  0  0  0  0  0
   -0.7563   -1.8361   -1.0398 C   0  0  0  0  0  0  0  0  0  0  0  0
   -0.2883   -2.6315   -2.0952 C   0  0  0  0  0  0  0  0  0  0  0  0
    1.0899   -2.6367   -2.3804 C   0  0  0  0  0  0  0  0  0  0  0  0
    1.9866   -1.8806   -1.5970 C   0  0  0  0  0  0  0  0  0  0  0  0
    1.5130   -1.1335   -0.5097 C   0  0  0  0  0  0  0  0  0  0  0  0
    0.1410   -1.1336   -0.2529 C   0  0  0  0  0  0  0  0  0  0  0  0
    3.3624   -1.9092   -1.8813 O   0  0  0  0  0  0  0  0  0  0  0  0
    3.9233   -2.3300   -3.1425 C   0  0  0  0  0  0  0  0  0  0  0  0
    5.3221   -2.9372   -2.8474 C   0  0  0  0  0  0  0  0  0  0  0  0
    6.2684   -1.9811   -2.1156 C   0  0  0  0  0  0  0  0  0  0  0  0
    3.9826   -1.0695   -4.0527 C   0  0  0  0  0  0  0  0  0  0  0  0
    4.6810   -1.2562   -5.4033 C   0  0  0  0  0  0  0  0  0  0  0  0
    3.0166   -3.3829   -3.7786 C   0  0  0  0  0  0  0  0  0  0  0  0
    3.3699   -4.2916   -4.7935 C   0  0  0  0  0  0  0  0  0  0  0  0
    2.3067   -5.0727   -5.2337 C   0  0  0  0  0  0  0  0  0  0  0  0
    0.9249   -4.6384   -4.3753 S   0  0  0  0  0  0  0  0  0  0  0  0
    1.6735   -3.4550   -3.4446 C   0  0  0  0  0  0  0  0  0  0  0  0
    0.0712    5.5759    3.5201 H   0  0  0  0  0  0  0  0  0  0  0  0
    0.5640    4.6591    4.9803 H   0  0  0  0  0  0  0  0  0  0  0  0
    0.7117    3.9060    3.3358 H   0  0  0  0  0  0  0  0  0  0  0  0
   -1.9108    4.7009    4.7759 H   0  0  0  0  0  0  0  0  0  0  0  0
   -1.8056    4.1034    3.0882 H   0  0  0  0  0  0  0  0  0  0  0  0
   -1.4658    3.1362    6.7164 H   0  0  0  0  0  0  0  0  0  0  0  0
    0.1554    2.7013    6.0925 H   0  0  0  0  0  0  0  0  0  0  0  0
   -0.5286    0.2847    5.9534 H   0  0  0  0  0  0  0  0  0  0  0  0
   -2.1246    0.7235    6.6901 H   0  0  0  0  0  0  0  0  0  0  0  0
   -0.6036    0.9681    7.6186 H   0  0  0  0  0  0  0  0  0  0  0  0
    0.9385    0.5716    1.9164 H   0  0  0  0  0  0  0  0  0  0  0  0
   -3.9268   -0.4038    1.4044 H   0  0  0  0  0  0  0  0  0  0  0  0
   -6.1230    2.3807    5.4251 H   0  0  0  0  0  0  0  0  0  0  0  0
   -3.8023    3.3658    6.0784 H   0  0  0  0  0  0  0  0  0  0  0  0
   -2.6103    0.0196   -1.8068 H   0  0  0  0  0  0  0  0  0  0  0  0
   -4.0542   -0.6780   -1.0403 H   0  0  0  0  0  0  0  0  0  0  0  0
   -3.8435   -2.6971   -2.6204 H   0  0  0  0  0  0  0  0  0  0  0  0
   -2.5228   -1.7801   -3.4684 H   0  0  0  0  0  0  0  0  0  0  0  0
   -4.1784   -1.1165   -3.3957 H   0  0  0  0  0  0  0  0  0  0  0  0
   -1.9954   -3.5442    0.6563 H   0  0  0  0  0  0  0  0  0  0  0  0
   -2.6772   -3.7977   -0.9655 H   0  0  0  0  0  0  0  0  0  0  0  0
   -4.1182   -2.6849    1.5110 H   0  0  0  0  0  0  0  0  0  0  0  0
   -4.4147   -4.2080    0.6281 H   0  0  0  0  0  0  0  0  0  0  0  0
   -4.8426   -2.6545   -0.1565 H   0  0  0  0  0  0  0  0  0  0  0  0
   -0.9692   -3.2488   -2.6639 H   0  0  0  0  0  0  0  0  0  0  0  0
    2.1982   -0.5758    0.1153 H   0  0  0  0  0  0  0  0  0  0  0  0
    5.8197   -3.2762   -3.7787 H   0  0  0  0  0  0  0  0  0  0  0  0
    5.1890   -3.8378   -2.2082 H   0  0  0  0  0  0  0  0  0  0  0  0
    6.5339   -1.1187   -2.7607 H   0  0  0  0  0  0  0  0  0  0  0  0
    5.8109   -1.6136   -1.1734 H   0  0  0  0  0  0  0  0  0  0  0  0
    7.2056   -2.5182   -1.8593 H   0  0  0  0  0  0  0  0  0  0  0  0
    4.4888   -0.2433   -3.5087 H   0  0  0  0  0  0  0  0  0  0  0  0
    2.9449   -0.7186   -4.2477 H   0  0  0  0  0  0  0  0  0  0  0  0
    4.1608   -2.0156   -6.0206 H   0  0  0  0  0  0  0  0  0  0  0  0
    5.7446   -1.5394   -5.2703 H   0  0  0  0  0  0  0  0  0  0  0  0
    4.6552   -0.2955   -5.9598 H   0  0  0  0  0  0  0  0  0  0  0  0
    4.3630   -4.3764   -5.2121 H   0  0  0  0  0  0  0  0  0  0  0  0
    2.3594   -5.8294   -6.0047 H   0  0  0  0  0  0  0  0  0  0  0  0
  1  2  1  0
  2  3  1  0
  3  4  1  0
  4  5  1  0
  3  6  1  0
  6  7  1  0
  7  8  2  0
  8  9  1  0
  9 10  2  0
 10 11  1  0
 11 12  2  0
 12 13  1  0
 13 14  1  0
 14 15  1  0
 15 16  2  0
 16 17  1  0
 10 18  1  0
 18 19  1  0
 19 20  1  0
 18 21  1  0
 21 22  1  0
 18 23  1  0
 23 24  2  0
 24 25  1  0
 25 26  2  0
 26 27  1  0
 27 28  2  0
 26 29  1  0
 29 30  1  0
 30 31  1  0
 31 32  1  0
 30 33  1  0
 33 34  1  0
 30 35  1  0
 35 36  1  0
 36 37  2  0
 37 38  1  0
 38 39  1  0
 17  3  1  0
 28 23  1  0
 39 35  2  0
 12  7  1  0
 17 13  2  0
 39 25  1  0
 28  9  1  0
  1 40  1  0
  1 41  1  0
  1 42  1  0
  2 43  1  0
  2 44  1  0
  4 45  1  0
  4 46  1  0
  5 47  1  0
  5 48  1  0
  5 49  1  0
  8 50  1  0
 11 51  1  0
 15 52  1  0
 16 53  1  0
 19 54  1  0
 19 55  1  0
 20 56  1  0
 20 57  1  0
 20 58  1  0
 21 59  1  0
 21 60  1  0
 22 61  1  0
 22 62  1  0
 22 63  1  0
 24 64  1  0
 27 65  1  0
 31 66  1  0
 31 67  1  0
 32 68  1  0
 32 69  1  0
 32 70  1  0
 33 71  1  0
 33 72  1  0
 34 73  1  0
 34 74  1  0
 34 75  1  0
 36 76  1  0
 37 77  1  0
M  END

