
     RDKit          3D

 20 20  0  0  0  0  0  0  0  0999 V2000
    2.4527    2.4869    2.6670 C   0  0  0  0  0  0  0  0  0  0  0  0
    1.5743    2.3240    1.5583 O   0  0  0  0  0  0  0  0  0  0  0  0
    1.0889    1.0873    1.1065 C   0  0  0  0  0  0  0  0  0  0  0  0
    1.4356   -0.1292    1.7238 C   0  0  0  0  0  0  0  0  0  0  0  0
    0.9269   -1.3378    1.2381 C   0  0  0  0  0  0  0  0  0  0  0  0
    1.2718   -2.5007    1.8455 F   0  0  0  0  0  0  0  0  0  0  0  0
    0.0671   -1.3545    0.1329 C   0  0  0  0  0  0  0  0  0  0  0  0
   -0.4183   -2.5911   -0.3189 O   0  0  0  0  0  0  0  0  0  0  0  0
   -1.2967   -2.7540   -1.4277 C   0  0  0  0  0  0  0  0  0  0  0  0
   -0.2796   -0.1379   -0.4845 C   0  0  0  0  0  0  0  0  0  0  0  0
    0.2291    1.0707    0.0013 C   0  0  0  0  0  0  0  0  0  0  0  0
   -0.1157    2.2336   -0.6061 F   0  0  0  0  0  0  0  0  0  0  0  0
    3.4065    1.9496    2.4807 H   0  0  0  0  0  0  0  0  0  0  0  0
    2.6730    3.5660    2.7994 H   0  0  0  0  0  0  0  0  0  0  0  0
    1.9733    2.1057    3.5933 H   0  0  0  0  0  0  0  0  0  0  0  0
    2.0971   -0.1512    2.5790 H   0  0  0  0  0  0  0  0  0  0  0  0
   -2.2505   -2.2167   -1.2414 H   0  0  0  0  0  0  0  0  0  0  0  0
   -0.8173   -2.3728   -2.3540 H   0  0  0  0  0  0  0  0  0  0  0  0
   -1.5170   -3.8331   -1.5601 H   0  0  0  0  0  0  0  0  0  0  0  0
   -0.9411   -0.1159   -1.3397 H   0  0  0  0  0  0  0  0  0  0  0  0
  1  2  1  0
  2  3  1  0
  3  4  2  0
  4  5  1  0
  5  6  1  0
  5  7  2  0
  7  8  1  0
  8  9  1  0
  7 10  1  0
 10 11  2  0
 11 12  1  0
 11  3  1  0
  1 13  1  0
  1 14  1  0
  1 15  1  0
  4 16  1  0
  9 17  1  0
  9 18  1  0
  9 19  1  0
 10 20  1  0
M  END

