
     RDKit          3D

 47 52  0  0  0  0  0  0  0  0999 V2000
    0.0011   -2.4747    7.2844 C   0  0  0  0  0  0  0  0  0  0  0  0
   -0.1833   -3.6425    6.3223 C   0  0  0  0  0  0  0  0  0  0  0  0
    0.2964   -3.2794    4.9521 C   0  0  0  0  0  0  0  0  0  0  0  0
    1.6054   -3.3865    4.4958 C   0  0  0  0  0  0  0  0  0  0  0  0
    1.7806   -2.8870    3.2001 C   0  0  0  0  0  0  0  0  0  0  0  0
    0.6060   -2.4068    2.6346 C   0  0  0  0  0  0  0  0  0  0  0  0
    0.5117   -1.6930    1.3568 C   0  0  0  0  0  0  0  0  0  0  0  0
    1.3583   -0.2740    1.0636 S   0  0  0  0  0  0  0  0  0  0  0  0
    0.5790    0.1663   -0.3566 C   0  0  0  0  0  0  0  0  0  0  0  0
    0.7469    1.4951   -0.9565 C   0  0  0  0  0  0  0  0  0  0  0  0
   -0.2586    2.4423   -1.1234 C   0  0  0  0  0  0  0  0  0  0  0  0
    0.2147    3.6738   -1.5898 C   0  0  0  0  0  0  0  0  0  0  0  0
    1.5927    3.6969   -1.7721 C   0  0  0  0  0  0  0  0  0  0  0  0
    2.4006    4.8908   -2.1735 C   0  0  0  0  0  0  0  0  0  0  0  0
    2.7795    5.7202   -0.9520 C   0  0  0  0  0  0  0  0  0  0  0  0
    2.2274    2.2043   -1.3237 S   0  0  0  0  0  0  0  0  0  0  0  0
   -0.3765   -0.8195   -0.6526 C   0  0  0  0  0  0  0  0  0  0  0  0
   -1.2363   -0.8791   -1.7805 C   0  0  0  0  0  0  0  0  0  0  0  0
   -1.2546   -0.0461   -2.9142 C   0  0  0  0  0  0  0  0  0  0  0  0
   -2.2146   -0.4148   -3.8537 C   0  0  0  0  0  0  0  0  0  0  0  0
   -3.0174   -1.7968   -3.3166 S   0  0  0  0  0  0  0  0  0  0  0  0
   -2.1574   -1.9191   -1.8812 C   0  0  0  0  0  0  0  0  0  0  0  0
   -2.1973   -2.9364   -0.9370 C   0  0  0  0  0  0  0  0  0  0  0  0
   -3.1186   -4.3385   -0.9545 S   0  0  0  0  0  0  0  0  0  0  0  0
   -2.3974   -5.0077    0.4150 C   0  0  0  0  0  0  0  0  0  0  0  0
   -1.4169   -4.1393    0.8891 C   0  0  0  0  0  0  0  0  0  0  0  0
   -1.3170   -2.9516    0.1420 C   0  0  0  0  0  0  0  0  0  0  0  0
   -0.4159   -1.8699    0.3186 C   0  0  0  0  0  0  0  0  0  0  0  0
   -0.6361   -2.5349    3.7659 S   0  0  0  0  0  0  0  0  0  0  0  0
   -0.5785   -1.5930    6.9363 H   0  0  0  0  0  0  0  0  0  0  0  0
    1.0757   -2.2016    7.3578 H   0  0  0  0  0  0  0  0  0  0  0  0
   -0.3621   -2.7634    8.2931 H   0  0  0  0  0  0  0  0  0  0  0  0
    0.3832   -4.5227    6.6955 H   0  0  0  0  0  0  0  0  0  0  0  0
   -1.2588   -3.9172    6.2769 H   0  0  0  0  0  0  0  0  0  0  0  0
    2.4145   -3.7911    5.0896 H   0  0  0  0  0  0  0  0  0  0  0  0
    2.7394   -2.8630    2.6987 H   0  0  0  0  0  0  0  0  0  0  0  0
   -1.3001    2.2564   -0.8951 H   0  0  0  0  0  0  0  0  0  0  0  0
   -0.4264    4.5277   -1.7649 H   0  0  0  0  0  0  0  0  0  0  0  0
    1.8150    5.5180   -2.8796 H   0  0  0  0  0  0  0  0  0  0  0  0
    3.3238    4.5554   -2.6927 H   0  0  0  0  0  0  0  0  0  0  0  0
    3.3793    6.5985   -1.2707 H   0  0  0  0  0  0  0  0  0  0  0  0
    1.8659    6.0823   -0.4335 H   0  0  0  0  0  0  0  0  0  0  0  0
    3.3854    5.1125   -0.2461 H   0  0  0  0  0  0  0  0  0  0  0  0
   -0.5716    0.7659   -3.1000 H   0  0  0  0  0  0  0  0  0  0  0  0
   -2.3877    0.0839   -4.7976 H   0  0  0  0  0  0  0  0  0  0  0  0
   -2.6304   -5.9759    0.8369 H   0  0  0  0  0  0  0  0  0  0  0  0
   -0.7792   -4.4091    1.7145 H   0  0  0  0  0  0  0  0  0  0  0  0
  1  2  1  0
  2  3  1  0
  3  4  2  0
  4  5  1  0
  5  6  2  0
  6  7  1  0
  7  8  1  0
  8  9  1  0
  9 10  1  0
 10 11  2  0
 11 12  1  0
 12 13  2  0
 13 14  1  0
 14 15  1  0
 13 16  1  0
  9 17  2  0
 17 18  1  0
 18 19  1  0
 19 20  2  0
 20 21  1  0
 21 22  1  0
 22 23  1  0
 23 24  1  0
 24 25  1  0
 25 26  2  0
 26 27  1  0
 27 28  1  0
  6 29  1  0
 29  3  1  0
 28  7  2  0
 16 10  1  0
 28 17  1  0
 22 18  2  0
 27 23  2  0
  1 30  1  0
  1 31  1  0
  1 32  1  0
  2 33  1  0
  2 34  1  0
  4 35  1  0
  5 36  1  0
 11 37  1  0
 12 38  1  0
 14 39  1  0
 14 40  1  0
 15 41  1  0
 15 42  1  0
 15 43  1  0
 19 44  1  0
 20 45  1  0
 25 46  1  0
 26 47  1  0
M  END

