
     RDKit          3D

162178  0  0  0  0  0  0  0  0999 V2000
    7.1515    1.7468    2.0387 C   0  0  0  0  0  0  0  0  0  0  0  0
    6.8406    0.4307    2.7424 C   0  0  0  0  0  0  0  0  0  0  0  0
    5.3593    0.1595    2.7532 C   0  0  0  0  0  0  0  0  0  0  0  0
    4.5377    0.7770    3.7068 C   0  0  0  0  0  0  0  0  0  0  0  0
    3.1671    0.5163    3.7315 C   0  0  0  0  0  0  0  0  0  0  0  0
    2.5693   -0.3278    2.7699 C   0  0  0  0  0  0  0  0  0  0  0  0
    1.0489   -0.5304    2.6990 C   0  0  0  0  0  0  0  0  0  0  0  0
    0.2132    0.5335    3.4545 C   0  0  0  0  0  0  0  0  0  0  0  0
    0.4791    1.9068    3.2438 C   0  0  0  0  0  0  0  0  0  0  0  0
   -0.3588    2.8979    3.7610 C   0  0  0  0  0  0  0  0  0  0  0  0
   -1.5007    2.5497    4.4896 C   0  0  0  0  0  0  0  0  0  0  0  0
   -2.4570    3.6115    4.9590 C   0  0  0  0  0  0  0  0  0  0  0  0
   -3.4776    3.9336    3.8701 C   0  0  0  0  0  0  0  0  0  0  0  0
   -1.7932    1.1955    4.6977 C   0  0  0  0  0  0  0  0  0  0  0  0
   -0.9586    0.2020    4.1818 C   0  0  0  0  0  0  0  0  0  0  0  0
    0.5820   -0.4457    1.2467 C   0  0  0  0  0  0  0  0  0  0  0  0
    0.8429    0.5665    0.3102 C   0  0  0  0  0  0  0  0  0  0  0  0
    0.1968    0.4660   -0.9225 C   0  0  0  0  0  0  0  0  0  0  0  0
   -0.6838   -0.5654   -1.2373 C   0  0  0  0  0  0  0  0  0  0  0  0
   -0.9089   -1.6018   -0.3136 C   0  0  0  0  0  0  0  0  0  0  0  0
   -0.2262   -1.5221    0.9059 C   0  0  0  0  0  0  0  0  0  0  0  0
   -0.1763   -2.4450    1.9991 C   0  0  0  0  0  0  0  0  0  0  0  0
   -1.2220   -3.6489    2.4960 S   0  0  0  0  0  0  0  0  0  0  0  0
   -0.6167   -3.6499    4.0800 C   0  0  0  0  0  0  0  0  0  0  0  0
   -1.1103   -4.4002    5.1640 C   0  0  0  0  0  0  0  0  0  0  0  0
   -2.2312   -5.3483    4.9919 C   0  0  0  0  0  0  0  0  0  0  0  0
   -2.2329   -6.6867    5.3718 C   0  0  0  0  0  0  0  0  0  0  0  0
   -3.4500   -7.3315    5.1227 C   0  0  0  0  0  0  0  0  0  0  0  0
   -4.3987   -6.5043    4.5319 C   0  0  0  0  0  0  0  0  0  0  0  0
   -5.8122   -6.8744    4.2168 C   0  0  0  0  0  0  0  0  0  0  0  0
   -6.7192   -6.6047    5.4119 C   0  0  0  0  0  0  0  0  0  0  0  0
   -3.7416   -4.9667    4.3522 S   0  0  0  0  0  0  0  0  0  0  0  0
   -0.5096   -4.1821    6.4182 C   0  0  0  0  0  0  0  0  0  0  0  0
   -0.8780   -4.7846    7.6351 C   0  0  0  0  0  0  0  0  0  0  0  0
   -0.0640   -4.4193    8.7001 C   0  0  0  0  0  0  0  0  0  0  0  0
    1.1048   -3.3467    8.1388 S   0  0  0  0  0  0  0  0  0  0  0  0
    0.5749   -3.3094    6.5404 C   0  0  0  0  0  0  0  0  0  0  0  0
    1.1097   -2.5891    5.4528 C   0  0  0  0  0  0  0  0  0  0  0  0
    2.4814   -2.0609    5.5414 C   0  0  0  0  0  0  0  0  0  0  0  0
    3.5548   -2.5680    4.8115 C   0  0  0  0  0  0  0  0  0  0  0  0
    4.7986   -2.0979    5.2433 C   0  0  0  0  0  0  0  0  0  0  0  0
    4.7175   -1.2544    6.3501 C   0  0  0  0  0  0  0  0  0  0  0  0
    5.8443   -0.5226    7.0188 C   0  0  0  0  0  0  0  0  0  0  0  0
    7.1726   -1.2758    6.9362 C   0  0  0  0  0  0  0  0  0  0  0  0
    3.0947   -1.0692    6.7580 S   0  0  0  0  0  0  0  0  0  0  0  0
    0.4358   -2.7164    4.2137 C   0  0  0  0  0  0  0  0  0  0  0  0
    0.6202   -1.9779    3.0156 C   0  0  0  0  0  0  0  0  0  0  0  0
   -1.3029   -0.3707   -2.6235 C   0  0  0  0  0  0  0  0  0  0  0  0
   -2.8011   -0.0331   -2.4616 C   0  0  0  0  0  0  0  0  0  0  0  0
   -3.8206   -0.6328   -3.2344 C   0  0  0  0  0  0  0  0  0  0  0  0
   -5.1625   -0.2857   -3.0551 C   0  0  0  0  0  0  0  0  0  0  0  0
   -5.5260    0.6814   -2.1132 C   0  0  0  0  0  0  0  0  0  0  0  0
   -6.9636    1.1042   -1.9739 C   0  0  0  0  0  0  0  0  0  0  0  0
   -7.2760    2.2652   -2.9118 C   0  0  0  0  0  0  0  0  0  0  0  0
   -4.5287    1.3116   -1.3598 C   0  0  0  0  0  0  0  0  0  0  0  0
   -3.1879    0.9620   -1.5302 C   0  0  0  0  0  0  0  0  0  0  0  0
   -0.9433   -1.6164   -3.4612 C   0  0  0  0  0  0  0  0  0  0  0  0
    0.2146   -1.6498   -4.2748 C   0  0  0  0  0  0  0  0  0  0  0  0
    0.5203   -2.7741   -5.0439 C   0  0  0  0  0  0  0  0  0  0  0  0
   -0.2870   -3.9168   -4.9790 C   0  0  0  0  0  0  0  0  0  0  0  0
   -0.0225   -5.0819   -5.8919 C   0  0  0  0  0  0  0  0  0  0  0  0
   -0.7348   -4.8848   -7.2270 C   0  0  0  0  0  0  0  0  0  0  0  0
   -1.3714   -3.9396   -4.0928 C   0  0  0  0  0  0  0  0  0  0  0  0
   -1.6700   -2.8193   -3.3147 C   0  0  0  0  0  0  0  0  0  0  0  0
   -0.5540    0.8991   -3.0624 C   0  0  0  0  0  0  0  0  0  0  0  0
    0.2551    1.3388   -2.0517 C   0  0  0  0  0  0  0  0  0  0  0  0
    1.3719    2.4731   -2.5505 S   0  0  0  0  0  0  0  0  0  0  0  0
    0.7744    2.4889   -4.1394 C   0  0  0  0  0  0  0  0  0  0  0  0
    1.3351    3.1844   -5.2276 C   0  0  0  0  0  0  0  0  0  0  0  0
    2.5214    4.0506   -5.0556 C   0  0  0  0  0  0  0  0  0  0  0  0
    3.7235    3.9260   -5.7437 C   0  0  0  0  0  0  0  0  0  0  0  0
    4.6875    4.8615   -5.3528 C   0  0  0  0  0  0  0  0  0  0  0  0
    4.2439    5.7208   -4.3544 C   0  0  0  0  0  0  0  0  0  0  0  0
    5.0567    6.7870   -3.6927 C   0  0  0  0  0  0  0  0  0  0  0  0
    5.9782    6.1911   -2.6356 C   0  0  0  0  0  0  0  0  0  0  0  0
    2.6653    5.3097   -3.9433 S   0  0  0  0  0  0  0  0  0  0  0  0
    0.7668    2.9545   -6.4942 C   0  0  0  0  0  0  0  0  0  0  0  0
    1.1515    3.5573   -7.7050 C   0  0  0  0  0  0  0  0  0  0  0  0
    0.3895    3.1458   -8.7927 C   0  0  0  0  0  0  0  0  0  0  0  0
   -0.7676    2.0450   -8.2571 S   0  0  0  0  0  0  0  0  0  0  0  0
   -0.3073    2.0773   -6.6386 C   0  0  0  0  0  0  0  0  0  0  0  0
   -0.8754    1.3744   -5.5617 C   0  0  0  0  0  0  0  0  0  0  0  0
   -2.0759    0.5673   -5.8018 C   0  0  0  0  0  0  0  0  0  0  0  0
   -3.3733    1.0713   -5.7858 C   0  0  0  0  0  0  0  0  0  0  0  0
   -4.3147    0.2023   -6.3522 C   0  0  0  0  0  0  0  0  0  0  0  0
   -3.7483   -0.9592   -6.8637 C   0  0  0  0  0  0  0  0  0  0  0  0
   -4.4930   -2.1195   -7.4463 C   0  0  0  0  0  0  0  0  0  0  0  0
   -4.8379   -3.1297   -6.3583 C   0  0  0  0  0  0  0  0  0  0  0  0
   -2.0883   -0.9087   -6.6148 S   0  0  0  0  0  0  0  0  0  0  0  0
   -0.2967    1.5717   -4.2849 C   0  0  0  0  0  0  0  0  0  0  0  0
    3.4124   -0.9597    1.8288 C   0  0  0  0  0  0  0  0  0  0  0  0
    4.7883   -0.7092    1.8143 C   0  0  0  0  0  0  0  0  0  0  0  0
    6.6849    2.5957    2.5818 H   0  0  0  0  0  0  0  0  0  0  0  0
    8.2508    1.9033    2.0130 H   0  0  0  0  0  0  0  0  0  0  0  0
    6.7748    1.7258    0.9921 H   0  0  0  0  0  0  0  0  0  0  0  0
    7.2211    0.4759    3.7889 H   0  0  0  0  0  0  0  0  0  0  0  0
    7.3804   -0.3939    2.2306 H   0  0  0  0  0  0  0  0  0  0  0  0
    4.9647    1.4485    4.4436 H   0  0  0  0  0  0  0  0  0  0  0  0
    2.5814    0.9756    4.5160 H   0  0  0  0  0  0  0  0  0  0  0  0
    1.3293    2.2210    2.6559 H   0  0  0  0  0  0  0  0  0  0  0  0
   -0.1302    3.9376    3.5659 H   0  0  0  0  0  0  0  0  0  0  0  0
   -2.9966    3.2760    5.8729 H   0  0  0  0  0  0  0  0  0  0  0  0
   -1.9024    4.5403    5.2230 H   0  0  0  0  0  0  0  0  0  0  0  0
   -4.1877    4.7067    4.2335 H   0  0  0  0  0  0  0  0  0  0  0  0
   -4.0574    3.0222    3.6013 H   0  0  0  0  0  0  0  0  0  0  0  0
   -2.9642    4.3231    2.9648 H   0  0  0  0  0  0  0  0  0  0  0  0
   -2.6943    0.9060    5.2263 H   0  0  0  0  0  0  0  0  0  0  0  0
   -1.2799   -0.8170    4.3165 H   0  0  0  0  0  0  0  0  0  0  0  0
    1.5073    1.3934    0.5259 H   0  0  0  0  0  0  0  0  0  0  0  0
   -1.5714   -2.4299   -0.5243 H   0  0  0  0  0  0  0  0  0  0  0  0
   -1.3817   -7.1795    5.8237 H   0  0  0  0  0  0  0  0  0  0  0  0
   -3.6305   -8.3662    5.3744 H   0  0  0  0  0  0  0  0  0  0  0  0
   -6.1635   -6.2785    3.3466 H   0  0  0  0  0  0  0  0  0  0  0  0
   -5.8686   -7.9500    3.9429 H   0  0  0  0  0  0  0  0  0  0  0  0
   -7.7733   -6.8259    5.1372 H   0  0  0  0  0  0  0  0  0  0  0  0
   -6.4276   -7.2484    6.2697 H   0  0  0  0  0  0  0  0  0  0  0  0
   -6.6477   -5.5342    5.7131 H   0  0  0  0  0  0  0  0  0  0  0  0
   -1.7070   -5.4695    7.7529 H   0  0  0  0  0  0  0  0  0  0  0  0
   -0.1694   -4.7647    9.7185 H   0  0  0  0  0  0  0  0  0  0  0  0
    3.4413   -3.2711    3.9973 H   0  0  0  0  0  0  0  0  0  0  0  0
    5.7250   -2.3764    4.7606 H   0  0  0  0  0  0  0  0  0  0  0  0
    5.5911   -0.3769    8.0933 H   0  0  0  0  0  0  0  0  0  0  0  0
    5.9601    0.4771    6.5500 H   0  0  0  0  0  0  0  0  0  0  0  0
    7.0567   -2.3093    7.3263 H   0  0  0  0  0  0  0  0  0  0  0  0
    7.9351   -0.7495    7.5467 H   0  0  0  0  0  0  0  0  0  0  0  0
    7.5339   -1.3126    5.8861 H   0  0  0  0  0  0  0  0  0  0  0  0
   -3.5972   -1.3454   -4.0102 H   0  0  0  0  0  0  0  0  0  0  0  0
   -5.9185   -0.7555   -3.6746 H   0  0  0  0  0  0  0  0  0  0  0  0
   -7.1751    1.4089   -0.9258 H   0  0  0  0  0  0  0  0  0  0  0  0
   -7.6395    0.2531   -2.2099 H   0  0  0  0  0  0  0  0  0  0  0  0
   -7.1041    1.9650   -3.9675 H   0  0  0  0  0  0  0  0  0  0  0  0
   -8.3396    2.5646   -2.7952 H   0  0  0  0  0  0  0  0  0  0  0  0
   -6.6323    3.1382   -2.6708 H   0  0  0  0  0  0  0  0  0  0  0  0
   -4.7880    2.0847   -0.6450 H   0  0  0  0  0  0  0  0  0  0  0  0
   -2.4481    1.4777   -0.9338 H   0  0  0  0  0  0  0  0  0  0  0  0
    0.8865   -0.8075   -4.3362 H   0  0  0  0  0  0  0  0  0  0  0  0
    1.3816   -2.7487   -5.7000 H   0  0  0  0  0  0  0  0  0  0  0  0
    1.0697   -5.1900   -6.0701 H   0  0  0  0  0  0  0  0  0  0  0  0
   -0.3747   -6.0280   -5.4223 H   0  0  0  0  0  0  0  0  0  0  0  0
   -0.3676   -3.9636   -7.7293 H   0  0  0  0  0  0  0  0  0  0  0  0
   -0.5360   -5.7520   -7.8907 H   0  0  0  0  0  0  0  0  0  0  0  0
   -1.8321   -4.7971   -7.0740 H   0  0  0  0  0  0  0  0  0  0  0  0
   -1.9900   -4.8236   -4.0116 H   0  0  0  0  0  0  0  0  0  0  0  0
   -2.4992   -2.8876   -2.6233 H   0  0  0  0  0  0  0  0  0  0  0  0
    3.9056    3.1691   -6.4984 H   0  0  0  0  0  0  0  0  0  0  0  0
    5.6834    4.8985   -5.7752 H   0  0  0  0  0  0  0  0  0  0  0  0
    4.3828    7.5283   -3.2133 H   0  0  0  0  0  0  0  0  0  0  0  0
    5.6619    7.3182   -4.4570 H   0  0  0  0  0  0  0  0  0  0  0  0
    5.3716    5.7611   -1.8082 H   0  0  0  0  0  0  0  0  0  0  0  0
    6.6186    5.3947   -3.0752 H   0  0  0  0  0  0  0  0  0  0  0  0
    6.6306    6.9888   -2.2189 H   0  0  0  0  0  0  0  0  0  0  0  0
    1.9483    4.2805   -7.8005 H   0  0  0  0  0  0  0  0  0  0  0  0
    0.5181    3.4863   -9.8116 H   0  0  0  0  0  0  0  0  0  0  0  0
   -3.6293    2.0450   -5.3859 H   0  0  0  0  0  0  0  0  0  0  0  0
   -5.3744    0.4209   -6.3889 H   0  0  0  0  0  0  0  0  0  0  0  0
   -5.4273   -1.7626   -7.9312 H   0  0  0  0  0  0  0  0  0  0  0  0
   -3.8640   -2.6131   -8.2167 H   0  0  0  0  0  0  0  0  0  0  0  0
   -5.5054   -2.6647   -5.6015 H   0  0  0  0  0  0  0  0  0  0  0  0
   -5.3616   -3.9980   -6.8093 H   0  0  0  0  0  0  0  0  0  0  0  0
   -3.9125   -3.4915   -5.8597 H   0  0  0  0  0  0  0  0  0  0  0  0
    3.0004   -1.6355    1.0886 H   0  0  0  0  0  0  0  0  0  0  0  0
    5.4064   -1.1893    1.0647 H   0  0  0  0  0  0  0  0  0  0  0  0
  1  2  1  0
  2  3  1  0
  3  4  2  0
  4  5  1  0
  5  6  2  0
  6  7  1  0
  7  8  1  0
  8  9  2  0
  9 10  1  0
 10 11  2  0
 11 12  1  0
 12 13  1  0
 11 14  1  0
 14 15  2  0
  7 16  1  0
 16 17  2  0
 17 18  1  0
 18 19  2  0
 19 20  1  0
 20 21  2  0
 21 22  1  0
 22 23  1  0
 23 24  1  0
 24 25  2  0
 25 26  1  0
 26 27  2  0
 27 28  1  0
 28 29  2  0
 29 30  1  0
 30 31  1  0
 29 32  1  0
 25 33  1  0
 33 34  1  0
 34 35  2  0
 35 36  1  0
 36 37  1  0
 37 38  1  0
 38 39  1  0
 39 40  2  0
 40 41  1  0
 41 42  2  0
 42 43  1  0
 43 44  1  0
 42 45  1  0
 38 46  2  0
 46 47  1  0
 19 48  1  0
 48 49  1  0
 49 50  2  0
 50 51  1  0
 51 52  2  0
 52 53  1  0
 53 54  1  0
 52 55  1  0
 55 56  2  0
 48 57  1  0
 57 58  2  0
 58 59  1  0
 59 60  2  0
 60 61  1  0
 61 62  1  0
 60 63  1  0
 63 64  2  0
 48 65  1  0
 65 66  2  0
 66 67  1  0
 67 68  1  0
 68 69  2  0
 69 70  1  0
 70 71  2  0
 71 72  1  0
 72 73  2  0
 73 74  1  0
 74 75  1  0
 73 76  1  0
 69 77  1  0
 77 78  1  0
 78 79  2  0
 79 80  1  0
 80 81  1  0
 81 82  1  0
 82 83  1  0
 83 84  2  0
 84 85  1  0
 85 86  2  0
 86 87  1  0
 87 88  1  0
 86 89  1  0
 82 90  2  0
  6 91  1  0
 91 92  2  0
 92  3  1  0
 47  7  1  0
 56 49  1  0
 64 57  1  0
 90 65  1  0
 15  8  1  0
 21 16  1  0
 47 22  2  0
 90 68  1  0
 66 18  1  0
 76 70  1  0
 81 77  2  0
 89 83  1  0
 46 24  1  0
 32 26  1  0
 37 33  2  0
 45 39  1  0
  1 93  1  0
  1 94  1  0
  1 95  1  0
  2 96  1  0
  2 97  1  0
  4 98  1  0
  5 99  1  0
  9100  1  0
 10101  1  0
 12102  1  0
 12103  1  0
 13104  1  0
 13105  1  0
 13106  1  0
 14107  1  0
 15108  1  0
 17109  1  0
 20110  1  0
 27111  1  0
 28112  1  0
 30113  1  0
 30114  1  0
 31115  1  0
 31116  1  0
 31117  1  0
 34118  1  0
 35119  1  0
 40120  1  0
 41121  1  0
 43122  1  0
 43123  1  0
 44124  1  0
 44125  1  0
 44126  1  0
 50127  1  0
 51128  1  0
 53129  1  0
 53130  1  0
 54131  1  0
 54132  1  0
 54133  1  0
 55134  1  0
 56135  1  0
 58136  1  0
 59137  1  0
 61138  1  0
 61139  1  0
 62140  1  0
 62141  1  0
 62142  1  0
 63143  1  0
 64144  1  0
 71145  1  0
 72146  1  0
 74147  1  0
 74148  1  0
 75149  1  0
 75150  1  0
 75151  1  0
 78152  1  0
 79153  1  0
 84154  1  0
 85155  1  0
 87156  1  0
 87157  1  0
 88158  1  0
 88159  1  0
 88160  1  0
 91161  1  0
 92162  1  0
M  END

