
     RDKit          3D

 64 67  0  0  0  0  0  0  0  0999 V2000
    0.9429   -3.0606    5.7713 C   0  0  0  0  0  0  0  0  0  0  0  0
   -0.3182   -3.4520    5.0084 C   0  0  0  0  0  0  0  0  0  0  0  0
   -1.0646   -2.2933    4.6358 O   0  0  0  0  0  0  0  0  0  0  0  0
   -0.7399   -1.4075    3.5935 C   0  0  0  0  0  0  0  0  0  0  0  0
    0.3279   -1.6440    2.7068 C   0  0  0  0  0  0  0  0  0  0  0  0
    0.6106   -0.7387    1.6835 C   0  0  0  0  0  0  0  0  0  0  0  0
   -0.1772    0.4088    1.5128 C   0  0  0  0  0  0  0  0  0  0  0  0
    0.1174    1.3779    0.4335 C   0  0  0  0  0  0  0  0  0  0  0  0
    0.2303    2.6939    0.7643 N   0  0  0  0  0  0  0  0  0  0  0  0
    0.5655    3.6362   -0.1530 C   0  0  0  0  0  0  0  0  0  0  0  0
    0.6802    4.9812    0.2145 C   0  0  0  0  0  0  0  0  0  0  0  0
    1.0403    5.9367   -0.7430 C   0  0  0  0  0  0  0  0  0  0  0  0
    1.1516    7.2403   -0.3865 F   0  0  0  0  0  0  0  0  0  0  0  0
    1.2866    5.5480   -2.0666 C   0  0  0  0  0  0  0  0  0  0  0  0
    1.6353    6.4752   -2.9926 F   0  0  0  0  0  0  0  0  0  0  0  0
    1.1723    4.2028   -2.4367 C   0  0  0  0  0  0  0  0  0  0  0  0
    0.8121    3.2461   -1.4816 C   0  0  0  0  0  0  0  0  0  0  0  0
    0.6830    1.9395   -1.8247 N   0  0  0  0  0  0  0  0  0  0  0  0
    0.3281    0.9902   -0.9154 C   0  0  0  0  0  0  0  0  0  0  0  0
    0.1363   -0.3974   -1.3923 C   0  0  0  0  0  0  0  0  0  0  0  0
   -1.0416   -1.0996   -1.1019 C   0  0  0  0  0  0  0  0  0  0  0  0
   -1.2156   -2.4059   -1.5589 C   0  0  0  0  0  0  0  0  0  0  0  0
   -0.2164   -3.0311   -2.3292 C   0  0  0  0  0  0  0  0  0  0  0  0
   -0.3459   -4.3476   -2.8054 O   0  0  0  0  0  0  0  0  0  0  0  0
   -1.5082   -5.1680   -2.6843 C   0  0  0  0  0  0  0  0  0  0  0  0
   -2.5819   -4.7347   -3.6768 C   0  0  0  0  0  0  0  0  0  0  0  0
    0.9620   -2.3310   -2.6343 C   0  0  0  0  0  0  0  0  0  0  0  0
    1.9395   -2.9869   -3.4032 O   0  0  0  0  0  0  0  0  0  0  0  0
    3.2445   -2.4872   -3.6964 C   0  0  0  0  0  0  0  0  0  0  0  0
    4.1505   -2.5896   -2.4738 C   0  0  0  0  0  0  0  0  0  0  0  0
    1.1255   -1.0089   -2.1747 C   0  0  0  0  0  0  0  0  0  0  0  0
   -1.2305    0.6566    2.4041 C   0  0  0  0  0  0  0  0  0  0  0  0
   -1.5218   -0.2517    3.4407 C   0  0  0  0  0  0  0  0  0  0  0  0
   -2.5792   -0.0409    4.3398 O   0  0  0  0  0  0  0  0  0  0  0  0
   -3.4570    1.0815    4.3081 C   0  0  0  0  0  0  0  0  0  0  0  0
   -4.4718    0.9633    5.4336 C   0  0  0  0  0  0  0  0  0  0  0  0
    0.6712   -2.4699    6.6715 H   0  0  0  0  0  0  0  0  0  0  0  0
    1.6175   -2.4545    5.1328 H   0  0  0  0  0  0  0  0  0  0  0  0
    1.4837   -3.9758    6.0917 H   0  0  0  0  0  0  0  0  0  0  0  0
   -0.0721   -4.0695    4.1189 H   0  0  0  0  0  0  0  0  0  0  0  0
   -0.9512   -4.0730    5.6765 H   0  0  0  0  0  0  0  0  0  0  0  0
    0.9497   -2.5227    2.7962 H   0  0  0  0  0  0  0  0  0  0  0  0
    1.4497   -0.9322    1.0267 H   0  0  0  0  0  0  0  0  0  0  0  0
    0.4935    5.2860    1.2369 H   0  0  0  0  0  0  0  0  0  0  0  0
    1.3608    3.9075   -3.4616 H   0  0  0  0  0  0  0  0  0  0  0  0
   -1.8308   -0.6338   -0.5247 H   0  0  0  0  0  0  0  0  0  0  0  0
   -2.1325   -2.9171   -1.3045 H   0  0  0  0  0  0  0  0  0  0  0  0
   -1.8969   -5.1561   -1.6442 H   0  0  0  0  0  0  0  0  0  0  0  0
   -1.2205   -6.2148   -2.9171 H   0  0  0  0  0  0  0  0  0  0  0  0
   -2.9149   -3.6973   -3.4688 H   0  0  0  0  0  0  0  0  0  0  0  0
   -3.4579   -5.4122   -3.5973 H   0  0  0  0  0  0  0  0  0  0  0  0
   -2.1816   -4.7845   -4.7114 H   0  0  0  0  0  0  0  0  0  0  0  0
    3.6806   -3.1087   -4.5065 H   0  0  0  0  0  0  0  0  0  0  0  0
    3.1957   -1.4434   -4.0719 H   0  0  0  0  0  0  0  0  0  0  0  0
    5.1701   -2.2360   -2.7347 H   0  0  0  0  0  0  0  0  0  0  0  0
    4.2117   -3.6460   -2.1370 H   0  0  0  0  0  0  0  0  0  0  0  0
    3.7612   -1.9683   -1.6412 H   0  0  0  0  0  0  0  0  0  0  0  0
    2.0221   -0.4511   -2.4057 H   0  0  0  0  0  0  0  0  0  0  0  0
   -1.8274    1.5497    2.2743 H   0  0  0  0  0  0  0  0  0  0  0  0
   -2.8747    2.0190    4.4408 H   0  0  0  0  0  0  0  0  0  0  0  0
   -3.9948    1.1118    3.3357 H   0  0  0  0  0  0  0  0  0  0  0  0
   -5.1577    1.8362    5.4136 H   0  0  0  0  0  0  0  0  0  0  0  0
   -3.9499    0.9364    6.4137 H   0  0  0  0  0  0  0  0  0  0  0  0
   -5.0669    0.0335    5.3117 H   0  0  0  0  0  0  0  0  0  0  0  0
  1  2  1  0
  2  3  1  0
  3  4  1  0
  4  5  2  0
  5  6  1  0
  6  7  2  0
  7  8  1  0
  8  9  2  0
  9 10  1  0
 10 11  2  0
 11 12  1  0
 12 13  1  0
 12 14  2  0
 14 15  1  0
 14 16  1  0
 16 17  2  0
 17 18  1  0
 18 19  2  0
 19 20  1  0
 20 21  2  0
 21 22  1  0
 22 23  2  0
 23 24  1  0
 24 25  1  0
 25 26  1  0
 23 27  1  0
 27 28  1  0
 28 29  1  0
 29 30  1  0
 27 31  2  0
  7 32  1  0
 32 33  2  0
 33 34  1  0
 34 35  1  0
 35 36  1  0
 33  4  1  0
 19  8  1  0
 31 20  1  0
 17 10  1  0
  1 37  1  0
  1 38  1  0
  1 39  1  0
  2 40  1  0
  2 41  1  0
  5 42  1  0
  6 43  1  0
 11 44  1  0
 16 45  1  0
 21 46  1  0
 22 47  1  0
 25 48  1  0
 25 49  1  0
 26 50  1  0
 26 51  1  0
 26 52  1  0
 29 53  1  0
 29 54  1  0
 30 55  1  0
 30 56  1  0
 30 57  1  0
 31 58  1  0
 32 59  1  0
 35 60  1  0
 35 61  1  0
 36 62  1  0
 36 63  1  0
 36 64  1  0
M  END

