
     RDKit          3D

 12 12  0  0  0  0  0  0  0  0999 V2000
   -0.9865   -2.1739    0.6155 F   0  0  0  0  0  0  0  0  0  0  0  0
    0.1641   -1.4808    0.8017 C   0  0  0  0  0  0  0  0  0  0  0  0
    1.3751   -2.1659    0.9502 C   0  0  0  0  0  0  0  0  0  0  0  0
    2.5641   -1.4536    1.1425 C   0  0  0  0  0  0  0  0  0  0  0  0
    3.7361   -2.1204    1.2860 F   0  0  0  0  0  0  0  0  0  0  0  0
    2.5420   -0.0546    1.1864 C   0  0  0  0  0  0  0  0  0  0  0  0
    3.6926    0.6385    1.3726 F   0  0  0  0  0  0  0  0  0  0  0  0
    1.3309    0.6304    1.0379 C   0  0  0  0  0  0  0  0  0  0  0  0
    0.1420   -0.0818    0.8456 C   0  0  0  0  0  0  0  0  0  0  0  0
   -1.0301    0.5850    0.7021 F   0  0  0  0  0  0  0  0  0  0  0  0
    1.3922   -3.2477    0.9163 H   0  0  0  0  0  0  0  0  0  0  0  0
    1.3139    1.7123    1.0718 H   0  0  0  0  0  0  0  0  0  0  0  0
  1  2  1  0
  2  3  2  0
  3  4  1  0
  4  5  1  0
  4  6  2  0
  6  7  1  0
  6  8  1  0
  8  9  2  0
  9 10  1  0
  9  2  1  0
  3 11  1  0
  8 12  1  0
M  END

