
     RDKit          3D

 66 72  0  0  0  0  0  0  0  0999 V2000
    7.2729   -3.2128    2.9957 C   0  0  0  0  0  0  0  0  0  0  0  0
    7.8297   -2.7474    1.6521 C   0  0  0  0  0  0  0  0  0  0  0  0
    7.3737   -1.3570    1.3223 C   0  0  0  0  0  0  0  0  0  0  0  0
    6.8007   -0.9556    0.1208 C   0  0  0  0  0  0  0  0  0  0  0  0
    6.5501    0.4206    0.0578 C   0  0  0  0  0  0  0  0  0  0  0  0
    6.9192    1.1031    1.2166 C   0  0  0  0  0  0  0  0  0  0  0  0
    6.8621    2.5572    1.4455 C   0  0  0  0  0  0  0  0  0  0  0  0
    5.8690    3.3665    1.0474 C   0  0  0  0  0  0  0  0  0  0  0  0
    4.5658    2.9209    0.5196 C   0  0  0  0  0  0  0  0  0  0  0  0
    3.7706    3.6619   -0.3487 C   0  0  0  0  0  0  0  0  0  0  0  0
    2.5386    3.0561   -0.6298 C   0  0  0  0  0  0  0  0  0  0  0  0
    2.3540    1.8500    0.0390 C   0  0  0  0  0  0  0  0  0  0  0  0
    1.1953    0.9501   -0.0988 C   0  0  0  0  0  0  0  0  0  0  0  0
   -0.1256    1.3815    0.1416 C   0  0  0  0  0  0  0  0  0  0  0  0
   -0.5211    2.6541    0.5894 C   0  0  0  0  0  0  0  0  0  0  0  0
   -1.8936    2.7656    0.7861 C   0  0  0  0  0  0  0  0  0  0  0  0
   -2.6193    1.2905    0.4178 S   0  0  0  0  0  0  0  0  0  0  0  0
   -1.1982    0.4972   -0.0098 C   0  0  0  0  0  0  0  0  0  0  0  0
   -1.0300   -0.8447   -0.4003 C   0  0  0  0  0  0  0  0  0  0  0  0
   -2.1858   -1.7530   -0.5194 C   0  0  0  0  0  0  0  0  0  0  0  0
   -3.3450   -1.4985   -1.2435 C   0  0  0  0  0  0  0  0  0  0  0  0
   -4.3010   -2.5127   -1.1296 C   0  0  0  0  0  0  0  0  0  0  0  0
   -3.9055   -3.5518   -0.2897 C   0  0  0  0  0  0  0  0  0  0  0  0
   -4.6666   -4.7750    0.0128 C   0  0  0  0  0  0  0  0  0  0  0  0
   -5.9926   -4.8192    0.2122 C   0  0  0  0  0  0  0  0  0  0  0  0
   -6.8507   -3.6361    0.4064 C   0  0  0  0  0  0  0  0  0  0  0  0
   -8.1833   -3.5497    0.0225 C   0  0  0  0  0  0  0  0  0  0  0  0
   -8.7983   -2.3528    0.4133 C   0  0  0  0  0  0  0  0  0  0  0  0
   -7.9556   -1.5100    1.1297 C   0  0  0  0  0  0  0  0  0  0  0  0
   -8.3290   -0.1796    1.7122 C   0  0  0  0  0  0  0  0  0  0  0  0
   -7.4614    0.9363    1.1358 C   0  0  0  0  0  0  0  0  0  0  0  0
   -6.4564   -2.2540    1.2904 S   0  0  0  0  0  0  0  0  0  0  0  0
   -2.3522   -3.2338    0.2672 S   0  0  0  0  0  0  0  0  0  0  0  0
    0.2909   -1.2730   -0.6488 C   0  0  0  0  0  0  0  0  0  0  0  0
    0.6874   -2.5416   -1.1097 C   0  0  0  0  0  0  0  0  0  0  0  0
    2.0620   -2.6546   -1.2962 C   0  0  0  0  0  0  0  0  0  0  0  0
    2.7882   -1.1838   -0.9101 S   0  0  0  0  0  0  0  0  0  0  0  0
    1.3641   -0.3904   -0.4895 C   0  0  0  0  0  0  0  0  0  0  0  0
    3.7083    1.5448    0.9867 S   0  0  0  0  0  0  0  0  0  0  0  0
    7.6034    0.0049    2.2887 S   0  0  0  0  0  0  0  0  0  0  0  0
    7.6394   -2.5597    3.8168 H   0  0  0  0  0  0  0  0  0  0  0  0
    6.1626   -3.1979    2.9747 H   0  0  0  0  0  0  0  0  0  0  0  0
    7.6080   -4.2521    3.1946 H   0  0  0  0  0  0  0  0  0  0  0  0
    8.9401   -2.7679    1.6833 H   0  0  0  0  0  0  0  0  0  0  0  0
    7.4912   -3.4538    0.8616 H   0  0  0  0  0  0  0  0  0  0  0  0
    6.5903   -1.6307   -0.6977 H   0  0  0  0  0  0  0  0  0  0  0  0
    6.1452    0.9056   -0.8204 H   0  0  0  0  0  0  0  0  0  0  0  0
    7.7040    3.0038    1.9569 H   0  0  0  0  0  0  0  0  0  0  0  0
    6.0090    4.4337    1.1685 H   0  0  0  0  0  0  0  0  0  0  0  0
    4.0725    4.6112   -0.7730 H   0  0  0  0  0  0  0  0  0  0  0  0
    1.8130    3.4830   -1.3095 H   0  0  0  0  0  0  0  0  0  0  0  0
    0.1609    3.4689    0.7897 H   0  0  0  0  0  0  0  0  0  0  0  0
   -2.4056    3.6492    1.1389 H   0  0  0  0  0  0  0  0  0  0  0  0
   -3.4940   -0.6109   -1.8447 H   0  0  0  0  0  0  0  0  0  0  0  0
   -5.2497   -2.4859   -1.6497 H   0  0  0  0  0  0  0  0  0  0  0  0
   -4.1154   -5.7037    0.0458 H   0  0  0  0  0  0  0  0  0  0  0  0
   -6.4644   -5.7912    0.2911 H   0  0  0  0  0  0  0  0  0  0  0  0
   -8.6986   -4.3291   -0.5228 H   0  0  0  0  0  0  0  0  0  0  0  0
   -9.8308   -2.1174    0.1907 H   0  0  0  0  0  0  0  0  0  0  0  0
   -8.1997   -0.2172    2.8151 H   0  0  0  0  0  0  0  0  0  0  0  0
   -9.3961    0.0428    1.4972 H   0  0  0  0  0  0  0  0  0  0  0  0
   -6.3949    0.7763    1.4024 H   0  0  0  0  0  0  0  0  0  0  0  0
   -7.5591    0.9715    0.0300 H   0  0  0  0  0  0  0  0  0  0  0  0
   -7.7872    1.9121    1.5526 H   0  0  0  0  0  0  0  0  0  0  0  0
    0.0050   -3.3517   -1.3293 H   0  0  0  0  0  0  0  0  0  0  0  0
    2.5757   -3.5373   -1.6515 H   0  0  0  0  0  0  0  0  0  0  0  0
  1  2  1  0
  2  3  1  0
  3  4  2  0
  4  5  1  0
  5  6  2  0
  6  7  1  0
  7  8  2  3
  8  9  1  0
  9 10  2  0
 10 11  1  0
 11 12  2  0
 12 13  1  0
 13 14  2  0
 14 15  1  0
 15 16  2  0
 16 17  1  0
 17 18  1  0
 18 19  2  0
 19 20  1  0
 20 21  2  0
 21 22  1  0
 22 23  2  0
 23 24  1  0
 24 25  2  3
 25 26  1  0
 26 27  2  0
 27 28  1  0
 28 29  2  0
 29 30  1  0
 30 31  1  0
 29 32  1  0
 23 33  1  0
 19 34  1  0
 34 35  1  0
 35 36  2  0
 36 37  1  0
 37 38  1  0
 12 39  1  0
  6 40  1  0
 40  3  1  0
 39  9  1  0
 38 13  1  0
 18 14  1  0
 33 20  1  0
 38 34  2  0
 32 26  1  0
  1 41  1  0
  1 42  1  0
  1 43  1  0
  2 44  1  0
  2 45  1  0
  4 46  1  0
  5 47  1  0
  7 48  1  0
  8 49  1  0
 10 50  1  0
 11 51  1  0
 15 52  1  0
 16 53  1  0
 21 54  1  0
 22 55  1  0
 24 56  1  0
 25 57  1  0
 27 58  1  0
 28 59  1  0
 30 60  1  0
 30 61  1  0
 31 62  1  0
 31 63  1  0
 31 64  1  0
 35 65  1  0
 36 66  1  0
M  END

