
     RDKit          3D

 52 56  0  0  0  0  0  0  0  0999 V2000
    2.1849   -0.5548    3.7855 C   0  0  0  0  0  0  0  0  0  0  0  0
    3.1824   -0.7911    2.6446 C   0  0  0  0  0  0  0  0  0  0  0  0
    2.7662   -0.1532    1.2899 C   0  0  0  0  0  0  0  0  0  0  0  0
    3.7183   -0.5463    0.1285 C   0  0  0  0  0  0  0  0  0  0  0  0
    5.1679   -0.0857    0.3004 C   0  0  0  0  0  0  0  0  0  0  0  0
    1.3380   -0.5323    0.9033 C   0  0  0  0  0  0  0  0  0  0  0  0
    0.8164   -1.8177    0.6870 C   0  0  0  0  0  0  0  0  0  0  0  0
   -0.5430   -1.8987    0.3682 C   0  0  0  0  0  0  0  0  0  0  0  0
   -1.3624   -0.7714    0.2499 C   0  0  0  0  0  0  0  0  0  0  0  0
   -0.8408    0.5139    0.4661 C   0  0  0  0  0  0  0  0  0  0  0  0
    0.5186    0.5950    0.7850 C   0  0  0  0  0  0  0  0  0  0  0  0
    1.3360    1.7376    1.0810 C   0  0  0  0  0  0  0  0  0  0  0  0
    1.0869    3.3551    1.4297 S   0  0  0  0  0  0  0  0  0  0  0  0
    2.6859    3.5847    1.9697 C   0  0  0  0  0  0  0  0  0  0  0  0
    3.3870    2.3748    1.9137 C   0  0  0  0  0  0  0  0  0  0  0  0
    2.5966    1.3486    1.3943 C   0  0  0  0  0  0  0  0  0  0  0  0
   -2.7906   -1.1506   -0.1367 C   0  0  0  0  0  0  0  0  0  0  0  0
   -3.7427   -0.7574    1.0247 C   0  0  0  0  0  0  0  0  0  0  0  0
   -5.1923   -1.2179    0.8529 C   0  0  0  0  0  0  0  0  0  0  0  0
   -3.2068   -0.5127   -1.4913 C   0  0  0  0  0  0  0  0  0  0  0  0
   -2.2094   -0.7490   -2.6324 C   0  0  0  0  0  0  0  0  0  0  0  0
   -2.6210   -2.6524   -0.2411 C   0  0  0  0  0  0  0  0  0  0  0  0
   -3.4115   -3.6786   -0.7604 C   0  0  0  0  0  0  0  0  0  0  0  0
   -2.7104   -4.8885   -0.8163 C   0  0  0  0  0  0  0  0  0  0  0  0
   -1.1114   -4.6588   -0.2764 S   0  0  0  0  0  0  0  0  0  0  0  0
   -1.3604   -3.0413    0.0721 C   0  0  0  0  0  0  0  0  0  0  0  0
    1.2067   -1.0287    3.5609 H   0  0  0  0  0  0  0  0  0  0  0  0
    2.5806   -1.0072    4.7190 H   0  0  0  0  0  0  0  0  0  0  0  0
    2.0364    0.5312    3.9612 H   0  0  0  0  0  0  0  0  0  0  0  0
    3.3090   -1.8877    2.5126 H   0  0  0  0  0  0  0  0  0  0  0  0
    4.1611   -0.3776    2.9666 H   0  0  0  0  0  0  0  0  0  0  0  0
    3.3347   -0.1209   -0.8259 H   0  0  0  0  0  0  0  0  0  0  0  0
    3.7188   -1.6525    0.0149 H   0  0  0  0  0  0  0  0  0  0  0  0
    5.6242   -0.5257    1.2100 H   0  0  0  0  0  0  0  0  0  0  0  0
    5.2301    1.0200    0.3425 H   0  0  0  0  0  0  0  0  0  0  0  0
    5.7622   -0.4245   -0.5743 H   0  0  0  0  0  0  0  0  0  0  0  0
    1.4324   -2.7033    0.7703 H   0  0  0  0  0  0  0  0  0  0  0  0
   -1.4568    1.3995    0.3828 H   0  0  0  0  0  0  0  0  0  0  0  0
    3.0861    4.5143    2.3509 H   0  0  0  0  0  0  0  0  0  0  0  0
    4.3975    2.2447    2.2761 H   0  0  0  0  0  0  0  0  0  0  0  0
   -3.7431    0.3488    1.1384 H   0  0  0  0  0  0  0  0  0  0  0  0
   -3.3591   -1.1830    1.9791 H   0  0  0  0  0  0  0  0  0  0  0  0
   -5.7865   -0.8791    1.7276 H   0  0  0  0  0  0  0  0  0  0  0  0
   -5.6486   -0.7776   -0.0567 H   0  0  0  0  0  0  0  0  0  0  0  0
   -5.2546   -2.3235    0.8105 H   0  0  0  0  0  0  0  0  0  0  0  0
   -3.3335    0.5839   -1.3594 H   0  0  0  0  0  0  0  0  0  0  0  0
   -4.1856   -0.9262   -1.8134 H   0  0  0  0  0  0  0  0  0  0  0  0
   -1.2312   -0.2750   -2.4078 H   0  0  0  0  0  0  0  0  0  0  0  0
   -2.0609   -1.8349   -2.8080 H   0  0  0  0  0  0  0  0  0  0  0  0
   -2.6052   -0.2965   -3.5659 H   0  0  0  0  0  0  0  0  0  0  0  0
   -4.4220   -3.5485   -1.1228 H   0  0  0  0  0  0  0  0  0  0  0  0
   -3.1106   -5.8181   -1.1975 H   0  0  0  0  0  0  0  0  0  0  0  0
  1  2  1  0
  2  3  1  0
  3  4  1  0
  4  5  1  0
  3  6  1  0
  6  7  2  0
  7  8  1  0
  8  9  2  0
  9 10  1  0
 10 11  2  0
 11 12  1  0
 12 13  1  0
 13 14  1  0
 14 15  2  0
 15 16  1  0
  9 17  1  0
 17 18  1  0
 18 19  1  0
 17 20  1  0
 20 21  1  0
 17 22  1  0
 22 23  1  0
 23 24  2  0
 24 25  1  0
 25 26  1  0
 16  3  1  0
 26 22  2  0
 11  6  1  0
 16 12  2  0
 26  8  1  0
  1 27  1  0
  1 28  1  0
  1 29  1  0
  2 30  1  0
  2 31  1  0
  4 32  1  0
  4 33  1  0
  5 34  1  0
  5 35  1  0
  5 36  1  0
  7 37  1  0
 10 38  1  0
 14 39  1  0
 15 40  1  0
 18 41  1  0
 18 42  1  0
 19 43  1  0
 19 44  1  0
 19 45  1  0
 20 46  1  0
 20 47  1  0
 21 48  1  0
 21 49  1  0
 21 50  1  0
 23 51  1  0
 24 52  1  0
M  END

