
     RDKit          3D

 56 60  0  0  0  0  0  0  0  0999 V2000
    1.3124   -7.2387   -1.0272 C   0  0  0  0  0  0  0  0  0  0  0  0
    2.5415   -6.3376   -0.9775 C   0  0  0  0  0  0  0  0  0  0  0  0
    2.2032   -4.9385   -1.4194 C   0  0  0  0  0  0  0  0  0  0  0  0
    1.6297   -4.0078   -0.5367 C   0  0  0  0  0  0  0  0  0  0  0  0
    1.3451   -2.7820   -1.1259 C   0  0  0  0  0  0  0  0  0  0  0  0
    0.7286   -1.6211   -0.4527 C   0  0  0  0  0  0  0  0  0  0  0  0
    1.2462   -1.0896    0.7483 C   0  0  0  0  0  0  0  0  0  0  0  0
    2.4103   -1.5103    1.4162 C   0  0  0  0  0  0  0  0  0  0  0  0
    2.6892   -0.7671    2.5586 C   0  0  0  0  0  0  0  0  0  0  0  0
    1.5078    0.4206    2.7388 S   0  0  0  0  0  0  0  0  0  0  0  0
    0.6209   -0.0048    1.3729 C   0  0  0  0  0  0  0  0  0  0  0  0
   -0.5286    0.6164    0.8511 C   0  0  0  0  0  0  0  0  0  0  0  0
   -1.1406    1.7781    1.5261 C   0  0  0  0  0  0  0  0  0  0  0  0
   -1.5042    1.8413    2.8664 C   0  0  0  0  0  0  0  0  0  0  0  0
   -2.0301    3.0867    3.2450 C   0  0  0  0  0  0  0  0  0  0  0  0
   -2.4577    3.3812    4.6563 C   0  0  0  0  0  0  0  0  0  0  0  0
   -1.2849    3.9090    5.4755 C   0  0  0  0  0  0  0  0  0  0  0  0
   -2.0417    4.0170    2.1998 C   0  0  0  0  0  0  0  0  0  0  0  0
   -2.5688    5.4210    2.2395 C   0  0  0  0  0  0  0  0  0  0  0  0
   -4.0583    5.4467    1.9162 C   0  0  0  0  0  0  0  0  0  0  0  0
   -1.4435    3.2726    0.8146 S   0  0  0  0  0  0  0  0  0  0  0  0
   -1.0475    0.0842   -0.3486 C   0  0  0  0  0  0  0  0  0  0  0  0
   -2.2148    0.5016   -1.0126 C   0  0  0  0  0  0  0  0  0  0  0  0
   -2.4962   -0.2428   -2.1535 C   0  0  0  0  0  0  0  0  0  0  0  0
   -1.3134   -1.4284   -2.3359 S   0  0  0  0  0  0  0  0  0  0  0  0
   -0.4218   -1.0006   -0.9740 C   0  0  0  0  0  0  0  0  0  0  0  0
    1.7897   -2.8510   -2.7452 S   0  0  0  0  0  0  0  0  0  0  0  0
    2.3627   -4.4335   -2.7183 C   0  0  0  0  0  0  0  0  0  0  0  0
    2.8740   -5.1481   -3.9372 C   0  0  0  0  0  0  0  0  0  0  0  0
    1.7206   -5.6521   -4.7976 C   0  0  0  0  0  0  0  0  0  0  0  0
    0.9246   -7.3114   -2.0636 H   0  0  0  0  0  0  0  0  0  0  0  0
    0.5146   -6.8400   -0.3649 H   0  0  0  0  0  0  0  0  0  0  0  0
    1.5849   -8.2574   -0.6796 H   0  0  0  0  0  0  0  0  0  0  0  0
    3.3489   -6.7740   -1.5981 H   0  0  0  0  0  0  0  0  0  0  0  0
    2.9217   -6.3086    0.0667 H   0  0  0  0  0  0  0  0  0  0  0  0
    1.4118   -4.2302    0.5004 H   0  0  0  0  0  0  0  0  0  0  0  0
    3.0511   -2.3132    1.0792 H   0  0  0  0  0  0  0  0  0  0  0  0
    3.5368   -0.9179    3.2133 H   0  0  0  0  0  0  0  0  0  0  0  0
   -1.3984    1.0086    3.5500 H   0  0  0  0  0  0  0  0  0  0  0  0
   -3.2831    4.1234    4.6665 H   0  0  0  0  0  0  0  0  0  0  0  0
   -2.8432    2.4530    5.1309 H   0  0  0  0  0  0  0  0  0  0  0  0
   -1.6202    4.1170    6.5133 H   0  0  0  0  0  0  0  0  0  0  0  0
   -0.4693    3.1552    5.5094 H   0  0  0  0  0  0  0  0  0  0  0  0
   -0.8947    4.8498    5.0325 H   0  0  0  0  0  0  0  0  0  0  0  0
   -2.0239    6.0385    1.4938 H   0  0  0  0  0  0  0  0  0  0  0  0
   -2.3947    5.8713    3.2392 H   0  0  0  0  0  0  0  0  0  0  0  0
   -4.4283    6.4930    1.9518 H   0  0  0  0  0  0  0  0  0  0  0  0
   -4.2383    5.0401    0.8980 H   0  0  0  0  0  0  0  0  0  0  0  0
   -4.6268    4.8436    2.6556 H   0  0  0  0  0  0  0  0  0  0  0  0
   -2.8576    1.3014   -0.6730 H   0  0  0  0  0  0  0  0  0  0  0  0
   -3.3466   -0.0946   -2.8050 H   0  0  0  0  0  0  0  0  0  0  0  0
    3.4855   -4.4401   -4.5366 H   0  0  0  0  0  0  0  0  0  0  0  0
    3.5318   -5.9965   -3.6639 H   0  0  0  0  0  0  0  0  0  0  0  0
    1.0831   -4.8032   -5.1256 H   0  0  0  0  0  0  0  0  0  0  0  0
    1.0999   -6.3764   -4.2318 H   0  0  0  0  0  0  0  0  0  0  0  0
    2.1243   -6.1601   -5.6986 H   0  0  0  0  0  0  0  0  0  0  0  0
  1  2  1  0
  2  3  1  0
  3  4  1  0
  4  5  2  0
  5  6  1  0
  6  7  2  0
  7  8  1  0
  8  9  2  0
  9 10  1  0
 10 11  1  0
 11 12  2  0
 12 13  1  0
 13 14  2  0
 14 15  1  0
 15 16  1  0
 16 17  1  0
 15 18  2  0
 18 19  1  0
 19 20  1  0
 18 21  1  0
 12 22  1  0
 22 23  1  0
 23 24  2  0
 24 25  1  0
 25 26  1  0
  5 27  1  0
 27 28  1  0
 28 29  1  0
 29 30  1  0
 28  3  2  0
 26  6  1  0
 11  7  1  0
 21 13  1  0
 26 22  2  0
  1 31  1  0
  1 32  1  0
  1 33  1  0
  2 34  1  0
  2 35  1  0
  4 36  1  0
  8 37  1  0
  9 38  1  0
 14 39  1  0
 16 40  1  0
 16 41  1  0
 17 42  1  0
 17 43  1  0
 17 44  1  0
 19 45  1  0
 19 46  1  0
 20 47  1  0
 20 48  1  0
 20 49  1  0
 23 50  1  0
 24 51  1  0
 29 52  1  0
 29 53  1  0
 30 54  1  0
 30 55  1  0
 30 56  1  0
M  END

