
     RDKit          3D

 15 15  0  0  0  0  0  0  0  0999 V2000
   -0.5669   -2.2135    0.0589 C   0  0  0  0  0  0  0  0  0  0  0  0
   -0.1731   -1.0065    0.7004 O   0  0  0  0  0  0  0  0  0  0  0  0
    1.1459   -0.5415    0.6879 C   0  0  0  0  0  0  0  0  0  0  0  0
    2.0464   -1.1950    0.0928 O   0  0  0  0  0  0  0  0  0  0  0  0
    1.4818    0.7173    1.3736 C   0  0  0  0  0  0  0  0  0  0  0  0
    2.7782    1.2585    1.4122 C   0  0  0  0  0  0  0  0  0  0  0  0
    2.8613    2.4523    2.1148 C   0  0  0  0  0  0  0  0  0  0  0  0
    1.3268    2.8304    2.6846 S   0  0  0  0  0  0  0  0  0  0  0  0
    0.5405    1.4885    2.0489 C   0  0  0  0  0  0  0  0  0  0  0  0
   -1.6553   -2.3673    0.2081 H   0  0  0  0  0  0  0  0  0  0  0  0
   -0.3581   -2.1508   -1.0302 H   0  0  0  0  0  0  0  0  0  0  0  0
   -0.0183   -3.0737    0.4976 H   0  0  0  0  0  0  0  0  0  0  0  0
    3.6365    0.7962    0.9420 H   0  0  0  0  0  0  0  0  0  0  0  0
    3.7591    3.0356    2.2675 H   0  0  0  0  0  0  0  0  0  0  0  0
   -0.5141    1.2683    2.1504 H   0  0  0  0  0  0  0  0  0  0  0  0
  1  2  1  0
  2  3  1  0
  3  4  2  0
  3  5  1  0
  5  6  1  0
  6  7  2  0
  7  8  1  0
  8  9  1  0
  9  5  2  0
  1 10  1  0
  1 11  1  0
  1 12  1  0
  6 13  1  0
  7 14  1  0
  9 15  1  0
M  END

