
     RDKit          3D

 22 23  0  0  0  0  0  0  0  0999 V2000
    1.6350    1.2224    4.3133 C   0  0  0  0  0  0  0  0  0  0  0  0
    0.5277    0.2110    4.0409 C   0  0  0  0  0  0  0  0  0  0  0  0
    0.4992   -0.1639    2.5924 C   0  0  0  0  0  0  0  0  0  0  0  0
    1.2570   -1.1638    1.9963 C   0  0  0  0  0  0  0  0  0  0  0  0
    1.0759   -1.2439    0.6102 C   0  0  0  0  0  0  0  0  0  0  0  0
    0.1836   -0.2958    0.1102 C   0  0  0  0  0  0  0  0  0  0  0  0
   -0.2081   -0.1197   -1.3037 C   0  0  0  0  0  0  0  0  0  0  0  0
   -1.1112    0.8680   -1.7353 C   0  0  0  0  0  0  0  0  0  0  0  0
   -1.3392    0.8578   -3.1038 C   0  0  0  0  0  0  0  0  0  0  0  0
   -0.4210   -0.3760   -3.7766 S   0  0  0  0  0  0  0  0  0  0  0  0
    0.2754   -0.9111   -2.3445 C   0  0  0  0  0  0  0  0  0  0  0  0
   -0.3722    0.6384    1.3996 S   0  0  0  0  0  0  0  0  0  0  0  0
    1.4683    2.1462    3.7187 H   0  0  0  0  0  0  0  0  0  0  0  0
    2.6246    0.7907    4.0507 H   0  0  0  0  0  0  0  0  0  0  0  0
    1.6380    1.4889    5.3911 H   0  0  0  0  0  0  0  0  0  0  0  0
   -0.4516    0.6492    4.3293 H   0  0  0  0  0  0  0  0  0  0  0  0
    0.6957   -0.6972    4.6588 H   0  0  0  0  0  0  0  0  0  0  0  0
    1.9270   -1.8130    2.5447 H   0  0  0  0  0  0  0  0  0  0  0  0
    1.5924   -1.9711   -0.0011 H   0  0  0  0  0  0  0  0  0  0  0  0
   -1.5908    1.5764   -1.0729 H   0  0  0  0  0  0  0  0  0  0  0  0
   -1.9952    1.5291   -3.6411 H   0  0  0  0  0  0  0  0  0  0  0  0
    0.9761   -1.7300   -2.2608 H   0  0  0  0  0  0  0  0  0  0  0  0
  1  2  1  0
  2  3  1  0
  3  4  2  0
  4  5  1  0
  5  6  2  0
  6  7  1  0
  7  8  1  0
  8  9  2  0
  9 10  1  0
 10 11  1  0
  6 12  1  0
 12  3  1  0
 11  7  2  0
  1 13  1  0
  1 14  1  0
  1 15  1  0
  2 16  1  0
  2 17  1  0
  4 18  1  0
  5 19  1  0
  8 20  1  0
  9 21  1  0
 11 22  1  0
M  END

