
     RDKit          3D

 46 50  0  0  0  0  0  0  0  0999 V2000
   -0.8917   -6.8233    3.8496 C   0  0  0  0  0  0  0  0  0  0  0  0
   -1.1744   -7.5701    2.5524 C   0  0  0  0  0  0  0  0  0  0  0  0
   -2.6950   -6.9474    1.7530 S   0  0  0  0  0  0  0  0  0  0  0  0
   -1.9031   -5.5354    0.9799 C   0  0  0  0  0  0  0  0  0  0  0  0
   -1.8682   -3.9851    1.6264 S   0  0  0  0  0  0  0  0  0  0  0  0
   -1.0059   -3.2906    0.3559 C   0  0  0  0  0  0  0  0  0  0  0  0
   -0.6297   -1.8664    0.2561 C   0  0  0  0  0  0  0  0  0  0  0  0
    0.0820   -1.2038    1.2790 C   0  0  0  0  0  0  0  0  0  0  0  0
    0.5907   -1.7837    2.4550 C   0  0  0  0  0  0  0  0  0  0  0  0
    1.2864   -0.8846    3.2566 C   0  0  0  0  0  0  0  0  0  0  0  0
    1.2892    0.6244    2.5076 S   0  0  0  0  0  0  0  0  0  0  0  0
    0.3942    0.1556    1.1615 C   0  0  0  0  0  0  0  0  0  0  0  0
    0.0380    0.9252    0.0387 C   0  0  0  0  0  0  0  0  0  0  0  0
    0.4096    2.3509   -0.0606 C   0  0  0  0  0  0  0  0  0  0  0  0
    1.0909    2.9428   -1.1202 C   0  0  0  0  0  0  0  0  0  0  0  0
    1.3087    4.3130   -0.9378 C   0  0  0  0  0  0  0  0  0  0  0  0
    2.1152    5.3119   -2.1337 Cl  0  0  0  0  0  0  0  0  0  0  0  0
    0.8085    4.7937    0.2666 C   0  0  0  0  0  0  0  0  0  0  0  0
    0.8752    6.4901    0.8465 S   0  0  0  0  0  0  0  0  0  0  0  0
    2.3300    6.2406    1.9243 C   0  0  0  0  0  0  0  0  0  0  0  0
    3.6199    6.1956    1.1150 C   0  0  0  0  0  0  0  0  0  0  0  0
    0.0802    3.5289    1.0987 S   0  0  0  0  0  0  0  0  0  0  0  0
   -0.6720    0.2616   -0.9851 C   0  0  0  0  0  0  0  0  0  0  0  0
   -1.1762    0.8398   -2.1638 C   0  0  0  0  0  0  0  0  0  0  0  0
   -1.8694   -0.0605   -2.9664 C   0  0  0  0  0  0  0  0  0  0  0  0
   -1.8747   -1.5689   -2.2156 S   0  0  0  0  0  0  0  0  0  0  0  0
   -0.9846   -1.0973   -0.8672 C   0  0  0  0  0  0  0  0  0  0  0  0
   -0.7545   -4.2680   -0.6025 C   0  0  0  0  0  0  0  0  0  0  0  0
   -1.2583   -5.5254   -0.2511 C   0  0  0  0  0  0  0  0  0  0  0  0
   -1.0834   -6.9383   -1.2758 Cl  0  0  0  0  0  0  0  0  0  0  0  0
   -1.7705   -6.8831    4.5259 H   0  0  0  0  0  0  0  0  0  0  0  0
   -0.6582   -5.7589    3.6428 H   0  0  0  0  0  0  0  0  0  0  0  0
   -0.0178   -7.2816    4.3584 H   0  0  0  0  0  0  0  0  0  0  0  0
   -1.3235   -8.6455    2.7848 H   0  0  0  0  0  0  0  0  0  0  0  0
   -0.3047   -7.4864    1.8660 H   0  0  0  0  0  0  0  0  0  0  0  0
    0.4858   -2.8273    2.7163 H   0  0  0  0  0  0  0  0  0  0  0  0
    1.7630   -1.1225    4.1978 H   0  0  0  0  0  0  0  0  0  0  0  0
    1.4229    2.4002   -1.9959 H   0  0  0  0  0  0  0  0  0  0  0  0
    2.3826    7.0941    2.6324 H   0  0  0  0  0  0  0  0  0  0  0  0
    2.2204    5.3087    2.5194 H   0  0  0  0  0  0  0  0  0  0  0  0
    3.6493    5.2847    0.4828 H   0  0  0  0  0  0  0  0  0  0  0  0
    4.4895    6.1696    1.8048 H   0  0  0  0  0  0  0  0  0  0  0  0
    3.7016    7.0966    0.4709 H   0  0  0  0  0  0  0  0  0  0  0  0
   -1.0675    1.8827   -2.4273 H   0  0  0  0  0  0  0  0  0  0  0  0
   -2.3420    0.1758   -3.9100 H   0  0  0  0  0  0  0  0  0  0  0  0
   -0.2197   -4.0790   -1.5242 H   0  0  0  0  0  0  0  0  0  0  0  0
  1  2  1  0
  2  3  1  0
  3  4  1  0
  4  5  1  0
  5  6  1  0
  6  7  1  0
  7  8  2  0
  8  9  1  0
  9 10  2  0
 10 11  1  0
 11 12  1  0
 12 13  2  0
 13 14  1  0
 14 15  2  0
 15 16  1  0
 16 17  1  0
 16 18  2  0
 18 19  1  0
 19 20  1  0
 20 21  1  0
 18 22  1  0
 13 23  1  0
 23 24  1  0
 24 25  2  0
 25 26  1  0
 26 27  1  0
  6 28  2  0
 28 29  1  0
 29 30  1  0
 29  4  2  0
 27  7  1  0
 12  8  1  0
 22 14  1  0
 27 23  2  0
  1 31  1  0
  1 32  1  0
  1 33  1  0
  2 34  1  0
  2 35  1  0
  9 36  1  0
 10 37  1  0
 15 38  1  0
 20 39  1  0
 20 40  1  0
 21 41  1  0
 21 42  1  0
 21 43  1  0
 24 44  1  0
 25 45  1  0
 28 46  1  0
M  END

