
     RDKit          3D

 59 65  0  0  0  0  0  0  0  0999 V2000
   -2.7489   -5.0323    2.1926 C   0  0  0  0  0  0  0  0  0  0  0  0
   -1.5057   -4.8759    1.3329 C   0  0  0  0  0  0  0  0  0  0  0  0
   -1.1688   -3.4944    1.2264 O   0  0  0  0  0  0  0  0  0  0  0  0
   -0.1209   -2.9734    0.4459 C   0  0  0  0  0  0  0  0  0  0  0  0
    0.8121   -3.8426   -0.1404 C   0  0  0  0  0  0  0  0  0  0  0  0
    1.9656   -3.3598   -0.7613 C   0  0  0  0  0  0  0  0  0  0  0  0
    2.2296   -1.9769   -0.7572 C   0  0  0  0  0  0  0  0  0  0  0  0
    3.4334   -1.4864   -1.3073 C   0  0  0  0  0  0  0  0  0  0  0  0
    3.6918   -0.1152   -1.2813 C   0  0  0  0  0  0  0  0  0  0  0  0
    2.7892    0.7692   -0.7052 C   0  0  0  0  0  0  0  0  0  0  0  0
    1.5823    0.3155   -0.1267 C   0  0  0  0  0  0  0  0  0  0  0  0
    0.6644    1.2069    0.4970 C   0  0  0  0  0  0  0  0  0  0  0  0
    0.9890    2.5571    0.7650 C   0  0  0  0  0  0  0  0  0  0  0  0
    0.0527    3.4323    1.3018 C   0  0  0  0  0  0  0  0  0  0  0  0
   -1.2475    3.0063    1.5828 C   0  0  0  0  0  0  0  0  0  0  0  0
   -1.6011    1.6598    1.3547 C   0  0  0  0  0  0  0  0  0  0  0  0
   -2.9192    1.2229    1.6024 C   0  0  0  0  0  0  0  0  0  0  0  0
   -3.2701   -0.0967    1.3077 C   0  0  0  0  0  0  0  0  0  0  0  0
   -2.3211   -0.9966    0.8379 C   0  0  0  0  0  0  0  0  0  0  0  0
   -0.9652   -0.6275    0.6868 C   0  0  0  0  0  0  0  0  0  0  0  0
    0.0438   -1.5644    0.3104 C   0  0  0  0  0  0  0  0  0  0  0  0
    1.2816   -1.0734   -0.1923 C   0  0  0  0  0  0  0  0  0  0  0  0
   -0.6285    0.7427    0.8519 C   0  0  0  0  0  0  0  0  0  0  0  0
   -3.9387    2.1622    2.1291 C   0  0  0  0  0  0  0  0  0  0  0  0
   -5.1211    1.7655    2.3253 O   0  0  0  0  0  0  0  0  0  0  0  0
   -3.5799    3.5263    2.4143 N   0  0  0  0  0  0  0  0  0  0  0  0
   -4.5882    4.4774    2.9064 C   0  0  0  0  0  0  0  0  0  0  0  0
   -5.3006    5.1488    1.7372 C   0  0  0  0  0  0  0  0  0  0  0  0
   -2.2432    3.9662    2.1180 C   0  0  0  0  0  0  0  0  0  0  0  0
   -1.9193    5.1718    2.3070 O   0  0  0  0  0  0  0  0  0  0  0  0
    4.4182   -2.4124   -1.9154 C   0  0  0  0  0  0  0  0  0  0  0  0
    5.5076   -1.9660   -2.3716 O   0  0  0  0  0  0  0  0  0  0  0  0
    4.1339   -3.8182   -1.9829 N   0  0  0  0  0  0  0  0  0  0  0  0
    5.1055   -4.7520   -2.5725 C   0  0  0  0  0  0  0  0  0  0  0  0
    6.0818   -5.2454   -1.5110 C   0  0  0  0  0  0  0  0  0  0  0  0
    2.9313   -4.3107   -1.3664 C   0  0  0  0  0  0  0  0  0  0  0  0
    2.7018   -5.5522   -1.3349 O   0  0  0  0  0  0  0  0  0  0  0  0
   -3.5523   -4.3531    1.8294 H   0  0  0  0  0  0  0  0  0  0  0  0
   -2.5136   -4.7834    3.2504 H   0  0  0  0  0  0  0  0  0  0  0  0
   -3.1060   -6.0821    2.1459 H   0  0  0  0  0  0  0  0  0  0  0  0
   -0.6705   -5.4391    1.8029 H   0  0  0  0  0  0  0  0  0  0  0  0
   -1.7108   -5.2905    0.3228 H   0  0  0  0  0  0  0  0  0  0  0  0
    0.6608   -4.9131   -0.0839 H   0  0  0  0  0  0  0  0  0  0  0  0
    4.6003    0.2839   -1.7148 H   0  0  0  0  0  0  0  0  0  0  0  0
    3.0509    1.8129   -0.7644 H   0  0  0  0  0  0  0  0  0  0  0  0
    1.9732    2.9642    0.5980 H   0  0  0  0  0  0  0  0  0  0  0  0
    0.3502    4.4576    1.4880 H   0  0  0  0  0  0  0  0  0  0  0  0
   -4.2916   -0.4370    1.4277 H   0  0  0  0  0  0  0  0  0  0  0  0
   -2.6936   -1.9610    0.5328 H   0  0  0  0  0  0  0  0  0  0  0  0
   -4.1126    5.2522    3.5460 H   0  0  0  0  0  0  0  0  0  0  0  0
   -5.3358    3.9564    3.5430 H   0  0  0  0  0  0  0  0  0  0  0  0
   -5.8160    4.3869    1.1143 H   0  0  0  0  0  0  0  0  0  0  0  0
   -6.0556    5.8656    2.1228 H   0  0  0  0  0  0  0  0  0  0  0  0
   -4.5707    5.7002    1.1064 H   0  0  0  0  0  0  0  0  0  0  0  0
    5.6693   -4.2612   -3.3944 H   0  0  0  0  0  0  0  0  0  0  0  0
    4.5823   -5.6210   -3.0251 H   0  0  0  0  0  0  0  0  0  0  0  0
    6.6340   -4.3892   -1.0688 H   0  0  0  0  0  0  0  0  0  0  0  0
    6.8133   -5.9435   -1.9702 H   0  0  0  0  0  0  0  0  0  0  0  0
    5.5355   -5.7790   -0.7062 H   0  0  0  0  0  0  0  0  0  0  0  0
  1  2  1  0
  2  3  1  0
  3  4  1  0
  4  5  2  0
  5  6  1  0
  6  7  2  0
  7  8  1  0
  8  9  2  0
  9 10  1  0
 10 11  2  0
 11 12  1  0
 12 13  1  0
 13 14  2  0
 14 15  1  0
 15 16  2  0
 16 17  1  0
 17 18  2  0
 18 19  1  0
 19 20  2  0
 20 21  1  0
 21 22  2  0
 20 23  1  0
 17 24  1  0
 24 25  2  0
 24 26  1  0
 26 27  1  0
 27 28  1  0
 26 29  1  0
 29 30  2  0
  8 31  1  0
 31 32  2  0
 31 33  1  0
 33 34  1  0
 34 35  1  0
 33 36  1  0
 36 37  2  0
 21  4  1  0
 36  6  1  0
 22  7  1  0
 22 11  1  0
 23 12  2  0
 29 15  1  0
 23 16  1  0
  1 38  1  0
  1 39  1  0
  1 40  1  0
  2 41  1  0
  2 42  1  0
  5 43  1  0
  9 44  1  0
 10 45  1  0
 13 46  1  0
 14 47  1  0
 18 48  1  0
 19 49  1  0
 27 50  1  0
 27 51  1  0
 28 52  1  0
 28 53  1  0
 28 54  1  0
 34 55  1  0
 34 56  1  0
 35 57  1  0
 35 58  1  0
 35 59  1  0
M  END

