
     RDKit          3D

 57 64  0  0  0  0  0  0  0  0999 V2000
    7.5766   -0.2024    1.6830 C   0  0  0  0  0  0  0  0  0  0  0  0
    7.3383    0.1175    0.2114 C   0  0  0  0  0  0  0  0  0  0  0  0
    6.1703   -0.6598   -0.3189 C   0  0  0  0  0  0  0  0  0  0  0  0
    6.2706   -1.9442   -0.8713 C   0  0  0  0  0  0  0  0  0  0  0  0
    4.7124   -2.5437   -1.2108 S   0  0  0  0  0  0  0  0  0  0  0  0
    3.9211   -1.1631   -0.6826 C   0  0  0  0  0  0  0  0  0  0  0  0
    4.8389   -0.2549   -0.2190 C   0  0  0  0  0  0  0  0  0  0  0  0
    4.0825    1.0686    0.5406 S   0  0  0  0  0  0  0  0  0  0  0  0
    2.5512    0.4371    0.1681 C   0  0  0  0  0  0  0  0  0  0  0  0
    1.2875    0.5662    0.6660 C   0  0  0  0  0  0  0  0  0  0  0  0
    0.7837    1.4283    1.6453 C   0  0  0  0  0  0  0  0  0  0  0  0
    1.4612    2.4893    2.1495 N   0  0  0  0  0  0  0  0  0  0  0  0
    0.3339    3.0551    3.2233 S   0  0  0  0  0  0  0  0  0  0  0  0
   -0.9734    2.0441    3.1129 N   0  0  0  0  0  0  0  0  0  0  0  0
   -0.5160    1.1809    2.1722 C   0  0  0  0  0  0  0  0  0  0  0  0
   -1.2448    0.0916    1.6824 C   0  0  0  0  0  0  0  0  0  0  0  0
   -2.5633   -0.2242    1.8314 C   0  0  0  0  0  0  0  0  0  0  0  0
   -3.9306    0.5455    2.4793 S   0  0  0  0  0  0  0  0  0  0  0  0
   -4.9558   -0.3959    1.4997 C   0  0  0  0  0  0  0  0  0  0  0  0
   -6.3311   -0.3688    1.2652 C   0  0  0  0  0  0  0  0  0  0  0  0
   -7.2973    0.5331    1.9742 C   0  0  0  0  0  0  0  0  0  0  0  0
   -7.3784    1.8888    1.2813 C   0  0  0  0  0  0  0  0  0  0  0  0
   -6.6808   -1.2023    0.1940 C   0  0  0  0  0  0  0  0  0  0  0  0
   -5.2800   -1.9373   -0.4370 S   0  0  0  0  0  0  0  0  0  0  0  0
   -4.2413   -1.2229    0.6696 C   0  0  0  0  0  0  0  0  0  0  0  0
   -2.8664   -1.1402    0.8741 C   0  0  0  0  0  0  0  0  0  0  0  0
   -1.7899   -1.4816    0.1165 N   0  0  0  0  0  0  0  0  0  0  0  0
   -1.8797   -2.0125   -1.2482 C   0  0  0  0  0  0  0  0  0  0  0  0
   -2.2001   -3.5101   -1.2568 C   0  0  0  0  0  0  0  0  0  0  0  0
   -0.7611   -0.7469    0.6626 C   0  0  0  0  0  0  0  0  0  0  0  0
    0.5769   -0.5570    0.2076 C   0  0  0  0  0  0  0  0  0  0  0  0
    1.4193   -1.4173   -0.4589 N   0  0  0  0  0  0  0  0  0  0  0  0
    1.2848   -2.8719   -0.5872 C   0  0  0  0  0  0  0  0  0  0  0  0
    1.3415   -3.3195   -2.0512 C   0  0  0  0  0  0  0  0  0  0  0  0
    2.6068   -0.7569   -0.4769 C   0  0  0  0  0  0  0  0  0  0  0  0
    7.7909   -1.2848    1.8122 H   0  0  0  0  0  0  0  0  0  0  0  0
    8.4467    0.3791    2.0536 H   0  0  0  0  0  0  0  0  0  0  0  0
    6.6843    0.0692    2.2866 H   0  0  0  0  0  0  0  0  0  0  0  0
    7.1487    1.2063    0.0959 H   0  0  0  0  0  0  0  0  0  0  0  0
    8.2506   -0.1331   -0.3717 H   0  0  0  0  0  0  0  0  0  0  0  0
    7.1929   -2.4895   -1.0214 H   0  0  0  0  0  0  0  0  0  0  0  0
   -8.3055    0.0655    1.9866 H   0  0  0  0  0  0  0  0  0  0  0  0
   -6.9749    0.6752    3.0281 H   0  0  0  0  0  0  0  0  0  0  0  0
   -8.1001    2.5386    1.8194 H   0  0  0  0  0  0  0  0  0  0  0  0
   -6.3838    2.3837    1.2837 H   0  0  0  0  0  0  0  0  0  0  0  0
   -7.7239    1.7653    0.2326 H   0  0  0  0  0  0  0  0  0  0  0  0
   -7.6804   -1.3263   -0.2010 H   0  0  0  0  0  0  0  0  0  0  0  0
   -0.9453   -1.8158   -1.7956 H   0  0  0  0  0  0  0  0  0  0  0  0
   -2.6679   -1.4672   -1.8103 H   0  0  0  0  0  0  0  0  0  0  0  0
   -1.5955   -4.0681   -0.5163 H   0  0  0  0  0  0  0  0  0  0  0  0
   -3.2640   -3.6899   -1.0138 H   0  0  0  0  0  0  0  0  0  0  0  0
   -2.0028   -3.9248   -2.2679 H   0  0  0  0  0  0  0  0  0  0  0  0
    2.0942   -3.3761   -0.0165 H   0  0  0  0  0  0  0  0  0  0  0  0
    0.3496   -3.2059   -0.1125 H   0  0  0  0  0  0  0  0  0  0  0  0
    2.3877   -3.4857   -2.3711 H   0  0  0  0  0  0  0  0  0  0  0  0
    0.7935   -4.2782   -2.1698 H   0  0  0  0  0  0  0  0  0  0  0  0
    0.8994   -2.5638   -2.7313 H   0  0  0  0  0  0  0  0  0  0  0  0
  1  2  1  0
  2  3  1  0
  3  4  2  0
  4  5  1  0
  5  6  1  0
  6  7  2  0
  7  8  1  0
  8  9  1  0
  9 10  1  0
 10 11  1  0
 11 12  2  0
 12 13  1  0
 13 14  1  0
 14 15  2  0
 15 16  1  0
 16 17  1  0
 17 18  1  0
 18 19  1  0
 19 20  1  0
 20 21  1  0
 21 22  1  0
 20 23  2  0
 23 24  1  0
 24 25  1  0
 25 26  1  0
 26 27  1  0
 27 28  1  0
 28 29  1  0
 27 30  1  0
 30 31  1  0
 31 32  1  0
 32 33  1  0
 33 34  1  0
 32 35  1  0
  7  3  1  0
 35  9  2  0
 35  6  1  0
 31 10  2  0
 15 11  1  0
 30 16  2  0
 26 17  2  0
 25 19  2  0
  1 36  1  0
  1 37  1  0
  1 38  1  0
  2 39  1  0
  2 40  1  0
  4 41  1  0
 21 42  1  0
 21 43  1  0
 22 44  1  0
 22 45  1  0
 22 46  1  0
 23 47  1  0
 28 48  1  0
 28 49  1  0
 29 50  1  0
 29 51  1  0
 29 52  1  0
 33 53  1  0
 33 54  1  0
 34 55  1  0
 34 56  1  0
 34 57  1  0
M  END

