
     RDKit          3D

 95104  0  0  0  0  0  0  0  0999 V2000
   -3.5800   -7.0906    1.8471 C   0  0  0  0  0  0  0  0  0  0  0  0
   -4.3229   -6.8668    0.5346 C   0  0  0  0  0  0  0  0  0  0  0  0
   -3.8606   -5.5976   -0.1298 C   0  0  0  0  0  0  0  0  0  0  0  0
   -4.4496   -4.3705    0.2020 C   0  0  0  0  0  0  0  0  0  0  0  0
   -4.0040   -3.1887   -0.3947 C   0  0  0  0  0  0  0  0  0  0  0  0
   -2.9680   -3.2062   -1.3511 C   0  0  0  0  0  0  0  0  0  0  0  0
   -2.4644   -1.8896   -1.9559 C   0  0  0  0  0  0  0  0  0  0  0  0
   -3.5910   -0.9011   -2.2838 C   0  0  0  0  0  0  0  0  0  0  0  0
   -3.4586    0.4876   -2.0621 C   0  0  0  0  0  0  0  0  0  0  0  0
   -4.4880    1.3673   -2.4074 C   0  0  0  0  0  0  0  0  0  0  0  0
   -5.6568    0.8896   -3.0145 C   0  0  0  0  0  0  0  0  0  0  0  0
   -6.7807    1.8334   -3.3508 C   0  0  0  0  0  0  0  0  0  0  0  0
   -7.7623    1.9394   -2.1888 C   0  0  0  0  0  0  0  0  0  0  0  0
   -5.7867   -0.4826   -3.2663 C   0  0  0  0  0  0  0  0  0  0  0  0
   -4.7601   -1.3646   -2.9210 C   0  0  0  0  0  0  0  0  0  0  0  0
   -1.3863   -1.3104   -1.0389 C   0  0  0  0  0  0  0  0  0  0  0  0
   -1.5252   -0.8827    0.2913 C   0  0  0  0  0  0  0  0  0  0  0  0
   -0.3938   -0.3264    0.8952 C   0  0  0  0  0  0  0  0  0  0  0  0
    0.8316   -0.1847    0.2296 C   0  0  0  0  0  0  0  0  0  0  0  0
    0.9710   -0.6217   -1.0979 C   0  0  0  0  0  0  0  0  0  0  0  0
   -0.1591   -1.1843   -1.6982 C   0  0  0  0  0  0  0  0  0  0  0  0
   -0.3528   -1.6737   -3.0325 C   0  0  0  0  0  0  0  0  0  0  0  0
    0.5498   -1.8652   -4.4277 S   0  0  0  0  0  0  0  0  0  0  0  0
   -0.7664   -2.5074   -5.3010 C   0  0  0  0  0  0  0  0  0  0  0  0
   -1.9034   -2.5599   -4.4860 C   0  0  0  0  0  0  0  0  0  0  0  0
   -1.6318   -2.0801   -3.2052 C   0  0  0  0  0  0  0  0  0  0  0  0
    1.8697    0.5385    1.0913 C   0  0  0  0  0  0  0  0  0  0  0  0
    2.2679    1.9124    0.5358 C   0  0  0  0  0  0  0  0  0  0  0  0
    3.4413    2.5470    0.9938 C   0  0  0  0  0  0  0  0  0  0  0  0
    3.7892    3.8231    0.5453 C   0  0  0  0  0  0  0  0  0  0  0  0
    2.9552    4.5129   -0.3445 C   0  0  0  0  0  0  0  0  0  0  0  0
    3.3470    5.8735   -0.8554 C   0  0  0  0  0  0  0  0  0  0  0  0
    4.1296    5.7535   -2.1586 C   0  0  0  0  0  0  0  0  0  0  0  0
    1.7729    3.9051   -0.7870 C   0  0  0  0  0  0  0  0  0  0  0  0
    1.4230    2.6287   -0.3401 C   0  0  0  0  0  0  0  0  0  0  0  0
    3.0625   -0.4000    1.3172 C   0  0  0  0  0  0  0  0  0  0  0  0
    3.1565   -1.2342    2.4526 C   0  0  0  0  0  0  0  0  0  0  0  0
    4.2391   -2.1029    2.6137 C   0  0  0  0  0  0  0  0  0  0  0  0
    5.2355   -2.1855    1.6318 C   0  0  0  0  0  0  0  0  0  0  0  0
    6.4215   -3.0920    1.8251 C   0  0  0  0  0  0  0  0  0  0  0  0
    7.5553   -2.3534    2.5289 C   0  0  0  0  0  0  0  0  0  0  0  0
    5.1416   -1.3786    0.4905 C   0  0  0  0  0  0  0  0  0  0  0  0
    4.0616   -0.5083    0.3282 C   0  0  0  0  0  0  0  0  0  0  0  0
    1.0254    0.7548    2.3263 C   0  0  0  0  0  0  0  0  0  0  0  0
   -0.2395    0.2622    2.1944 C   0  0  0  0  0  0  0  0  0  0  0  0
   -1.2194    0.5657    3.5491 S   0  0  0  0  0  0  0  0  0  0  0  0
    0.0675    1.3555    4.3303 C   0  0  0  0  0  0  0  0  0  0  0  0
    0.1984    1.9802    5.5647 C   0  0  0  0  0  0  0  0  0  0  0  0
    1.4895    2.4995    5.7279 C   0  0  0  0  0  0  0  0  0  0  0  0
    2.4312    2.1762    4.3413 S   0  0  0  0  0  0  0  0  0  0  0  0
    1.1897    1.3786    3.5515 C   0  0  0  0  0  0  0  0  0  0  0  0
   -2.3451   -4.4410   -1.6351 C   0  0  0  0  0  0  0  0  0  0  0  0
   -2.7929   -5.6218   -1.0367 C   0  0  0  0  0  0  0  0  0  0  0  0
   -3.7647   -6.2452    2.5439 H   0  0  0  0  0  0  0  0  0  0  0  0
   -3.9392   -8.0282    2.3216 H   0  0  0  0  0  0  0  0  0  0  0  0
   -2.4887   -7.1806    1.6611 H   0  0  0  0  0  0  0  0  0  0  0  0
   -4.1514   -7.7364   -0.1367 H   0  0  0  0  0  0  0  0  0  0  0  0
   -5.4148   -6.8158    0.7354 H   0  0  0  0  0  0  0  0  0  0  0  0
   -5.2524   -4.3277    0.9280 H   0  0  0  0  0  0  0  0  0  0  0  0
   -4.4709   -2.2558   -0.1061 H   0  0  0  0  0  0  0  0  0  0  0  0
   -2.5618    0.9056   -1.6258 H   0  0  0  0  0  0  0  0  0  0  0  0
   -4.3697    2.4248   -2.2074 H   0  0  0  0  0  0  0  0  0  0  0  0
   -7.3199    1.4782   -4.2557 H   0  0  0  0  0  0  0  0  0  0  0  0
   -6.3777    2.8433   -3.5817 H   0  0  0  0  0  0  0  0  0  0  0  0
   -8.5810    2.6401   -2.4566 H   0  0  0  0  0  0  0  0  0  0  0  0
   -7.2466    2.3239   -1.2824 H   0  0  0  0  0  0  0  0  0  0  0  0
   -8.2044    0.9442   -1.9658 H   0  0  0  0  0  0  0  0  0  0  0  0
   -6.6836   -0.8704   -3.7333 H   0  0  0  0  0  0  0  0  0  0  0  0
   -4.8817   -2.4164   -3.1475 H   0  0  0  0  0  0  0  0  0  0  0  0
   -2.4696   -0.9475    0.8145 H   0  0  0  0  0  0  0  0  0  0  0  0
    1.8964   -0.5025   -1.6438 H   0  0  0  0  0  0  0  0  0  0  0  0
   -0.7313   -2.8260   -6.3336 H   0  0  0  0  0  0  0  0  0  0  0  0
   -2.8679   -2.9273   -4.8089 H   0  0  0  0  0  0  0  0  0  0  0  0
    4.0931    2.0541    1.7035 H   0  0  0  0  0  0  0  0  0  0  0  0
    4.7080    4.2757    0.8976 H   0  0  0  0  0  0  0  0  0  0  0  0
    2.4394    6.4925   -1.0274 H   0  0  0  0  0  0  0  0  0  0  0  0
    3.9693    6.4039   -0.1017 H   0  0  0  0  0  0  0  0  0  0  0  0
    3.5088    5.2602   -2.9368 H   0  0  0  0  0  0  0  0  0  0  0  0
    5.0556    5.1601   -1.9992 H   0  0  0  0  0  0  0  0  0  0  0  0
    4.4116    6.7656   -2.5180 H   0  0  0  0  0  0  0  0  0  0  0  0
    1.1161    4.4242   -1.4741 H   0  0  0  0  0  0  0  0  0  0  0  0
    0.4849    2.2118   -0.6796 H   0  0  0  0  0  0  0  0  0  0  0  0
    2.3979   -1.2241    3.2225 H   0  0  0  0  0  0  0  0  0  0  0  0
    4.2983   -2.7152    3.5056 H   0  0  0  0  0  0  0  0  0  0  0  0
    6.7825   -3.4650    0.8417 H   0  0  0  0  0  0  0  0  0  0  0  0
    6.1318   -3.9800    2.4288 H   0  0  0  0  0  0  0  0  0  0  0  0
    7.8862   -1.4842    1.9204 H   0  0  0  0  0  0  0  0  0  0  0  0
    8.4169   -3.0401    2.6666 H   0  0  0  0  0  0  0  0  0  0  0  0
    7.2216   -1.9966    3.5269 H   0  0  0  0  0  0  0  0  0  0  0  0
    5.9062   -1.4235   -0.2753 H   0  0  0  0  0  0  0  0  0  0  0  0
    4.0138    0.0939   -0.5695 H   0  0  0  0  0  0  0  0  0  0  0  0
   -0.5907    2.0566    6.3000 H   0  0  0  0  0  0  0  0  0  0  0  0
    1.8367    3.0279    6.6048 H   0  0  0  0  0  0  0  0  0  0  0  0
   -1.5055   -4.5021   -2.3138 H   0  0  0  0  0  0  0  0  0  0  0  0
   -2.3003   -6.5562   -1.2756 H   0  0  0  0  0  0  0  0  0  0  0  0
  1  2  1  0
  2  3  1  0
  3  4  2  0
  4  5  1  0
  5  6  2  0
  6  7  1  0
  7  8  1  0
  8  9  2  0
  9 10  1  0
 10 11  2  0
 11 12  1  0
 12 13  1  0
 11 14  1  0
 14 15  2  0
  7 16  1  0
 16 17  2  0
 17 18  1  0
 18 19  2  0
 19 20  1  0
 20 21  2  0
 21 22  1  0
 22 23  1  0
 23 24  1  0
 24 25  2  0
 25 26  1  0
 19 27  1  0
 27 28  1  0
 28 29  2  0
 29 30  1  0
 30 31  2  0
 31 32  1  0
 32 33  1  0
 31 34  1  0
 34 35  2  0
 27 36  1  0
 36 37  2  0
 37 38  1  0
 38 39  2  0
 39 40  1  0
 40 41  1  0
 39 42  1  0
 42 43  2  0
 27 44  1  0
 44 45  2  0
 45 46  1  0
 46 47  1  0
 47 48  1  0
 48 49  2  0
 49 50  1  0
 50 51  1  0
  6 52  1  0
 52 53  2  0
 53  3  1  0
 26  7  1  0
 35 28  1  0
 43 36  1  0
 51 44  1  0
 15  8  1  0
 21 16  1  0
 26 22  2  0
 51 47  2  0
 45 18  1  0
  1 54  1  0
  1 55  1  0
  1 56  1  0
  2 57  1  0
  2 58  1  0
  4 59  1  0
  5 60  1  0
  9 61  1  0
 10 62  1  0
 12 63  1  0
 12 64  1  0
 13 65  1  0
 13 66  1  0
 13 67  1  0
 14 68  1  0
 15 69  1  0
 17 70  1  0
 20 71  1  0
 24 72  1  0
 25 73  1  0
 29 74  1  0
 30 75  1  0
 32 76  1  0
 32 77  1  0
 33 78  1  0
 33 79  1  0
 33 80  1  0
 34 81  1  0
 35 82  1  0
 37 83  1  0
 38 84  1  0
 40 85  1  0
 40 86  1  0
 41 87  1  0
 41 88  1  0
 41 89  1  0
 42 90  1  0
 43 91  1  0
 48 92  1  0
 49 93  1  0
 52 94  1  0
 53 95  1  0
M  END

