
     RDKit          3D

 21 21  0  0  0  0  0  0  0  0999 V2000
   -1.3470    1.0602   -0.3673 C   0  0  0  0  0  0  0  0  0  0  0  0
   -0.6550    0.1864    0.6827 C   0  0  0  0  0  0  0  0  0  0  0  0
   -1.6544   -0.7210    1.4057 C   0  0  0  0  0  0  0  0  0  0  0  0
    0.1087    1.0340    1.6666 C   0  0  0  0  0  0  0  0  0  0  0  0
    1.4031    0.7568    1.6125 C   0  0  0  0  0  0  0  0  0  0  0  0
    2.3973    1.4006    2.4317 C   0  0  0  0  0  0  0  0  0  0  0  0
    3.1943    1.9195    3.0912 N   0  0  0  0  0  0  0  0  0  0  0  0
    1.6042   -0.2814    0.6043 C   0  0  0  0  0  0  0  0  0  0  0  0
    2.7465   -0.8681    0.2130 C   0  0  0  0  0  0  0  0  0  0  0  0
    4.0248   -0.5241    0.7802 C   0  0  0  0  0  0  0  0  0  0  0  0
    5.0544   -0.2510    1.2330 N   0  0  0  0  0  0  0  0  0  0  0  0
    2.7178   -1.8809   -0.8094 C   0  0  0  0  0  0  0  0  0  0  0  0
    2.6945   -2.6951   -1.6315 N   0  0  0  0  0  0  0  0  0  0  0  0
    0.3636   -0.5999    0.0693 O   0  0  0  0  0  0  0  0  0  0  0  0
   -0.6018    1.6987   -0.8888 H   0  0  0  0  0  0  0  0  0  0  0  0
   -2.1059    1.7159    0.1115 H   0  0  0  0  0  0  0  0  0  0  0  0
   -1.8505    0.4217   -1.1242 H   0  0  0  0  0  0  0  0  0  0  0  0
   -1.1288   -1.3556    2.1515 H   0  0  0  0  0  0  0  0  0  0  0  0
   -2.1627   -1.3872    0.6765 H   0  0  0  0  0  0  0  0  0  0  0  0
   -2.4214   -0.1130    1.9319 H   0  0  0  0  0  0  0  0  0  0  0  0
   -0.3339    1.7689    2.3282 H   0  0  0  0  0  0  0  0  0  0  0  0
  1  2  1  0
  2  3  1  0
  2  4  1  0
  4  5  2  0
  5  6  1  0
  6  7  3  0
  5  8  1  0
  8  9  2  3
  9 10  1  0
 10 11  3  0
  9 12  1  0
 12 13  3  0
  8 14  1  0
 14  2  1  0
  1 15  1  0
  1 16  1  0
  1 17  1  0
  3 18  1  0
  3 19  1  0
  3 20  1  0
  4 21  1  0
M  END

