
     RDKit          3D

 41 45  0  0  0  0  0  0  0  0999 V2000
    3.6857   -5.1376    0.8154 C   0  0  0  0  0  0  0  0  0  0  0  0
    3.8604   -3.9957   -0.1802 C   0  0  0  0  0  0  0  0  0  0  0  0
    2.7965   -2.9952   -0.0086 N   0  0  0  0  0  0  0  0  0  0  0  0
    1.5295   -3.1620   -0.6618 C   0  0  0  0  0  0  0  0  0  0  0  0
    1.3318   -4.1590   -1.4105 O   0  0  0  0  0  0  0  0  0  0  0  0
    0.4549   -2.1670   -0.4528 C   0  0  0  0  0  0  0  0  0  0  0  0
   -0.7934   -2.3606   -1.0588 C   0  0  0  0  0  0  0  0  0  0  0  0
   -1.8109   -1.4292   -0.9032 C   0  0  0  0  0  0  0  0  0  0  0  0
   -1.6101   -0.2692   -0.1444 C   0  0  0  0  0  0  0  0  0  0  0  0
   -0.3598   -0.0445    0.4805 C   0  0  0  0  0  0  0  0  0  0  0  0
   -0.1443    1.1292    1.2443 C   0  0  0  0  0  0  0  0  0  0  0  0
    1.1274    1.3204    1.8076 C   0  0  0  0  0  0  0  0  0  0  0  0
    1.6979    2.6462    2.6790 S   0  0  0  0  0  0  0  0  0  0  0  0
    3.2594    2.0742    2.8898 C   0  0  0  0  0  0  0  0  0  0  0  0
    3.3601    0.8330    2.2764 C   0  0  0  0  0  0  0  0  0  0  0  0
    2.1578    0.3924    1.6771 C   0  0  0  0  0  0  0  0  0  0  0  0
    1.9422   -0.8184    0.9769 C   0  0  0  0  0  0  0  0  0  0  0  0
    0.6861   -1.0129    0.3357 C   0  0  0  0  0  0  0  0  0  0  0  0
    2.9624   -1.9060    0.9144 C   0  0  0  0  0  0  0  0  0  0  0  0
    3.9410   -1.9174    1.7078 O   0  0  0  0  0  0  0  0  0  0  0  0
   -1.2439    2.1204    1.4125 C   0  0  0  0  0  0  0  0  0  0  0  0
   -1.0896    3.1278    2.1551 O   0  0  0  0  0  0  0  0  0  0  0  0
   -2.4993    1.9246    0.7389 N   0  0  0  0  0  0  0  0  0  0  0  0
   -3.5918    2.8960    0.9005 C   0  0  0  0  0  0  0  0  0  0  0  0
   -4.4406    2.5441    2.1171 C   0  0  0  0  0  0  0  0  0  0  0  0
   -2.7069    0.7158   -0.0090 C   0  0  0  0  0  0  0  0  0  0  0  0
   -3.8260    0.4923   -0.5489 O   0  0  0  0  0  0  0  0  0  0  0  0
    3.7314   -4.7505    1.8551 H   0  0  0  0  0  0  0  0  0  0  0  0
    2.7078   -5.6391    0.6561 H   0  0  0  0  0  0  0  0  0  0  0  0
    4.4969   -5.8825    0.6749 H   0  0  0  0  0  0  0  0  0  0  0  0
    3.8470   -4.4013   -1.2151 H   0  0  0  0  0  0  0  0  0  0  0  0
    4.8587   -3.5284   -0.0360 H   0  0  0  0  0  0  0  0  0  0  0  0
   -0.9870   -3.2389   -1.6622 H   0  0  0  0  0  0  0  0  0  0  0  0
   -2.7604   -1.6169   -1.3893 H   0  0  0  0  0  0  0  0  0  0  0  0
    4.0608    2.5931    3.3979 H   0  0  0  0  0  0  0  0  0  0  0  0
    4.3026    0.3111    2.2531 H   0  0  0  0  0  0  0  0  0  0  0  0
   -3.1849    3.9238    1.0177 H   0  0  0  0  0  0  0  0  0  0  0  0
   -4.2343    2.9141   -0.0063 H   0  0  0  0  0  0  0  0  0  0  0  0
   -5.2605    3.2845    2.2274 H   0  0  0  0  0  0  0  0  0  0  0  0
   -4.8844    1.5335    1.9947 H   0  0  0  0  0  0  0  0  0  0  0  0
   -3.8174    2.5598    3.0362 H   0  0  0  0  0  0  0  0  0  0  0  0
  1  2  1  0
  2  3  1  0
  3  4  1  0
  4  5  2  0
  4  6  1  0
  6  7  1  0
  7  8  2  0
  8  9  1  0
  9 10  2  0
 10 11  1  0
 11 12  2  0
 12 13  1  0
 13 14  1  0
 14 15  2  0
 15 16  1  0
 16 17  2  0
 17 18  1  0
 17 19  1  0
 19 20  2  0
 11 21  1  0
 21 22  2  0
 21 23  1  0
 23 24  1  0
 24 25  1  0
 23 26  1  0
 26 27  2  0
 19  3  1  0
 18  6  2  0
 26  9  1  0
 18 10  1  0
 16 12  1  0
  1 28  1  0
  1 29  1  0
  1 30  1  0
  2 31  1  0
  2 32  1  0
  7 33  1  0
  8 34  1  0
 14 35  1  0
 15 36  1  0
 24 37  1  0
 24 38  1  0
 25 39  1  0
 25 40  1  0
 25 41  1  0
M  END

