
     RDKit          3D

 72 78  0  0  0  0  0  0  0  0999 V2000
    7.5290   -1.5154    1.2421 C   0  0  0  0  0  0  0  0  0  0  0  0
    7.0355   -2.9079    0.8637 C   0  0  0  0  0  0  0  0  0  0  0  0
    5.6478   -2.8420    0.2847 C   0  0  0  0  0  0  0  0  0  0  0  0
    4.5281   -2.9106    1.1228 C   0  0  0  0  0  0  0  0  0  0  0  0
    3.2408   -2.8151    0.5903 C   0  0  0  0  0  0  0  0  0  0  0  0
    3.0369   -2.6375   -0.7958 C   0  0  0  0  0  0  0  0  0  0  0  0
    1.6048   -2.5335   -1.3406 C   0  0  0  0  0  0  0  0  0  0  0  0
    1.5077   -2.3109   -2.8788 C   0  0  0  0  0  0  0  0  0  0  0  0
    0.0756   -2.1889   -3.4175 C   0  0  0  0  0  0  0  0  0  0  0  0
    0.8302   -1.4571   -0.5840 C   0  0  0  0  0  0  0  0  0  0  0  0
    1.0720   -0.0763   -0.5670 C   0  0  0  0  0  0  0  0  0  0  0  0
    0.1969    0.7040    0.1953 C   0  0  0  0  0  0  0  0  0  0  0  0
   -0.8755    0.1639    0.9168 C   0  0  0  0  0  0  0  0  0  0  0  0
   -1.1273   -1.2189    0.8795 C   0  0  0  0  0  0  0  0  0  0  0  0
   -0.2461   -2.0001    0.1264 C   0  0  0  0  0  0  0  0  0  0  0  0
   -0.2292   -3.4168   -0.1136 C   0  0  0  0  0  0  0  0  0  0  0  0
   -1.1065   -4.7667    0.3409 S   0  0  0  0  0  0  0  0  0  0  0  0
   -0.1136   -5.8276   -0.5526 C   0  0  0  0  0  0  0  0  0  0  0  0
    0.9001   -5.1083   -1.1974 C   0  0  0  0  0  0  0  0  0  0  0  0
    0.8033   -3.7457   -0.9256 C   0  0  0  0  0  0  0  0  0  0  0  0
   -1.6978    1.2594    1.6093 C   0  0  0  0  0  0  0  0  0  0  0  0
   -1.5391    1.1577    3.1547 C   0  0  0  0  0  0  0  0  0  0  0  0
   -2.2731   -0.0247    3.7935 C   0  0  0  0  0  0  0  0  0  0  0  0
   -3.1476    1.3474    1.1067 C   0  0  0  0  0  0  0  0  0  0  0  0
   -4.1203    2.0669    1.8341 C   0  0  0  0  0  0  0  0  0  0  0  0
   -5.4266    2.1956    1.3556 C   0  0  0  0  0  0  0  0  0  0  0  0
   -5.7871    1.6450    0.1196 C   0  0  0  0  0  0  0  0  0  0  0  0
   -7.2028    1.7567   -0.3795 C   0  0  0  0  0  0  0  0  0  0  0  0
   -8.0363    0.5708    0.0939 C   0  0  0  0  0  0  0  0  0  0  0  0
   -4.8249    0.9570   -0.6297 C   0  0  0  0  0  0  0  0  0  0  0  0
   -3.5180    0.8267   -0.1540 C   0  0  0  0  0  0  0  0  0  0  0  0
   -0.9336    2.4662    1.1199 C   0  0  0  0  0  0  0  0  0  0  0  0
   -1.0937    3.8411    1.2855 C   0  0  0  0  0  0  0  0  0  0  0  0
   -0.1075    4.5563    0.5955 C   0  0  0  0  0  0  0  0  0  0  0  0
    0.9409    3.4782   -0.2077 S   0  0  0  0  0  0  0  0  0  0  0  0
    0.1265    2.1275    0.3507 C   0  0  0  0  0  0  0  0  0  0  0  0
    4.1758   -2.5598   -1.6281 C   0  0  0  0  0  0  0  0  0  0  0  0
    5.4627   -2.6554   -1.0912 C   0  0  0  0  0  0  0  0  0  0  0  0
    6.8572   -1.0618    2.0020 H   0  0  0  0  0  0  0  0  0  0  0  0
    7.5621   -0.8610    0.3448 H   0  0  0  0  0  0  0  0  0  0  0  0
    8.5522   -1.5863    1.6679 H   0  0  0  0  0  0  0  0  0  0  0  0
    7.0430   -3.5574    1.7663 H   0  0  0  0  0  0  0  0  0  0  0  0
    7.7365   -3.3578    0.1273 H   0  0  0  0  0  0  0  0  0  0  0  0
    4.6518   -3.0367    2.1914 H   0  0  0  0  0  0  0  0  0  0  0  0
    2.3975   -2.8767    1.2663 H   0  0  0  0  0  0  0  0  0  0  0  0
    1.9937   -3.1618   -3.4044 H   0  0  0  0  0  0  0  0  0  0  0  0
    2.0497   -1.3791   -3.1510 H   0  0  0  0  0  0  0  0  0  0  0  0
   -0.4456   -1.3193   -2.9650 H   0  0  0  0  0  0  0  0  0  0  0  0
   -0.5042   -3.1134   -3.2145 H   0  0  0  0  0  0  0  0  0  0  0  0
    0.1090   -2.0371   -4.5168 H   0  0  0  0  0  0  0  0  0  0  0  0
    1.8845    0.3652   -1.1290 H   0  0  0  0  0  0  0  0  0  0  0  0
   -1.9796   -1.6597    1.3776 H   0  0  0  0  0  0  0  0  0  0  0  0
   -0.2449   -6.8994   -0.6128 H   0  0  0  0  0  0  0  0  0  0  0  0
    1.6605   -5.5523   -1.8254 H   0  0  0  0  0  0  0  0  0  0  0  0
   -0.4596    1.0704    3.4121 H   0  0  0  0  0  0  0  0  0  0  0  0
   -1.8858    2.0952    3.6381 H   0  0  0  0  0  0  0  0  0  0  0  0
   -1.7390   -0.9732    3.5849 H   0  0  0  0  0  0  0  0  0  0  0  0
   -3.3196   -0.0992    3.4336 H   0  0  0  0  0  0  0  0  0  0  0  0
   -2.2939    0.1103    4.8955 H   0  0  0  0  0  0  0  0  0  0  0  0
   -3.8811    2.5373    2.7762 H   0  0  0  0  0  0  0  0  0  0  0  0
   -6.1568    2.7334    1.9478 H   0  0  0  0  0  0  0  0  0  0  0  0
   -7.2150    1.7934   -1.4906 H   0  0  0  0  0  0  0  0  0  0  0  0
   -7.6651    2.6991   -0.0135 H   0  0  0  0  0  0  0  0  0  0  0  0
   -7.6080   -0.3795   -0.2909 H   0  0  0  0  0  0  0  0  0  0  0  0
   -8.0637    0.5376    1.2042 H   0  0  0  0  0  0  0  0  0  0  0  0
   -9.0752    0.6716   -0.2849 H   0  0  0  0  0  0  0  0  0  0  0  0
   -5.0844    0.5277   -1.5896 H   0  0  0  0  0  0  0  0  0  0  0  0
   -2.8006    0.3219   -0.7864 H   0  0  0  0  0  0  0  0  0  0  0  0
   -1.8832    4.2977    1.8670 H   0  0  0  0  0  0  0  0  0  0  0  0
   -0.0291    5.6346    0.5707 H   0  0  0  0  0  0  0  0  0  0  0  0
    4.0930   -2.4212   -2.6956 H   0  0  0  0  0  0  0  0  0  0  0  0
    6.3182   -2.5817   -1.7516 H   0  0  0  0  0  0  0  0  0  0  0  0
  1  2  1  0
  2  3  1  0
  3  4  2  0
  4  5  1  0
  5  6  2  0
  6  7  1  0
  7  8  1  0
  8  9  1  0
  7 10  1  0
 10 11  2  0
 11 12  1  0
 12 13  2  0
 13 14  1  0
 14 15  2  0
 15 16  1  0
 16 17  1  0
 17 18  1  0
 18 19  2  0
 19 20  1  0
 13 21  1  0
 21 22  1  0
 22 23  1  0
 21 24  1  0
 24 25  2  0
 25 26  1  0
 26 27  2  0
 27 28  1  0
 28 29  1  0
 27 30  1  0
 30 31  2  0
 21 32  1  0
 32 33  1  0
 33 34  2  0
 34 35  1  0
 35 36  1  0
  6 37  1  0
 37 38  2  0
 38  3  1  0
 20  7  1  0
 31 24  1  0
 36 32  2  0
 15 10  1  0
 20 16  2  0
 36 12  1  0
  1 39  1  0
  1 40  1  0
  1 41  1  0
  2 42  1  0
  2 43  1  0
  4 44  1  0
  5 45  1  0
  8 46  1  0
  8 47  1  0
  9 48  1  0
  9 49  1  0
  9 50  1  0
 11 51  1  0
 14 52  1  0
 18 53  1  0
 19 54  1  0
 22 55  1  0
 22 56  1  0
 23 57  1  0
 23 58  1  0
 23 59  1  0
 25 60  1  0
 26 61  1  0
 28 62  1  0
 28 63  1  0
 29 64  1  0
 29 65  1  0
 29 66  1  0
 30 67  1  0
 31 68  1  0
 33 69  1  0
 34 70  1  0
 37 71  1  0
 38 72  1  0
M  END

