
     RDKit          3D

 64 71  0  0  0  0  0  0  0  0999 V2000
    3.6992    2.1557    6.8876 C   0  0  0  0  0  0  0  0  0  0  0  0
    4.1534    2.5957    5.5008 C   0  0  0  0  0  0  0  0  0  0  0  0
    4.1385    1.4379    4.5474 C   0  0  0  0  0  0  0  0  0  0  0  0
    5.2544    0.6381    4.2652 C   0  0  0  0  0  0  0  0  0  0  0  0
    4.8301   -0.5497    3.1201 S   0  0  0  0  0  0  0  0  0  0  0  0
    3.2242   -0.0765    3.0262 C   0  0  0  0  0  0  0  0  0  0  0  0
    3.0144    1.0057    3.8434 C   0  0  0  0  0  0  0  0  0  0  0  0
    1.4514    1.6525    3.6426 S   0  0  0  0  0  0  0  0  0  0  0  0
    1.0684    0.4334    2.5258 C   0  0  0  0  0  0  0  0  0  0  0  0
    0.1857    0.2882    1.5001 C   0  0  0  0  0  0  0  0  0  0  0  0
   -0.8583    1.1005    1.0633 C   0  0  0  0  0  0  0  0  0  0  0  0
   -1.4582    2.1420    1.6565 N   0  0  0  0  0  0  0  0  0  0  0  0
   -2.3926    2.5252    0.7860 N   0  0  0  0  0  0  0  0  0  0  0  0
   -3.3390    3.6011    1.0515 C   0  0  0  0  0  0  0  0  0  0  0  0
   -4.5650    3.0543    1.7710 C   0  0  0  0  0  0  0  0  0  0  0  0
   -2.4247    1.7800   -0.3193 N   0  0  0  0  0  0  0  0  0  0  0  0
   -1.4376    0.8893   -0.1488 C   0  0  0  0  0  0  0  0  0  0  0  0
   -1.0021   -0.1478   -0.9714 C   0  0  0  0  0  0  0  0  0  0  0  0
   -1.5635   -0.7120   -2.0754 C   0  0  0  0  0  0  0  0  0  0  0  0
   -3.0502   -0.5792   -2.8824 S   0  0  0  0  0  0  0  0  0  0  0  0
   -2.8635   -2.1426   -3.5302 C   0  0  0  0  0  0  0  0  0  0  0  0
   -3.7088   -2.9671   -4.2736 C   0  0  0  0  0  0  0  0  0  0  0  0
   -5.0596   -2.5611   -4.7839 C   0  0  0  0  0  0  0  0  0  0  0  0
   -6.1300   -2.7933   -3.7229 C   0  0  0  0  0  0  0  0  0  0  0  0
   -3.1913   -4.2655   -4.3764 C   0  0  0  0  0  0  0  0  0  0  0  0
   -1.7123   -4.3582   -3.5366 S   0  0  0  0  0  0  0  0  0  0  0  0
   -1.7176   -2.7457   -3.0750 C   0  0  0  0  0  0  0  0  0  0  0  0
   -0.9592   -1.9180   -2.2518 C   0  0  0  0  0  0  0  0  0  0  0  0
    0.0124   -2.1612   -1.3297 N   0  0  0  0  0  0  0  0  0  0  0  0
    0.4763   -3.5013   -0.9565 C   0  0  0  0  0  0  0  0  0  0  0  0
    1.4772   -4.0566   -1.9736 C   0  0  0  0  0  0  0  0  0  0  0  0
    0.0203   -1.0243   -0.5539 C   0  0  0  0  0  0  0  0  0  0  0  0
    0.6916   -0.7444    0.6848 C   0  0  0  0  0  0  0  0  0  0  0  0
    1.9222   -1.1510    1.1476 N   0  0  0  0  0  0  0  0  0  0  0  0
    3.0136   -1.7492    0.3728 C   0  0  0  0  0  0  0  0  0  0  0  0
    3.4826   -3.0726    0.9847 C   0  0  0  0  0  0  0  0  0  0  0  0
    2.1008   -0.4169    2.2796 C   0  0  0  0  0  0  0  0  0  0  0  0
    4.3771    1.3688    7.2831 H   0  0  0  0  0  0  0  0  0  0  0  0
    3.7201    3.0246    7.5785 H   0  0  0  0  0  0  0  0  0  0  0  0
    2.6620    1.7586    6.8460 H   0  0  0  0  0  0  0  0  0  0  0  0
    3.4810    3.3984    5.1288 H   0  0  0  0  0  0  0  0  0  0  0  0
    5.1802    3.0162    5.5666 H   0  0  0  0  0  0  0  0  0  0  0  0
    6.2407    0.7698    4.6890 H   0  0  0  0  0  0  0  0  0  0  0  0
   -2.8551    4.3789    1.6811 H   0  0  0  0  0  0  0  0  0  0  0  0
   -3.6496    4.0720    0.0937 H   0  0  0  0  0  0  0  0  0  0  0  0
   -4.2673    2.6021    2.7411 H   0  0  0  0  0  0  0  0  0  0  0  0
   -5.2837    3.8784    1.9640 H   0  0  0  0  0  0  0  0  0  0  0  0
   -5.0625    2.2827    1.1452 H   0  0  0  0  0  0  0  0  0  0  0  0
   -5.3088   -3.1504   -5.6928 H   0  0  0  0  0  0  0  0  0  0  0  0
   -5.0469   -1.4866   -5.0673 H   0  0  0  0  0  0  0  0  0  0  0  0
   -5.9110   -2.1913   -2.8150 H   0  0  0  0  0  0  0  0  0  0  0  0
   -7.1202   -2.4880   -4.1211 H   0  0  0  0  0  0  0  0  0  0  0  0
   -6.1730   -3.8689   -3.4474 H   0  0  0  0  0  0  0  0  0  0  0  0
   -3.6776   -5.0944   -4.8734 H   0  0  0  0  0  0  0  0  0  0  0  0
   -0.3917   -4.1907   -0.8822 H   0  0  0  0  0  0  0  0  0  0  0  0
    0.9191   -3.4838    0.0505 H   0  0  0  0  0  0  0  0  0  0  0  0
    0.9634   -4.3757   -2.8993 H   0  0  0  0  0  0  0  0  0  0  0  0
    2.2364   -3.3032   -2.2602 H   0  0  0  0  0  0  0  0  0  0  0  0
    1.9929   -4.9403   -1.5413 H   0  0  0  0  0  0  0  0  0  0  0  0
    2.6989   -1.8949   -0.6714 H   0  0  0  0  0  0  0  0  0  0  0  0
    3.8700   -1.0432    0.3233 H   0  0  0  0  0  0  0  0  0  0  0  0
    4.0010   -3.6772    0.2113 H   0  0  0  0  0  0  0  0  0  0  0  0
    4.1943   -2.8931    1.8124 H   0  0  0  0  0  0  0  0  0  0  0  0
    2.6375   -3.6595    1.3952 H   0  0  0  0  0  0  0  0  0  0  0  0
  1  2  1  0
  2  3  1  0
  3  4  2  0
  4  5  1  0
  5  6  1  0
  6  7  2  0
  7  8  1  0
  8  9  1  0
  9 10  1  0
 10 11  1  0
 11 12  2  0
 12 13  1  0
 13 14  1  0
 14 15  1  0
 13 16  1  0
 16 17  2  0
 17 18  1  0
 18 19  1  0
 19 20  1  0
 20 21  1  0
 21 22  1  0
 22 23  1  0
 23 24  1  0
 22 25  2  0
 25 26  1  0
 26 27  1  0
 27 28  1  0
 28 29  1  0
 29 30  1  0
 30 31  1  0
 29 32  1  0
 32 33  1  0
 33 34  1  0
 34 35  1  0
 35 36  1  0
 34 37  1  0
  7  3  1  0
 37  9  2  0
 37  6  1  0
 33 10  2  0
 17 11  1  0
 32 18  2  0
 28 19  2  0
 27 21  2  0
  1 38  1  0
  1 39  1  0
  1 40  1  0
  2 41  1  0
  2 42  1  0
  4 43  1  0
 14 44  1  0
 14 45  1  0
 15 46  1  0
 15 47  1  0
 15 48  1  0
 23 49  1  0
 23 50  1  0
 24 51  1  0
 24 52  1  0
 24 53  1  0
 25 54  1  0
 30 55  1  0
 30 56  1  0
 31 57  1  0
 31 58  1  0
 31 59  1  0
 35 60  1  0
 35 61  1  0
 36 62  1  0
 36 63  1  0
 36 64  1  0
M  END

