
     RDKit          3D

105115  0  0  0  0  0  0  0  0999 V2000
    0.6134   -4.0799    6.8423 C   0  0  0  0  0  0  0  0  0  0  0  0
    1.7319   -3.0839    7.1298 C   0  0  0  0  0  0  0  0  0  0  0  0
    1.9401   -2.1628    5.9581 C   0  0  0  0  0  0  0  0  0  0  0  0
    1.1961   -0.9810    5.8468 C   0  0  0  0  0  0  0  0  0  0  0  0
    1.3636   -0.1421    4.7427 C   0  0  0  0  0  0  0  0  0  0  0  0
    2.2921   -0.4565    3.7289 C   0  0  0  0  0  0  0  0  0  0  0  0
    2.4135    0.4482    2.4967 C   0  0  0  0  0  0  0  0  0  0  0  0
    2.3302    1.9433    2.8275 C   0  0  0  0  0  0  0  0  0  0  0  0
    3.0579    2.4549    3.9212 C   0  0  0  0  0  0  0  0  0  0  0  0
    3.0439    3.8198    4.2161 C   0  0  0  0  0  0  0  0  0  0  0  0
    2.3131    4.7099    3.4180 C   0  0  0  0  0  0  0  0  0  0  0  0
    2.3272    6.1846    3.7158 C   0  0  0  0  0  0  0  0  0  0  0  0
    3.4798    6.8706    2.9903 C   0  0  0  0  0  0  0  0  0  0  0  0
    1.6262    4.2210    2.2988 C   0  0  0  0  0  0  0  0  0  0  0  0
    1.6392    2.8561    2.0005 C   0  0  0  0  0  0  0  0  0  0  0  0
    1.3934   -0.0064    1.4524 C   0  0  0  0  0  0  0  0  0  0  0  0
   -0.0037   -0.0582    1.5759 C   0  0  0  0  0  0  0  0  0  0  0  0
   -0.7203   -0.4897    0.4547 C   0  0  0  0  0  0  0  0  0  0  0  0
   -0.1071   -0.8458   -0.7487 C   0  0  0  0  0  0  0  0  0  0  0  0
    1.2944   -0.8213   -0.8610 C   0  0  0  0  0  0  0  0  0  0  0  0
    2.0110   -0.3948    0.2602 C   0  0  0  0  0  0  0  0  0  0  0  0
    3.4240   -0.2453    0.4567 C   0  0  0  0  0  0  0  0  0  0  0  0
    4.8309   -0.4824   -0.4165 S   0  0  0  0  0  0  0  0  0  0  0  0
    5.8245    0.0360    0.8682 C   0  0  0  0  0  0  0  0  0  0  0  0
    5.0377    0.3921    1.9699 C   0  0  0  0  0  0  0  0  0  0  0  0
    3.6807    0.2170    1.7021 C   0  0  0  0  0  0  0  0  0  0  0  0
   -1.1299   -1.2195   -1.8257 C   0  0  0  0  0  0  0  0  0  0  0  0
   -1.0670   -0.1045   -2.8905 C   0  0  0  0  0  0  0  0  0  0  0  0
   -1.9581    0.9951   -2.8726 C   0  0  0  0  0  0  0  0  0  0  0  0
   -1.8333    2.0378   -3.7935 C   0  0  0  0  0  0  0  0  0  0  0  0
   -0.7890    2.0410   -4.7258 C   0  0  0  0  0  0  0  0  0  0  0  0
   -0.6786    3.1480   -5.7394 C   0  0  0  0  0  0  0  0  0  0  0  0
   -1.4871    2.8166   -6.9890 C   0  0  0  0  0  0  0  0  0  0  0  0
    0.1279    0.9835   -4.7283 C   0  0  0  0  0  0  0  0  0  0  0  0
    0.0053   -0.0607   -3.8090 C   0  0  0  0  0  0  0  0  0  0  0  0
   -0.8833   -2.6515   -2.3270 C   0  0  0  0  0  0  0  0  0  0  0  0
   -0.9423   -2.9992   -3.6949 C   0  0  0  0  0  0  0  0  0  0  0  0
   -0.7265   -4.3149   -4.1115 C   0  0  0  0  0  0  0  0  0  0  0  0
   -0.4522   -5.3200   -3.1759 C   0  0  0  0  0  0  0  0  0  0  0  0
   -0.2649   -6.7441   -3.6253 C   0  0  0  0  0  0  0  0  0  0  0  0
   -1.6041   -7.4708   -3.6906 C   0  0  0  0  0  0  0  0  0  0  0  0
   -0.4289   -4.9984   -1.8131 C   0  0  0  0  0  0  0  0  0  0  0  0
   -0.6434   -3.6833   -1.3937 C   0  0  0  0  0  0  0  0  0  0  0  0
   -2.3992   -1.1640   -0.9751 C   0  0  0  0  0  0  0  0  0  0  0  0
   -2.1289   -0.6873    0.2889 C   0  0  0  0  0  0  0  0  0  0  0  0
   -3.5011   -0.3399    1.2381 S   0  0  0  0  0  0  0  0  0  0  0  0
   -4.4763   -0.8498   -0.0413 C   0  0  0  0  0  0  0  0  0  0  0  0
   -5.7970   -0.9673   -0.3493 C   0  0  0  0  0  0  0  0  0  0  0  0
   -7.3192   -0.7400    0.3002 S   0  0  0  0  0  0  0  0  0  0  0  0
   -8.0912   -1.3136   -1.1192 C   0  0  0  0  0  0  0  0  0  0  0  0
   -7.1418   -1.6819   -2.0868 C   0  0  0  0  0  0  0  0  0  0  0  0
   -5.8553   -1.4617   -1.6063 C   0  0  0  0  0  0  0  0  0  0  0  0
   -4.6253   -1.6776   -2.1434 N   0  0  0  0  0  0  0  0  0  0  0  0
   -4.3428   -2.3564   -3.4054 C   0  0  0  0  0  0  0  0  0  0  0  0
   -4.2243   -1.3610   -4.5511 C   0  0  0  0  0  0  0  0  0  0  0  0
   -3.7847   -1.2716   -1.1466 C   0  0  0  0  0  0  0  0  0  0  0  0
    2.9980   -1.6752    3.8267 C   0  0  0  0  0  0  0  0  0  0  0  0
    2.8281   -2.5127    4.9322 C   0  0  0  0  0  0  0  0  0  0  0  0
    0.4721   -4.7445    7.7206 H   0  0  0  0  0  0  0  0  0  0  0  0
   -0.3394   -3.5439    6.6449 H   0  0  0  0  0  0  0  0  0  0  0  0
    0.8708   -4.7051    5.9607 H   0  0  0  0  0  0  0  0  0  0  0  0
    2.6692   -3.6392    7.3515 H   0  0  0  0  0  0  0  0  0  0  0  0
    1.4750   -2.4949    8.0370 H   0  0  0  0  0  0  0  0  0  0  0  0
    0.4781   -0.7128    6.6119 H   0  0  0  0  0  0  0  0  0  0  0  0
    0.7595    0.7541    4.6779 H   0  0  0  0  0  0  0  0  0  0  0  0
    3.6442    1.7937    4.5473 H   0  0  0  0  0  0  0  0  0  0  0  0
    3.6096    4.1836    5.0646 H   0  0  0  0  0  0  0  0  0  0  0  0
    2.4310    6.3517    4.8099 H   0  0  0  0  0  0  0  0  0  0  0  0
    1.3666    6.6468    3.4004 H   0  0  0  0  0  0  0  0  0  0  0  0
    3.4727    7.9556    3.2245 H   0  0  0  0  0  0  0  0  0  0  0  0
    4.4514    6.4422    3.3176 H   0  0  0  0  0  0  0  0  0  0  0  0
    3.3745    6.7427    1.8919 H   0  0  0  0  0  0  0  0  0  0  0  0
    1.0873    4.8993    1.6490 H   0  0  0  0  0  0  0  0  0  0  0  0
    1.1156    2.5270    1.1131 H   0  0  0  0  0  0  0  0  0  0  0  0
   -0.5050    0.2246    2.4917 H   0  0  0  0  0  0  0  0  0  0  0  0
    1.8027   -1.1193   -1.7665 H   0  0  0  0  0  0  0  0  0  0  0  0
    6.9043    0.0856    0.8384 H   0  0  0  0  0  0  0  0  0  0  0  0
    5.4330    0.7535    2.9092 H   0  0  0  0  0  0  0  0  0  0  0  0
   -2.7609    1.0633   -2.1530 H   0  0  0  0  0  0  0  0  0  0  0  0
   -2.5493    2.8499   -3.7729 H   0  0  0  0  0  0  0  0  0  0  0  0
    0.3852    3.3047   -6.0219 H   0  0  0  0  0  0  0  0  0  0  0  0
   -1.0494    4.1017   -5.3046 H   0  0  0  0  0  0  0  0  0  0  0  0
   -2.5609    2.6920   -6.7315 H   0  0  0  0  0  0  0  0  0  0  0  0
   -1.3910    3.6438   -7.7234 H   0  0  0  0  0  0  0  0  0  0  0  0
   -1.1103    1.8812   -7.4549 H   0  0  0  0  0  0  0  0  0  0  0  0
    0.9454    0.9702   -5.4385 H   0  0  0  0  0  0  0  0  0  0  0  0
    0.7498   -0.8449   -3.8260 H   0  0  0  0  0  0  0  0  0  0  0  0
   -1.2025   -2.2720   -4.4500 H   0  0  0  0  0  0  0  0  0  0  0  0
   -0.7912   -4.5534   -5.1660 H   0  0  0  0  0  0  0  0  0  0  0  0
    0.2144   -6.7679   -4.6280 H   0  0  0  0  0  0  0  0  0  0  0  0
    0.4096   -7.2814   -2.9239 H   0  0  0  0  0  0  0  0  0  0  0  0
   -2.0839   -7.4851   -2.6886 H   0  0  0  0  0  0  0  0  0  0  0  0
   -2.2809   -6.9676   -4.4141 H   0  0  0  0  0  0  0  0  0  0  0  0
   -1.4433   -8.5180   -4.0235 H   0  0  0  0  0  0  0  0  0  0  0  0
   -0.2490   -5.7677   -1.0725 H   0  0  0  0  0  0  0  0  0  0  0  0
   -0.6278   -3.4719   -0.3318 H   0  0  0  0  0  0  0  0  0  0  0  0
   -9.1619   -1.3856   -1.2518 H   0  0  0  0  0  0  0  0  0  0  0  0
   -7.3820   -2.0774   -3.0645 H   0  0  0  0  0  0  0  0  0  0  0  0
   -3.4335   -2.9670   -3.3087 H   0  0  0  0  0  0  0  0  0  0  0  0
   -5.1646   -3.0672   -3.6382 H   0  0  0  0  0  0  0  0  0  0  0  0
   -5.1497   -0.7513   -4.6249 H   0  0  0  0  0  0  0  0  0  0  0  0
   -3.3579   -0.6935   -4.3989 H   0  0  0  0  0  0  0  0  0  0  0  0
   -4.0784   -1.9099   -5.5051 H   0  0  0  0  0  0  0  0  0  0  0  0
    3.6747   -1.9949    3.0458 H   0  0  0  0  0  0  0  0  0  0  0  0
    3.3830   -3.4414    4.9834 H   0  0  0  0  0  0  0  0  0  0  0  0
  1  2  1  0
  2  3  1  0
  3  4  2  0
  4  5  1  0
  5  6  2  0
  6  7  1  0
  7  8  1  0
  8  9  2  0
  9 10  1  0
 10 11  2  0
 11 12  1  0
 12 13  1  0
 11 14  1  0
 14 15  2  0
  7 16  1  0
 16 17  2  0
 17 18  1  0
 18 19  2  0
 19 20  1  0
 20 21  2  0
 21 22  1  0
 22 23  1  0
 23 24  1  0
 24 25  2  0
 25 26  1  0
 19 27  1  0
 27 28  1  0
 28 29  2  0
 29 30  1  0
 30 31  2  0
 31 32  1  0
 32 33  1  0
 31 34  1  0
 34 35  2  0
 27 36  1  0
 36 37  2  0
 37 38  1  0
 38 39  2  0
 39 40  1  0
 40 41  1  0
 39 42  1  0
 42 43  2  0
 27 44  1  0
 44 45  2  0
 45 46  1  0
 46 47  1  0
 47 48  1  0
 48 49  1  0
 49 50  1  0
 50 51  2  0
 51 52  1  0
 52 53  1  0
 53 54  1  0
 54 55  1  0
 53 56  1  0
  6 57  1  0
 57 58  2  0
 58  3  1  0
 26  7  1  0
 35 28  1  0
 43 36  1  0
 56 44  1  0
 15  8  1  0
 21 16  1  0
 26 22  2  0
 56 47  2  0
 45 18  1  0
 52 48  2  0
  1 59  1  0
  1 60  1  0
  1 61  1  0
  2 62  1  0
  2 63  1  0
  4 64  1  0
  5 65  1  0
  9 66  1  0
 10 67  1  0
 12 68  1  0
 12 69  1  0
 13 70  1  0
 13 71  1  0
 13 72  1  0
 14 73  1  0
 15 74  1  0
 17 75  1  0
 20 76  1  0
 24 77  1  0
 25 78  1  0
 29 79  1  0
 30 80  1  0
 32 81  1  0
 32 82  1  0
 33 83  1  0
 33 84  1  0
 33 85  1  0
 34 86  1  0
 35 87  1  0
 37 88  1  0
 38 89  1  0
 40 90  1  0
 40 91  1  0
 41 92  1  0
 41 93  1  0
 41 94  1  0
 42 95  1  0
 43 96  1  0
 50 97  1  0
 51 98  1  0
 54 99  1  0
 54100  1  0
 55101  1  0
 55102  1  0
 55103  1  0
 57104  1  0
 58105  1  0
M  END

