
     RDKit          3D

 18 19  0  0  0  0  0  0  0  0999 V2000
    2.4553   -2.0117    1.5422 C   0  0  0  0  0  0  0  0  0  0  0  0
    1.5627   -2.7895    2.7358 S   0  0  0  0  0  0  0  0  0  0  0  0
    0.1892   -1.8258    2.6277 C   0  0  0  0  0  0  0  0  0  0  0  0
    0.4114   -0.8769    1.6401 C   0  0  0  0  0  0  0  0  0  0  0  0
    1.6863   -0.9667    1.0507 C   0  0  0  0  0  0  0  0  0  0  0  0
    2.1445   -0.1290    0.0317 O   0  0  0  0  0  0  0  0  0  0  0  0
    2.1287    1.2991    0.0971 C   0  0  0  0  0  0  0  0  0  0  0  0
    0.7707    1.9056    0.4963 C   0  0  0  0  0  0  0  0  0  0  0  0
   -0.4169    0.9851    0.2124 C   0  0  0  0  0  0  0  0  0  0  0  0
   -0.5748    0.0419    1.2688 O   0  0  0  0  0  0  0  0  0  0  0  0
    3.4555   -2.2706    1.2221 H   0  0  0  0  0  0  0  0  0  0  0  0
   -0.7173   -1.9404    3.2066 H   0  0  0  0  0  0  0  0  0  0  0  0
    2.4154    1.6866   -0.9036 H   0  0  0  0  0  0  0  0  0  0  0  0
    2.9067    1.6380    0.8146 H   0  0  0  0  0  0  0  0  0  0  0  0
    0.6308    2.8595   -0.0578 H   0  0  0  0  0  0  0  0  0  0  0  0
    0.7811    2.1592    1.5793 H   0  0  0  0  0  0  0  0  0  0  0  0
   -1.3417    1.5974    0.1565 H   0  0  0  0  0  0  0  0  0  0  0  0
   -0.2995    0.4614   -0.7614 H   0  0  0  0  0  0  0  0  0  0  0  0
  1  2  1  0
  2  3  1  0
  3  4  2  0
  4  5  1  0
  5  6  1  0
  6  7  1  0
  7  8  1  0
  8  9  1  0
  9 10  1  0
  5  1  2  0
 10  4  1  0
  1 11  1  0
  3 12  1  0
  7 13  1  0
  7 14  1  0
  8 15  1  0
  8 16  1  0
  9 17  1  0
  9 18  1  0
M  END

