
     RDKit          3D

 16 16  0  0  0  0  0  0  0  0999 V2000
   -0.2987   -1.1083    3.2915 N   0  0  0  0  0  0  0  0  0  0  0  0
    0.6868   -1.2310    2.6970 C   0  0  0  0  0  0  0  0  0  0  0  0
    1.9154   -1.3881    1.9571 C   0  0  0  0  0  0  0  0  0  0  0  0
    2.8324   -2.3926    2.4444 C   0  0  0  0  0  0  0  0  0  0  0  0
    3.5668   -3.1973    2.8349 N   0  0  0  0  0  0  0  0  0  0  0  0
    2.1726   -0.6862    0.8280 C   0  0  0  0  0  0  0  0  0  0  0  0
    3.3586   -0.9687    0.0473 C   0  0  0  0  0  0  0  0  0  0  0  0
    4.3064   -1.1939   -0.5774 N   0  0  0  0  0  0  0  0  0  0  0  0
    1.2694    0.3698    0.3106 C   0  0  0  0  0  0  0  0  0  0  0  0
    0.6077    1.3458    1.0536 C   0  0  0  0  0  0  0  0  0  0  0  0
   -0.1215    2.2458    0.2667 C   0  0  0  0  0  0  0  0  0  0  0  0
   -0.0292    1.9994   -1.0961 C   0  0  0  0  0  0  0  0  0  0  0  0
    0.9652    0.6637   -1.3201 S   0  0  0  0  0  0  0  0  0  0  0  0
    0.6705    1.4323    2.1299 H   0  0  0  0  0  0  0  0  0  0  0  0
   -0.6905    3.0672    0.6813 H   0  0  0  0  0  0  0  0  0  0  0  0
   -0.5040    2.5778   -1.8770 H   0  0  0  0  0  0  0  0  0  0  0  0
  1  2  3  0
  2  3  1  0
  3  4  1  0
  4  5  3  0
  3  6  2  3
  6  7  1  0
  7  8  3  0
  6  9  1  0
  9 10  2  0
 10 11  1  0
 11 12  2  0
 12 13  1  0
 13  9  1  0
 10 14  1  0
 11 15  1  0
 12 16  1  0
M  END

