
     RDKit          3D

 22 23  0  0  0  0  0  0  0  0999 V2000
    2.8525   -0.3188    3.3374 C   0  0  0  0  0  0  0  0  0  0  0  0
    2.0363   -0.3758    2.2812 C   0  0  0  0  0  0  0  0  0  0  0  0
    2.0434   -1.4886    1.3209 C   0  0  0  0  0  0  0  0  0  0  0  0
    2.8040   -2.4926    1.3289 O   0  0  0  0  0  0  0  0  0  0  0  0
    0.9920   -1.2269    0.3757 C   0  0  0  0  0  0  0  0  0  0  0  0
    0.3048   -2.0269   -0.9250 S   0  0  0  0  0  0  0  0  0  0  0  0
   -0.8674   -0.8141   -1.1541 C   0  0  0  0  0  0  0  0  0  0  0  0
   -1.9620   -0.8820   -2.1654 C   0  0  0  0  0  0  0  0  0  0  0  0
   -0.7329    0.1895   -0.1863 C   0  0  0  0  0  0  0  0  0  0  0  0
    0.3447   -0.0715    0.6659 C   0  0  0  0  0  0  0  0  0  0  0  0
    0.9448    0.5732    1.8604 C   0  0  0  0  0  0  0  0  0  0  0  0
    0.5908    1.7677    2.3934 C   0  0  0  0  0  0  0  0  0  0  0  0
   -0.4755    2.5597    1.8373 C   0  0  0  0  0  0  0  0  0  0  0  0
   -1.3297    3.2073    1.4005 N   0  0  0  0  0  0  0  0  0  0  0  0
    1.2626    2.3525    3.5229 C   0  0  0  0  0  0  0  0  0  0  0  0
    1.7929    2.8384    4.4300 N   0  0  0  0  0  0  0  0  0  0  0  0
    2.8220    0.4712    4.0644 H   0  0  0  0  0  0  0  0  0  0  0  0
    3.5798   -1.1034    3.5031 H   0  0  0  0  0  0  0  0  0  0  0  0
   -1.6285   -1.4691   -3.0463 H   0  0  0  0  0  0  0  0  0  0  0  0
   -2.2363    0.1405   -2.5003 H   0  0  0  0  0  0  0  0  0  0  0  0
   -2.8507   -1.3711   -1.7155 H   0  0  0  0  0  0  0  0  0  0  0  0
   -1.4009    1.0333   -0.1129 H   0  0  0  0  0  0  0  0  0  0  0  0
  1  2  2  3
  2  3  1  0
  3  4  2  0
  3  5  1  0
  5  6  1  0
  6  7  1  0
  7  8  1  0
  7  9  2  0
  9 10  1  0
 10 11  1  0
 11 12  2  3
 12 13  1  0
 13 14  3  0
 12 15  1  0
 15 16  3  0
 11  2  1  0
 10  5  2  0
  1 17  1  0
  1 18  1  0
  8 19  1  0
  8 20  1  0
  8 21  1  0
  9 22  1  0
M  END

