
     RDKit          3D

 84 95  0  0  0  0  0  0  0  0999 V2000
    0.1193   -2.6352    5.9099 C   0  0  0  0  0  0  0  0  0  0  0  0
    0.2534   -1.1344    5.6816 C   0  0  0  0  0  0  0  0  0  0  0  0
    1.4809   -0.8448    4.9476 N   0  0  0  0  0  0  0  0  0  0  0  0
    2.7436   -0.7946    5.4465 C   0  0  0  0  0  0  0  0  0  0  0  0
    3.2523   -0.9482    6.7310 C   0  0  0  0  0  0  0  0  0  0  0  0
    4.6485   -0.7936    6.7208 C   0  0  0  0  0  0  0  0  0  0  0  0
    5.2125   -0.4740    5.1324 S   0  0  0  0  0  0  0  0  0  0  0  0
    3.6706   -0.5406    4.4931 C   0  0  0  0  0  0  0  0  0  0  0  0
    2.9934   -0.4241    3.3160 C   0  0  0  0  0  0  0  0  0  0  0  0
    3.2839   -0.1035    1.6823 S   0  0  0  0  0  0  0  0  0  0  0  0
    1.6063   -0.2221    1.3916 C   0  0  0  0  0  0  0  0  0  0  0  0
    0.8476   -0.5113    2.4998 C   0  0  0  0  0  0  0  0  0  0  0  0
    1.6733   -0.6228    3.6179 C   0  0  0  0  0  0  0  0  0  0  0  0
   -0.6360   -0.6161    2.1645 C   0  0  0  0  0  0  0  0  0  0  0  0
   -1.4768    0.5263    2.7704 C   0  0  0  0  0  0  0  0  0  0  0  0
   -0.8870    1.6080    3.4683 C   0  0  0  0  0  0  0  0  0  0  0  0
   -1.6697    2.6557    3.9613 C   0  0  0  0  0  0  0  0  0  0  0  0
   -3.0480    2.6615    3.7526 C   0  0  0  0  0  0  0  0  0  0  0  0
   -3.6477    1.6215    3.0448 C   0  0  0  0  0  0  0  0  0  0  0  0
   -2.8721    0.5702    2.5502 C   0  0  0  0  0  0  0  0  0  0  0  0
   -1.1320   -2.0415    2.4644 C   0  0  0  0  0  0  0  0  0  0  0  0
   -2.1117   -2.3206    3.4454 C   0  0  0  0  0  0  0  0  0  0  0  0
   -2.5236   -3.6331    3.6942 C   0  0  0  0  0  0  0  0  0  0  0  0
   -1.9581   -4.6930    2.9866 C   0  0  0  0  0  0  0  0  0  0  0  0
   -0.9744   -4.4443    2.0306 C   0  0  0  0  0  0  0  0  0  0  0  0
   -0.5603   -3.1351    1.7740 C   0  0  0  0  0  0  0  0  0  0  0  0
   -0.5443   -0.3909    0.6485 C   0  0  0  0  0  0  0  0  0  0  0  0
   -1.5737   -0.4921   -0.3052 C   0  0  0  0  0  0  0  0  0  0  0  0
   -1.2227   -0.2919   -1.6431 C   0  0  0  0  0  0  0  0  0  0  0  0
    0.0901   -0.0312   -2.0525 C   0  0  0  0  0  0  0  0  0  0  0  0
    1.1236    0.0420   -1.1069 C   0  0  0  0  0  0  0  0  0  0  0  0
    0.7691   -0.1425    0.2330 C   0  0  0  0  0  0  0  0  0  0  0  0
    0.2020    0.0933   -3.5732 C   0  0  0  0  0  0  0  0  0  0  0  0
    1.1410   -1.0082   -4.0839 C   0  0  0  0  0  0  0  0  0  0  0  0
    0.6667   -2.3007   -4.4042 C   0  0  0  0  0  0  0  0  0  0  0  0
    1.5503   -3.3041   -4.8122 C   0  0  0  0  0  0  0  0  0  0  0  0
    2.9199   -3.0479   -4.8815 C   0  0  0  0  0  0  0  0  0  0  0  0
    3.4117   -1.7911   -4.5292 C   0  0  0  0  0  0  0  0  0  0  0  0
    2.5342   -0.7835   -4.1208 C   0  0  0  0  0  0  0  0  0  0  0  0
    0.5886    1.4998   -4.0472 C   0  0  0  0  0  0  0  0  0  0  0  0
    0.9941    1.7036   -5.3833 C   0  0  0  0  0  0  0  0  0  0  0  0
    1.2988    2.9838   -5.8523 C   0  0  0  0  0  0  0  0  0  0  0  0
    1.1844    4.0856   -5.0049 C   0  0  0  0  0  0  0  0  0  0  0  0
    0.7536    3.9107   -3.6895 C   0  0  0  0  0  0  0  0  0  0  0  0
    0.4446    2.6328   -3.2147 C   0  0  0  0  0  0  0  0  0  0  0  0
   -1.2489   -0.1415   -3.9261 C   0  0  0  0  0  0  0  0  0  0  0  0
   -2.0308   -0.3508   -2.8281 C   0  0  0  0  0  0  0  0  0  0  0  0
   -3.6384   -0.7409   -3.2183 S   0  0  0  0  0  0  0  0  0  0  0  0
   -3.2926   -0.6054   -4.8770 C   0  0  0  0  0  0  0  0  0  0  0  0
   -4.0430   -0.8077   -6.0291 C   0  0  0  0  0  0  0  0  0  0  0  0
   -3.2564   -0.6342   -7.1752 C   0  0  0  0  0  0  0  0  0  0  0  0
   -1.6540   -0.2466   -6.7329 S   0  0  0  0  0  0  0  0  0  0  0  0
   -1.9814   -0.2873   -5.0921 C   0  0  0  0  0  0  0  0  0  0  0  0
    0.9215   -2.9901    6.5904 H   0  0  0  0  0  0  0  0  0  0  0  0
    0.2016   -3.1805    4.9467 H   0  0  0  0  0  0  0  0  0  0  0  0
   -0.8658   -2.8579    6.3704 H   0  0  0  0  0  0  0  0  0  0  0  0
   -0.6208   -0.7483    5.1280 H   0  0  0  0  0  0  0  0  0  0  0  0
    0.2741   -0.6147    6.6634 H   0  0  0  0  0  0  0  0  0  0  0  0
    2.6609   -1.1541    7.6130 H   0  0  0  0  0  0  0  0  0  0  0  0
    5.2795   -0.8666    7.5960 H   0  0  0  0  0  0  0  0  0  0  0  0
    0.1781    1.6630    3.6366 H   0  0  0  0  0  0  0  0  0  0  0  0
   -1.2032    3.4703    4.5004 H   0  0  0  0  0  0  0  0  0  0  0  0
   -3.6507    3.4751    4.1347 H   0  0  0  0  0  0  0  0  0  0  0  0
   -4.7174    1.6284    2.8789 H   0  0  0  0  0  0  0  0  0  0  0  0
   -3.3723   -0.2249    2.0167 H   0  0  0  0  0  0  0  0  0  0  0  0
   -2.5541   -1.5390    4.0446 H   0  0  0  0  0  0  0  0  0  0  0  0
   -3.2747   -3.8286    4.4486 H   0  0  0  0  0  0  0  0  0  0  0  0
   -2.2758   -5.7083    3.1861 H   0  0  0  0  0  0  0  0  0  0  0  0
   -0.5277   -5.2679    1.4886 H   0  0  0  0  0  0  0  0  0  0  0  0
    0.2139   -2.9760    1.0341 H   0  0  0  0  0  0  0  0  0  0  0  0
   -2.5882   -0.7416   -0.0335 H   0  0  0  0  0  0  0  0  0  0  0  0
    2.1504    0.2160   -1.3983 H   0  0  0  0  0  0  0  0  0  0  0  0
   -0.3839   -2.5472   -4.3337 H   0  0  0  0  0  0  0  0  0  0  0  0
    1.1724   -4.2860   -5.0659 H   0  0  0  0  0  0  0  0  0  0  0  0
    3.6015   -3.8277   -5.1954 H   0  0  0  0  0  0  0  0  0  0  0  0
    4.4762   -1.5982   -4.5642 H   0  0  0  0  0  0  0  0  0  0  0  0
    2.9459    0.1745   -3.8303 H   0  0  0  0  0  0  0  0  0  0  0  0
    1.0785    0.8688   -6.0663 H   0  0  0  0  0  0  0  0  0  0  0  0
    1.6182    3.1217   -6.8772 H   0  0  0  0  0  0  0  0  0  0  0  0
    1.4184    5.0768   -5.3707 H   0  0  0  0  0  0  0  0  0  0  0  0
    0.6498    4.7690   -3.0379 H   0  0  0  0  0  0  0  0  0  0  0  0
    0.0861    2.5419   -2.1988 H   0  0  0  0  0  0  0  0  0  0  0  0
   -5.0899   -1.0796   -6.0398 H   0  0  0  0  0  0  0  0  0  0  0  0
   -3.6110   -0.7451   -8.1908 H   0  0  0  0  0  0  0  0  0  0  0  0
  1  2  1  0
  2  3  1  0
  3  4  1  0
  4  5  1  0
  5  6  2  0
  6  7  1  0
  7  8  1  0
  8  9  1  0
  9 10  1  0
 10 11  1  0
 11 12  2  0
 12 13  1  0
 12 14  1  0
 14 15  1  0
 15 16  2  0
 16 17  1  0
 17 18  2  0
 18 19  1  0
 19 20  2  0
 14 21  1  0
 21 22  2  0
 22 23  1  0
 23 24  2  0
 24 25  1  0
 25 26  2  0
 14 27  1  0
 27 28  2  0
 28 29  1  0
 29 30  2  0
 30 31  1  0
 31 32  2  0
 30 33  1  0
 33 34  1  0
 34 35  2  0
 35 36  1  0
 36 37  2  0
 37 38  1  0
 38 39  2  0
 33 40  1  0
 40 41  2  0
 41 42  1  0
 42 43  2  0
 43 44  1  0
 44 45  2  0
 33 46  1  0
 46 47  2  0
 47 48  1  0
 48 49  1  0
 49 50  1  0
 50 51  2  0
 51 52  1  0
 52 53  1  0
 13  3  1  0
 20 15  1  0
 26 21  1  0
 32 27  1  0
 39 34  1  0
 45 40  1  0
 53 46  1  0
  8  4  2  0
 13  9  2  0
 47 29  1  0
 53 49  2  0
 32 11  1  0
  1 54  1  0
  1 55  1  0
  1 56  1  0
  2 57  1  0
  2 58  1  0
  5 59  1  0
  6 60  1  0
 16 61  1  0
 17 62  1  0
 18 63  1  0
 19 64  1  0
 20 65  1  0
 22 66  1  0
 23 67  1  0
 24 68  1  0
 25 69  1  0
 26 70  1  0
 28 71  1  0
 31 72  1  0
 35 73  1  0
 36 74  1  0
 37 75  1  0
 38 76  1  0
 39 77  1  0
 41 78  1  0
 42 79  1  0
 43 80  1  0
 44 81  1  0
 45 82  1  0
 50 83  1  0
 51 84  1  0
M  END

