
     RDKit          3D

 22 23  0  0  0  0  0  0  0  0999 V2000
   -1.1087   -2.1798    2.5252 C   0  0  0  0  0  0  0  0  0  0  0  0
   -0.3881   -1.4085    1.7053 C   0  0  0  0  0  0  0  0  0  0  0  0
    0.8354   -1.8615    1.0507 C   0  0  0  0  0  0  0  0  0  0  0  0
    1.2703   -3.0441    1.0254 O   0  0  0  0  0  0  0  0  0  0  0  0
    1.4965   -0.7092    0.4799 C   0  0  0  0  0  0  0  0  0  0  0  0
    2.7316   -0.6587   -0.1659 C   0  0  0  0  0  0  0  0  0  0  0  0
    3.2198    0.5881   -0.5757 C   0  0  0  0  0  0  0  0  0  0  0  0
    2.4822    1.7567   -0.3167 C   0  0  0  0  0  0  0  0  0  0  0  0
    3.2522    3.6315   -0.9006 I   0  0  0  0  0  0  0  0  0  0  0  0
    1.2426    1.6851    0.3418 C   0  0  0  0  0  0  0  0  0  0  0  0
    0.7401    0.4283    0.7204 C   0  0  0  0  0  0  0  0  0  0  0  0
   -0.5231    0.0542    1.4260 C   0  0  0  0  0  0  0  0  0  0  0  0
   -1.6270    0.8274    1.6009 C   0  0  0  0  0  0  0  0  0  0  0  0
   -2.8664    0.3031    2.1124 C   0  0  0  0  0  0  0  0  0  0  0  0
   -3.8703   -0.1062    2.5184 N   0  0  0  0  0  0  0  0  0  0  0  0
   -1.6868    2.2037    1.1848 C   0  0  0  0  0  0  0  0  0  0  0  0
   -1.7544    3.3111    0.8541 N   0  0  0  0  0  0  0  0  0  0  0  0
   -0.8461   -3.2209    2.6639 H   0  0  0  0  0  0  0  0  0  0  0  0
   -1.9241   -1.8010    3.1167 H   0  0  0  0  0  0  0  0  0  0  0  0
    3.3073   -1.5592   -0.3377 H   0  0  0  0  0  0  0  0  0  0  0  0
    4.1766    0.6502   -1.0775 H   0  0  0  0  0  0  0  0  0  0  0  0
    0.7267    2.6021    0.5645 H   0  0  0  0  0  0  0  0  0  0  0  0
  1  2  2  3
  2  3  1  0
  3  4  2  0
  3  5  1  0
  5  6  2  0
  6  7  1  0
  7  8  2  0
  8  9  1  0
  8 10  1  0
 10 11  2  0
 11 12  1  0
 12 13  2  3
 13 14  1  0
 14 15  3  0
 13 16  1  0
 16 17  3  0
 12  2  1  0
 11  5  1  0
  1 18  1  0
  1 19  1  0
  6 20  1  0
  7 21  1  0
 10 22  1  0
M  END

