
     RDKit          3D

 50 57  0  0  0  0  0  0  0  0999 V2000
    4.2242    0.1482    7.1686 C   0  0  0  0  0  0  0  0  0  0  0  0
    3.4007   -1.1171    6.9573 C   0  0  0  0  0  0  0  0  0  0  0  0
    2.7007   -1.0623    5.6658 N   0  0  0  0  0  0  0  0  0  0  0  0
    3.3541   -1.5374    4.4647 C   0  0  0  0  0  0  0  0  0  0  0  0
    4.5152   -2.0276    4.5218 O   0  0  0  0  0  0  0  0  0  0  0  0
    2.6590   -1.4443    3.1637 C   0  0  0  0  0  0  0  0  0  0  0  0
    3.2384   -1.9164    1.9478 C   0  0  0  0  0  0  0  0  0  0  0  0
    2.5382   -1.8067    0.7192 C   0  0  0  0  0  0  0  0  0  0  0  0
    1.2687   -1.2229    0.7417 C   0  0  0  0  0  0  0  0  0  0  0  0
    0.3223   -0.9541   -0.2364 C   0  0  0  0  0  0  0  0  0  0  0  0
    0.3540   -1.2019   -1.6155 C   0  0  0  0  0  0  0  0  0  0  0  0
   -0.7803   -0.8015   -2.3349 C   0  0  0  0  0  0  0  0  0  0  0  0
   -1.8846   -0.1873   -1.7103 C   0  0  0  0  0  0  0  0  0  0  0  0
   -1.9164    0.0609   -0.3312 C   0  0  0  0  0  0  0  0  0  0  0  0
   -0.7826   -0.3396    0.3885 C   0  0  0  0  0  0  0  0  0  0  0  0
   -0.5023   -0.2379    1.7434 C   0  0  0  0  0  0  0  0  0  0  0  0
   -1.2052    0.2753    2.8367 C   0  0  0  0  0  0  0  0  0  0  0  0
   -0.5864    0.2109    4.1113 C   0  0  0  0  0  0  0  0  0  0  0  0
    0.7120   -0.3614    4.2651 C   0  0  0  0  0  0  0  0  0  0  0  0
    1.3781   -0.8643    3.1330 C   0  0  0  0  0  0  0  0  0  0  0  0
    0.7371   -0.7792    1.9162 C   0  0  0  0  0  0  0  0  0  0  0  0
    1.3936   -0.4470    5.5737 C   0  0  0  0  0  0  0  0  0  0  0  0
    0.8344    0.0196    6.6038 O   0  0  0  0  0  0  0  0  0  0  0  0
   -2.8301    0.0827   -2.6887 C   0  0  0  0  0  0  0  0  0  0  0  0
   -4.0965    0.6706   -2.6621 C   0  0  0  0  0  0  0  0  0  0  0  0
   -4.7954    0.7851   -3.8889 C   0  0  0  0  0  0  0  0  0  0  0  0
   -4.2226    0.3161   -5.1021 C   0  0  0  0  0  0  0  0  0  0  0  0
   -2.9422   -0.2713   -5.0878 C   0  0  0  0  0  0  0  0  0  0  0  0
   -2.2598   -0.7757   -6.2123 C   0  0  0  0  0  0  0  0  0  0  0  0
   -0.9669   -1.3444   -6.0545 C   0  0  0  0  0  0  0  0  0  0  0  0
   -0.3523   -1.4120   -4.7800 C   0  0  0  0  0  0  0  0  0  0  0  0
   -1.0602   -0.9017   -3.6898 C   0  0  0  0  0  0  0  0  0  0  0  0
   -2.3008   -0.3602   -3.8665 C   0  0  0  0  0  0  0  0  0  0  0  0
    3.5627    1.0403    7.1644 H   0  0  0  0  0  0  0  0  0  0  0  0
    4.7474    0.0945    8.1464 H   0  0  0  0  0  0  0  0  0  0  0  0
    4.9808    0.2513    6.3623 H   0  0  0  0  0  0  0  0  0  0  0  0
    4.0683   -2.0047    7.0011 H   0  0  0  0  0  0  0  0  0  0  0  0
    2.6733   -1.2286    7.7902 H   0  0  0  0  0  0  0  0  0  0  0  0
    4.2233   -2.3655    1.9502 H   0  0  0  0  0  0  0  0  0  0  0  0
    2.9749   -2.1632   -0.2044 H   0  0  0  0  0  0  0  0  0  0  0  0
    1.2020   -1.6731   -2.0951 H   0  0  0  0  0  0  0  0  0  0  0  0
   -2.7641    0.5329    0.1483 H   0  0  0  0  0  0  0  0  0  0  0  0
   -2.1893    0.7090    2.7167 H   0  0  0  0  0  0  0  0  0  0  0  0
   -1.1154    0.6038    4.9700 H   0  0  0  0  0  0  0  0  0  0  0  0
   -4.5310    1.0271   -1.7374 H   0  0  0  0  0  0  0  0  0  0  0  0
   -5.7791    1.2359   -3.9023 H   0  0  0  0  0  0  0  0  0  0  0  0
   -4.7719    0.4122   -6.0301 H   0  0  0  0  0  0  0  0  0  0  0  0
   -2.7135   -0.7327   -7.1945 H   0  0  0  0  0  0  0  0  0  0  0  0
   -0.4446   -1.7312   -6.9197 H   0  0  0  0  0  0  0  0  0  0  0  0
    0.6321   -1.8446   -4.6579 H   0  0  0  0  0  0  0  0  0  0  0  0
  1  2  1  0
  2  3  1  0
  3  4  1  0
  4  5  2  0
  4  6  1  0
  6  7  2  0
  7  8  1  0
  8  9  2  0
  9 10  1  0
 10 11  2  0
 11 12  1  0
 12 13  2  0
 13 14  1  0
 14 15  2  0
 15 16  1  0
 16 17  2  0
 17 18  1  0
 18 19  2  0
 19 20  1  0
 20 21  2  0
 19 22  1  0
 22 23  2  0
 13 24  1  0
 24 25  2  0
 25 26  1  0
 26 27  2  0
 27 28  1  0
 28 29  1  0
 29 30  2  0
 30 31  1  0
 31 32  2  0
 32 33  1  0
 22  3  1  0
 33 24  1  0
 20  6  1  0
 33 28  2  0
 21  9  1  0
 15 10  1  0
 21 16  1  0
 32 12  1  0
  1 34  1  0
  1 35  1  0
  1 36  1  0
  2 37  1  0
  2 38  1  0
  7 39  1  0
  8 40  1  0
 11 41  1  0
 14 42  1  0
 17 43  1  0
 18 44  1  0
 25 45  1  0
 26 46  1  0
 27 47  1  0
 29 48  1  0
 30 49  1  0
 31 50  1  0
M  END

