
     RDKit          3D

112123  0  0  0  0  0  0  0  0999 V2000
    7.7268    4.4382   -0.6412 C   0  0  0  0  0  0  0  0  0  0  0  0
    7.7410    2.9214   -0.8014 C   0  0  0  0  0  0  0  0  0  0  0  0
    6.5605    2.3018   -0.1036 C   0  0  0  0  0  0  0  0  0  0  0  0
    5.3346    2.1762   -0.7712 C   0  0  0  0  0  0  0  0  0  0  0  0
    4.2239    1.6400   -0.1148 C   0  0  0  0  0  0  0  0  0  0  0  0
    4.3171    1.2020    1.2249 C   0  0  0  0  0  0  0  0  0  0  0  0
    3.0989    0.6756    1.9930 C   0  0  0  0  0  0  0  0  0  0  0  0
    3.4215   -0.5089    2.9130 C   0  0  0  0  0  0  0  0  0  0  0  0
    2.7815   -0.6775    4.1603 C   0  0  0  0  0  0  0  0  0  0  0  0
    3.0391   -1.8011    4.9512 C   0  0  0  0  0  0  0  0  0  0  0  0
    3.9129   -2.8001    4.5004 C   0  0  0  0  0  0  0  0  0  0  0  0
    4.2073   -4.0002    5.3603 C   0  0  0  0  0  0  0  0  0  0  0  0
    5.3729   -3.7163    6.3015 C   0  0  0  0  0  0  0  0  0  0  0  0
    4.5392   -2.6527    3.2557 C   0  0  0  0  0  0  0  0  0  0  0  0
    4.2843   -1.5299    2.4656 C   0  0  0  0  0  0  0  0  0  0  0  0
    1.9286    0.2879    1.0887 C   0  0  0  0  0  0  0  0  0  0  0  0
    1.8620   -0.7720    0.1727 C   0  0  0  0  0  0  0  0  0  0  0  0
    0.6743   -0.9089   -0.5525 C   0  0  0  0  0  0  0  0  0  0  0  0
   -0.4197   -0.0527   -0.3904 C   0  0  0  0  0  0  0  0  0  0  0  0
   -0.3657    0.9831    0.5615 C   0  0  0  0  0  0  0  0  0  0  0  0
    0.8285    1.1293    1.2725 C   0  0  0  0  0  0  0  0  0  0  0  0
    1.1946    2.0738    2.2891 C   0  0  0  0  0  0  0  0  0  0  0  0
    0.5238    3.4066    3.0437 S   0  0  0  0  0  0  0  0  0  0  0  0
    1.9233    3.7020    3.9725 C   0  0  0  0  0  0  0  0  0  0  0  0
    2.9071    2.7528    3.6713 C   0  0  0  0  0  0  0  0  0  0  0  0
    2.4598    1.8442    2.7125 C   0  0  0  0  0  0  0  0  0  0  0  0
   -1.6100   -0.4718   -1.2618 C   0  0  0  0  0  0  0  0  0  0  0  0
   -2.8396   -0.7422   -0.3812 C   0  0  0  0  0  0  0  0  0  0  0  0
   -4.0903   -0.1261   -0.6021 C   0  0  0  0  0  0  0  0  0  0  0  0
   -5.1808   -0.4035    0.2257 C   0  0  0  0  0  0  0  0  0  0  0  0
   -5.0679   -1.3384    1.2613 C   0  0  0  0  0  0  0  0  0  0  0  0
   -6.2589   -1.6698    2.1188 C   0  0  0  0  0  0  0  0  0  0  0  0
   -6.3230   -0.7524    3.3347 C   0  0  0  0  0  0  0  0  0  0  0  0
   -3.8304   -1.9473    1.5004 C   0  0  0  0  0  0  0  0  0  0  0  0
   -2.7315   -1.6531    0.6921 C   0  0  0  0  0  0  0  0  0  0  0  0
   -1.7892    0.5882   -2.3728 C   0  0  0  0  0  0  0  0  0  0  0  0
   -2.1606    1.9088   -2.0373 C   0  0  0  0  0  0  0  0  0  0  0  0
   -2.2335    2.9098   -3.0085 C   0  0  0  0  0  0  0  0  0  0  0  0
   -1.9357    2.6238   -4.3456 C   0  0  0  0  0  0  0  0  0  0  0  0
   -1.9543    3.7152   -5.3808 C   0  0  0  0  0  0  0  0  0  0  0  0
   -0.5715    4.3455   -5.5217 C   0  0  0  0  0  0  0  0  0  0  0  0
   -1.5518    1.3248   -4.6970 C   0  0  0  0  0  0  0  0  0  0  0  0
   -1.4761    0.3208   -3.7279 C   0  0  0  0  0  0  0  0  0  0  0  0
   -1.0418   -1.7799   -1.8057 C   0  0  0  0  0  0  0  0  0  0  0  0
    0.2743   -1.9591   -1.4410 C   0  0  0  0  0  0  0  0  0  0  0  0
    0.8575   -3.5404   -1.6925 S   0  0  0  0  0  0  0  0  0  0  0  0
   -0.6117   -3.9556   -2.4081 C   0  0  0  0  0  0  0  0  0  0  0  0
   -1.2894   -5.0951   -2.7210 C   0  0  0  0  0  0  0  0  0  0  0  0
   -1.0927   -6.7556   -2.7469 S   0  0  0  0  0  0  0  0  0  0  0  0
   -2.7606   -7.0240   -3.0346 C   0  0  0  0  0  0  0  0  0  0  0  0
   -3.4620   -5.8078   -3.0614 C   0  0  0  0  0  0  0  0  0  0  0  0
   -2.5871   -4.7421   -2.8715 C   0  0  0  0  0  0  0  0  0  0  0  0
   -2.7909   -3.4141   -2.6728 N   0  0  0  0  0  0  0  0  0  0  0  0
   -4.0475   -2.7337   -2.6633 C   0  0  0  0  0  0  0  0  0  0  0  0
   -4.3893   -1.6735   -3.4893 C   0  0  0  0  0  0  0  0  0  0  0  0
   -5.7309   -1.2961   -3.3592 C   0  0  0  0  0  0  0  0  0  0  0  0
   -6.4464   -2.0845   -2.4610 C   0  0  0  0  0  0  0  0  0  0  0  0
   -7.8706   -1.8393   -2.0506 C   0  0  0  0  0  0  0  0  0  0  0  0
   -8.5679   -3.1085   -1.5654 C   0  0  0  0  0  0  0  0  0  0  0  0
   -5.4024   -3.2353   -1.8030 S   0  0  0  0  0  0  0  0  0  0  0  0
   -1.5426   -2.9495   -2.3835 C   0  0  0  0  0  0  0  0  0  0  0  0
    5.5439    1.3752    1.8974 C   0  0  0  0  0  0  0  0  0  0  0  0
    6.6536    1.9125    1.2399 C   0  0  0  0  0  0  0  0  0  0  0  0
    7.7957    4.7135    0.4323 H   0  0  0  0  0  0  0  0  0  0  0  0
    8.5947    4.8769   -1.1772 H   0  0  0  0  0  0  0  0  0  0  0  0
    6.7935    4.8637   -1.0691 H   0  0  0  0  0  0  0  0  0  0  0  0
    8.6888    2.5169   -0.3847 H   0  0  0  0  0  0  0  0  0  0  0  0
    7.7202    2.6670   -1.8833 H   0  0  0  0  0  0  0  0  0  0  0  0
    5.2326    2.5079   -1.7992 H   0  0  0  0  0  0  0  0  0  0  0  0
    3.2910    1.5865   -0.6599 H   0  0  0  0  0  0  0  0  0  0  0  0
    2.0728    0.0504    4.5301 H   0  0  0  0  0  0  0  0  0  0  0  0
    2.5482   -1.8981    5.9127 H   0  0  0  0  0  0  0  0  0  0  0  0
    3.3104   -4.2709    5.9587 H   0  0  0  0  0  0  0  0  0  0  0  0
    4.4554   -4.8782    4.7254 H   0  0  0  0  0  0  0  0  0  0  0  0
    5.5827   -4.6181    6.9166 H   0  0  0  0  0  0  0  0  0  0  0  0
    5.1226   -2.8741    6.9815 H   0  0  0  0  0  0  0  0  0  0  0  0
    6.2845   -3.4632    5.7205 H   0  0  0  0  0  0  0  0  0  0  0  0
    5.2194   -3.4120    2.8899 H   0  0  0  0  0  0  0  0  0  0  0  0
    4.7633   -1.4587    1.4983 H   0  0  0  0  0  0  0  0  0  0  0  0
    2.6856   -1.4591    0.0367 H   0  0  0  0  0  0  0  0  0  0  0  0
   -1.2131    1.6192    0.7725 H   0  0  0  0  0  0  0  0  0  0  0  0
    2.0409    4.5114    4.6799 H   0  0  0  0  0  0  0  0  0  0  0  0
    3.8933    2.7336    4.1157 H   0  0  0  0  0  0  0  0  0  0  0  0
   -4.2549    0.5474   -1.4293 H   0  0  0  0  0  0  0  0  0  0  0  0
   -6.1253    0.0899    0.0359 H   0  0  0  0  0  0  0  0  0  0  0  0
   -7.1948   -1.5622    1.5292 H   0  0  0  0  0  0  0  0  0  0  0  0
   -6.2049   -2.7279    2.4562 H   0  0  0  0  0  0  0  0  0  0  0  0
   -5.4344   -0.9104    3.9823 H   0  0  0  0  0  0  0  0  0  0  0  0
   -7.2356   -0.9806    3.9253 H   0  0  0  0  0  0  0  0  0  0  0  0
   -6.3620    0.3110    3.0164 H   0  0  0  0  0  0  0  0  0  0  0  0
   -3.7171   -2.6590    2.3082 H   0  0  0  0  0  0  0  0  0  0  0  0
   -1.7895   -2.1458    0.8986 H   0  0  0  0  0  0  0  0  0  0  0  0
   -2.4130    2.1711   -1.0204 H   0  0  0  0  0  0  0  0  0  0  0  0
   -2.5183    3.9118   -2.7150 H   0  0  0  0  0  0  0  0  0  0  0  0
   -2.2714    3.3033   -6.3634 H   0  0  0  0  0  0  0  0  0  0  0  0
   -2.6874    4.5015   -5.1003 H   0  0  0  0  0  0  0  0  0  0  0  0
   -0.6031    5.1481   -6.2860 H   0  0  0  0  0  0  0  0  0  0  0  0
   -0.2484    4.7877   -4.5554 H   0  0  0  0  0  0  0  0  0  0  0  0
    0.1720    3.5817   -5.8392 H   0  0  0  0  0  0  0  0  0  0  0  0
   -1.2939    1.0893   -5.7223 H   0  0  0  0  0  0  0  0  0  0  0  0
   -1.1589   -0.6596   -4.0534 H   0  0  0  0  0  0  0  0  0  0  0  0
   -3.2189   -7.9973   -3.1416 H   0  0  0  0  0  0  0  0  0  0  0  0
   -4.5330   -5.7214   -3.1811 H   0  0  0  0  0  0  0  0  0  0  0  0
   -3.7057   -1.2065   -4.1814 H   0  0  0  0  0  0  0  0  0  0  0  0
   -6.1669   -0.4701   -3.9046 H   0  0  0  0  0  0  0  0  0  0  0  0
   -7.8888   -1.0814   -1.2394 H   0  0  0  0  0  0  0  0  0  0  0  0
   -8.4360   -1.4342   -2.9186 H   0  0  0  0  0  0  0  0  0  0  0  0
   -8.5141   -3.9008   -2.3435 H   0  0  0  0  0  0  0  0  0  0  0  0
   -8.0946   -3.4749   -0.6295 H   0  0  0  0  0  0  0  0  0  0  0  0
   -9.6357   -2.8889   -1.3550 H   0  0  0  0  0  0  0  0  0  0  0  0
    5.6417    1.1016    2.9401 H   0  0  0  0  0  0  0  0  0  0  0  0
    7.5837    2.0349    1.7808 H   0  0  0  0  0  0  0  0  0  0  0  0
  1  2  1  0
  2  3  1  0
  3  4  2  0
  4  5  1  0
  5  6  2  0
  6  7  1  0
  7  8  1  0
  8  9  2  0
  9 10  1  0
 10 11  2  0
 11 12  1  0
 12 13  1  0
 11 14  1  0
 14 15  2  0
  7 16  1  0
 16 17  2  0
 17 18  1  0
 18 19  2  0
 19 20  1  0
 20 21  2  0
 21 22  1  0
 22 23  1  0
 23 24  1  0
 24 25  2  0
 25 26  1  0
 19 27  1  0
 27 28  1  0
 28 29  2  0
 29 30  1  0
 30 31  2  0
 31 32  1  0
 32 33  1  0
 31 34  1  0
 34 35  2  0
 27 36  1  0
 36 37  2  0
 37 38  1  0
 38 39  2  0
 39 40  1  0
 40 41  1  0
 39 42  1  0
 42 43  2  0
 27 44  1  0
 44 45  2  0
 45 46  1  0
 46 47  1  0
 47 48  1  0
 48 49  1  0
 49 50  1  0
 50 51  2  0
 51 52  1  0
 52 53  1  0
 53 54  1  0
 54 55  2  0
 55 56  1  0
 56 57  2  0
 57 58  1  0
 58 59  1  0
 57 60  1  0
 53 61  1  0
  6 62  1  0
 62 63  2  0
 63  3  1  0
 26  7  1  0
 35 28  1  0
 43 36  1  0
 61 44  1  0
 15  8  1  0
 21 16  1  0
 26 22  2  0
 61 47  2  0
 45 18  1  0
 52 48  2  0
 60 54  1  0
  1 64  1  0
  1 65  1  0
  1 66  1  0
  2 67  1  0
  2 68  1  0
  4 69  1  0
  5 70  1  0
  9 71  1  0
 10 72  1  0
 12 73  1  0
 12 74  1  0
 13 75  1  0
 13 76  1  0
 13 77  1  0
 14 78  1  0
 15 79  1  0
 17 80  1  0
 20 81  1  0
 24 82  1  0
 25 83  1  0
 29 84  1  0
 30 85  1  0
 32 86  1  0
 32 87  1  0
 33 88  1  0
 33 89  1  0
 33 90  1  0
 34 91  1  0
 35 92  1  0
 37 93  1  0
 38 94  1  0
 40 95  1  0
 40 96  1  0
 41 97  1  0
 41 98  1  0
 41 99  1  0
 42100  1  0
 43101  1  0
 50102  1  0
 51103  1  0
 55104  1  0
 56105  1  0
 58106  1  0
 58107  1  0
 59108  1  0
 59109  1  0
 59110  1  0
 62111  1  0
 63112  1  0
M  END

