
     RDKit          3D

 46 50  0  0  0  0  0  0  0  0999 V2000
   -1.0827   -6.8529    3.7489 C   0  0  0  0  0  0  0  0  0  0  0  0
   -1.3871   -7.5656    2.4375 C   0  0  0  0  0  0  0  0  0  0  0  0
   -2.8898   -6.8846    1.6521 S   0  0  0  0  0  0  0  0  0  0  0  0
   -2.0603   -5.4791    0.9111 C   0  0  0  0  0  0  0  0  0  0  0  0
   -1.9786   -3.9409    1.5822 S   0  0  0  0  0  0  0  0  0  0  0  0
   -1.0957   -3.2540    0.3200 C   0  0  0  0  0  0  0  0  0  0  0  0
   -0.6754   -1.8408    0.2417 C   0  0  0  0  0  0  0  0  0  0  0  0
    0.0572   -1.2165    1.2739 C   0  0  0  0  0  0  0  0  0  0  0  0
    0.5487   -1.8302    2.4400 C   0  0  0  0  0  0  0  0  0  0  0  0
    1.2725   -0.9657    3.2548 C   0  0  0  0  0  0  0  0  0  0  0  0
    1.3213    0.5541    2.5294 S   0  0  0  0  0  0  0  0  0  0  0  0
    0.4112    0.1343    1.1773 C   0  0  0  0  0  0  0  0  0  0  0  0
    0.0781    0.9320    0.0670 C   0  0  0  0  0  0  0  0  0  0  0  0
    0.4930    2.3472   -0.0104 C   0  0  0  0  0  0  0  0  0  0  0  0
    1.1927    2.9343   -1.0614 C   0  0  0  0  0  0  0  0  0  0  0  0
    1.4523    4.2927   -0.8538 C   0  0  0  0  0  0  0  0  0  0  0  0
    2.1108    5.0655   -1.7519 F   0  0  0  0  0  0  0  0  0  0  0  0
    0.9692    4.7701    0.3555 C   0  0  0  0  0  0  0  0  0  0  0  0
    1.0991    6.4551    0.9523 S   0  0  0  0  0  0  0  0  0  0  0  0
    2.5918    6.1557    1.9629 C   0  0  0  0  0  0  0  0  0  0  0  0
    3.8478    6.1466    1.1008 C   0  0  0  0  0  0  0  0  0  0  0  0
    0.2026    3.5165    1.1699 S   0  0  0  0  0  0  0  0  0  0  0  0
   -0.6528    0.3067   -0.9661 C   0  0  0  0  0  0  0  0  0  0  0  0
   -1.1398    0.9185   -2.1350 C   0  0  0  0  0  0  0  0  0  0  0  0
   -1.8612    0.0527   -2.9507 C   0  0  0  0  0  0  0  0  0  0  0  0
   -1.9126   -1.4663   -2.2234 S   0  0  0  0  0  0  0  0  0  0  0  0
   -1.0072   -1.0436   -0.8691 C   0  0  0  0  0  0  0  0  0  0  0  0
   -0.8746   -4.2244   -0.6536 C   0  0  0  0  0  0  0  0  0  0  0  0
   -1.4170   -5.4690   -0.3175 C   0  0  0  0  0  0  0  0  0  0  0  0
   -1.3201   -6.5588   -1.1175 F   0  0  0  0  0  0  0  0  0  0  0  0
   -1.9622   -6.9020    4.4252 H   0  0  0  0  0  0  0  0  0  0  0  0
   -0.8201   -5.7914    3.5632 H   0  0  0  0  0  0  0  0  0  0  0  0
   -0.2213   -7.3453    4.2473 H   0  0  0  0  0  0  0  0  0  0  0  0
   -1.5663   -8.6408    2.6488 H   0  0  0  0  0  0  0  0  0  0  0  0
   -0.5158   -7.4928    1.7516 H   0  0  0  0  0  0  0  0  0  0  0  0
    0.4118   -2.8740    2.6852 H   0  0  0  0  0  0  0  0  0  0  0  0
    1.7422   -1.2328    4.1915 H   0  0  0  0  0  0  0  0  0  0  0  0
    1.5105    2.3976   -1.9458 H   0  0  0  0  0  0  0  0  0  0  0  0
    2.6746    6.9766    2.7058 H   0  0  0  0  0  0  0  0  0  0  0  0
    2.5037    5.1981    2.5197 H   0  0  0  0  0  0  0  0  0  0  0  0
    3.8381    5.2795    0.4091 H   0  0  0  0  0  0  0  0  0  0  0  0
    4.7436    6.0654    1.7517 H   0  0  0  0  0  0  0  0  0  0  0  0
    3.9170    7.0866    0.5135 H   0  0  0  0  0  0  0  0  0  0  0  0
   -0.9991    1.9615   -2.3824 H   0  0  0  0  0  0  0  0  0  0  0  0
   -2.3270    0.3182   -3.8899 H   0  0  0  0  0  0  0  0  0  0  0  0
   -0.3349   -4.0409   -1.5735 H   0  0  0  0  0  0  0  0  0  0  0  0
  1  2  1  0
  2  3  1  0
  3  4  1  0
  4  5  1  0
  5  6  1  0
  6  7  1  0
  7  8  2  0
  8  9  1  0
  9 10  2  0
 10 11  1  0
 11 12  1  0
 12 13  2  0
 13 14  1  0
 14 15  2  0
 15 16  1  0
 16 17  1  0
 16 18  2  0
 18 19  1  0
 19 20  1  0
 20 21  1  0
 18 22  1  0
 13 23  1  0
 23 24  1  0
 24 25  2  0
 25 26  1  0
 26 27  1  0
  6 28  2  0
 28 29  1  0
 29 30  1  0
 29  4  2  0
 27  7  1  0
 12  8  1  0
 22 14  1  0
 27 23  2  0
  1 31  1  0
  1 32  1  0
  1 33  1  0
  2 34  1  0
  2 35  1  0
  9 36  1  0
 10 37  1  0
 15 38  1  0
 20 39  1  0
 20 40  1  0
 21 41  1  0
 21 42  1  0
 21 43  1  0
 24 44  1  0
 25 45  1  0
 28 46  1  0
M  END

