
     RDKit          3D

 50 56  0  0  0  0  0  0  0  0999 V2000
    5.8101   -2.2098    4.9511 C   0  0  0  0  0  0  0  0  0  0  0  0
    5.8526   -0.8910    4.1876 C   0  0  0  0  0  0  0  0  0  0  0  0
    4.8559   -0.8955    3.0686 C   0  0  0  0  0  0  0  0  0  0  0  0
    3.2678   -0.3538    3.2034 S   0  0  0  0  0  0  0  0  0  0  0  0
    2.8087   -0.7739    1.6421 C   0  0  0  0  0  0  0  0  0  0  0  0
    1.4710   -0.5566    1.0740 C   0  0  0  0  0  0  0  0  0  0  0  0
    1.0581    0.7264    0.6814 C   0  0  0  0  0  0  0  0  0  0  0  0
    1.9540    2.1761    0.7709 S   0  0  0  0  0  0  0  0  0  0  0  0
    0.7314    3.0927    0.0703 C   0  0  0  0  0  0  0  0  0  0  0  0
    0.6225    4.4349   -0.2753 C   0  0  0  0  0  0  0  0  0  0  0  0
   -0.6103    4.6958   -0.8820 C   0  0  0  0  0  0  0  0  0  0  0  0
   -1.5181    3.2569   -0.9747 S   0  0  0  0  0  0  0  0  0  0  0  0
   -0.3439    2.3131   -0.2326 C   0  0  0  0  0  0  0  0  0  0  0  0
   -0.2041    0.9627    0.1004 C   0  0  0  0  0  0  0  0  0  0  0  0
   -1.1179   -0.0910   -0.1022 C   0  0  0  0  0  0  0  0  0  0  0  0
   -2.4570    0.1264   -0.6683 C   0  0  0  0  0  0  0  0  0  0  0  0
   -2.9422   -0.3629   -2.2016 S   0  0  0  0  0  0  0  0  0  0  0  0
   -4.5259    0.1915   -2.0684 C   0  0  0  0  0  0  0  0  0  0  0  0
   -5.5813    0.0070   -3.1162 C   0  0  0  0  0  0  0  0  0  0  0  0
   -6.3508   -1.2882   -2.8836 C   0  0  0  0  0  0  0  0  0  0  0  0
   -4.7022    0.7434   -0.7998 C   0  0  0  0  0  0  0  0  0  0  0  0
   -6.2306    1.3972   -0.2281 Cl  0  0  0  0  0  0  0  0  0  0  0  0
   -3.5395    0.7083   -0.0154 C   0  0  0  0  0  0  0  0  0  0  0  0
   -3.4645    1.3037    1.6372 Cl  0  0  0  0  0  0  0  0  0  0  0  0
   -0.7047   -1.3743    0.2907 C   0  0  0  0  0  0  0  0  0  0  0  0
   -1.6005   -2.8244    0.2041 S   0  0  0  0  0  0  0  0  0  0  0  0
   -0.3772   -3.7404    0.9043 C   0  0  0  0  0  0  0  0  0  0  0  0
   -0.2674   -5.0824    1.2506 C   0  0  0  0  0  0  0  0  0  0  0  0
    0.9662   -5.3426    1.8558 C   0  0  0  0  0  0  0  0  0  0  0  0
    1.8739   -3.9034    1.9463 S   0  0  0  0  0  0  0  0  0  0  0  0
    0.6982   -2.9604    1.2054 C   0  0  0  0  0  0  0  0  0  0  0  0
    0.5576   -1.6102    0.8717 C   0  0  0  0  0  0  0  0  0  0  0  0
    3.8946   -1.3488    0.9892 C   0  0  0  0  0  0  0  0  0  0  0  0
    3.8312   -1.9186   -0.6728 Cl  0  0  0  0  0  0  0  0  0  0  0  0
    5.0415   -1.4281    1.7932 C   0  0  0  0  0  0  0  0  0  0  0  0
    6.5535   -2.1395    1.2471 Cl  0  0  0  0  0  0  0  0  0  0  0  0
    6.0622   -3.0555    4.2762 H   0  0  0  0  0  0  0  0  0  0  0  0
    4.7987   -2.3736    5.3811 H   0  0  0  0  0  0  0  0  0  0  0  0
    6.5490   -2.1836    5.7793 H   0  0  0  0  0  0  0  0  0  0  0  0
    6.8745   -0.7260    3.7847 H   0  0  0  0  0  0  0  0  0  0  0  0
    5.6221   -0.0566    4.8840 H   0  0  0  0  0  0  0  0  0  0  0  0
    1.3919    5.1762   -0.1067 H   0  0  0  0  0  0  0  0  0  0  0  0
   -0.9324    5.6625   -1.2444 H   0  0  0  0  0  0  0  0  0  0  0  0
   -6.2848    0.8665   -3.1014 H   0  0  0  0  0  0  0  0  0  0  0  0
   -5.1040   -0.0254   -4.1189 H   0  0  0  0  0  0  0  0  0  0  0  0
   -6.8565   -1.2651   -1.8946 H   0  0  0  0  0  0  0  0  0  0  0  0
   -5.6610   -2.1584   -2.9220 H   0  0  0  0  0  0  0  0  0  0  0  0
   -7.1213   -1.4097   -3.6737 H   0  0  0  0  0  0  0  0  0  0  0  0
   -1.0368   -5.8241    1.0833 H   0  0  0  0  0  0  0  0  0  0  0  0
    1.2892   -6.3090    2.2181 H   0  0  0  0  0  0  0  0  0  0  0  0
  1  2  1  0
  2  3  1  0
  3  4  1  0
  4  5  1  0
  5  6  1  0
  6  7  2  0
  7  8  1  0
  8  9  1  0
  9 10  1  0
 10 11  2  0
 11 12  1  0
 12 13  1  0
 13 14  1  0
 14 15  2  0
 15 16  1  0
 16 17  1  0
 17 18  1  0
 18 19  1  0
 19 20  1  0
 18 21  2  0
 21 22  1  0
 21 23  1  0
 23 24  1  0
 15 25  1  0
 25 26  1  0
 26 27  1  0
 27 28  1  0
 28 29  2  0
 29 30  1  0
 30 31  1  0
 31 32  1  0
  5 33  2  0
 33 34  1  0
 33 35  1  0
 35 36  1  0
 35  3  2  0
 32  6  1  0
 14  7  1  0
 23 16  2  0
 32 25  2  0
 13  9  2  0
 31 27  2  0
  1 37  1  0
  1 38  1  0
  1 39  1  0
  2 40  1  0
  2 41  1  0
 10 42  1  0
 11 43  1  0
 19 44  1  0
 19 45  1  0
 20 46  1  0
 20 47  1  0
 20 48  1  0
 28 49  1  0
 29 50  1  0
M  END

