
     RDKit          3D

 20 21  0  0  0  0  0  0  0  0999 V2000
    0.3747    1.4237    3.6533 C   0  0  0  0  0  0  0  0  0  0  0  0
   -0.4744    0.2771    3.1207 C   0  0  0  0  0  0  0  0  0  0  0  0
   -0.0467   -0.0810    1.7742 N   0  0  0  0  0  0  0  0  0  0  0  0
    0.9143   -0.9683    1.5228 N   0  0  0  0  0  0  0  0  0  0  0  0
    1.0356   -0.9656    0.1870 C   0  0  0  0  0  0  0  0  0  0  0  0
    1.8957   -1.7085   -0.6134 C   0  0  0  0  0  0  0  0  0  0  0  0
    1.8253   -1.5071   -2.0078 C   0  0  0  0  0  0  0  0  0  0  0  0
    2.8978   -2.4306   -3.0504 Cl  0  0  0  0  0  0  0  0  0  0  0  0
    0.9007   -0.5703   -2.5507 C   0  0  0  0  0  0  0  0  0  0  0  0
    0.7959   -0.3009   -4.2845 Cl  0  0  0  0  0  0  0  0  0  0  0  0
    0.0491    0.1624   -1.6976 C   0  0  0  0  0  0  0  0  0  0  0  0
    0.1529   -0.0713   -0.3313 C   0  0  0  0  0  0  0  0  0  0  0  0
   -0.5299    0.4950    0.6748 N   0  0  0  0  0  0  0  0  0  0  0  0
    0.0424    1.6900    4.6787 H   0  0  0  0  0  0  0  0  0  0  0  0
    0.2674    2.3143    2.9982 H   0  0  0  0  0  0  0  0  0  0  0  0
    1.4433    1.1227    3.6887 H   0  0  0  0  0  0  0  0  0  0  0  0
   -0.3736   -0.6027    3.7923 H   0  0  0  0  0  0  0  0  0  0  0  0
   -1.5431    0.5823    3.1056 H   0  0  0  0  0  0  0  0  0  0  0  0
    2.5925   -2.4138   -0.1788 H   0  0  0  0  0  0  0  0  0  0  0  0
   -0.6597    0.8813   -2.0884 H   0  0  0  0  0  0  0  0  0  0  0  0
  1  2  1  0
  2  3  1  0
  3  4  1  0
  4  5  2  0
  5  6  1  0
  6  7  2  0
  7  8  1  0
  7  9  1  0
  9 10  1  0
  9 11  2  0
 11 12  1  0
 12 13  2  0
 13  3  1  0
 12  5  1  0
  1 14  1  0
  1 15  1  0
  1 16  1  0
  2 17  1  0
  2 18  1  0
  6 19  1  0
 11 20  1  0
M  END

