
     RDKit          3D

 15 15  0  0  0  0  0  0  0  0999 V2000
   -0.6050   -1.0544    1.9602 C   0  0  0  0  0  0  0  0  0  0  0  0
    0.5518   -0.3099    1.3624 C   0  0  0  0  0  0  0  0  0  0  0  0
    0.5885   -0.0488   -0.0170 C   0  0  0  0  0  0  0  0  0  0  0  0
    1.6493    0.6778   -0.5676 C   0  0  0  0  0  0  0  0  0  0  0  0
    2.6714    1.1582    0.2558 C   0  0  0  0  0  0  0  0  0  0  0  0
    2.6319    0.9172    1.6320 C   0  0  0  0  0  0  0  0  0  0  0  0
    1.5728    0.1911    2.1864 C   0  0  0  0  0  0  0  0  0  0  0  0
   -1.0156   -1.7884    1.2344 H   0  0  0  0  0  0  0  0  0  0  0  0
   -1.4030   -0.3348    2.2383 H   0  0  0  0  0  0  0  0  0  0  0  0
   -0.2861   -1.6106    2.8674 H   0  0  0  0  0  0  0  0  0  0  0  0
   -0.2020   -0.4073   -0.6647 H   0  0  0  0  0  0  0  0  0  0  0  0
    1.6768    0.8716   -1.6322 H   0  0  0  0  0  0  0  0  0  0  0  0
    3.4909    1.7215   -0.1716 H   0  0  0  0  0  0  0  0  0  0  0  0
    3.4199    1.2963    2.2699 H   0  0  0  0  0  0  0  0  0  0  0  0
    1.5492    0.0194    3.2555 H   0  0  0  0  0  0  0  0  0  0  0  0
  1  2  1  0
  2  3  2  0
  3  4  1  0
  4  5  2  0
  5  6  1  0
  6  7  2  0
  7  2  1  0
  1  8  1  0
  1  9  1  0
  1 10  1  0
  3 11  1  0
  4 12  1  0
  5 13  1  0
  6 14  1  0
  7 15  1  0
M  END

