
     RDKit          3D

 20 21  0  0  0  0  0  0  0  0999 V2000
    0.6838    1.7368    2.8361 C   0  0  0  0  0  0  0  0  0  0  0  0
   -0.1671    0.4743    2.7647 C   0  0  0  0  0  0  0  0  0  0  0  0
    0.0443   -0.2125    1.4934 N   0  0  0  0  0  0  0  0  0  0  0  0
    1.1531   -1.0518    1.1567 C   0  0  0  0  0  0  0  0  0  0  0  0
    1.9649   -1.5265    1.9946 O   0  0  0  0  0  0  0  0  0  0  0  0
    1.2119   -1.2418   -0.2877 C   0  0  0  0  0  0  0  0  0  0  0  0
    2.0857   -1.9634   -1.0895 C   0  0  0  0  0  0  0  0  0  0  0  0
    1.8851   -1.9294   -2.4393 N   0  0  0  0  0  0  0  0  0  0  0  0
    0.8837   -1.2234   -2.9872 N   0  0  0  0  0  0  0  0  0  0  0  0
    0.0120   -0.5015   -2.2241 C   0  0  0  0  0  0  0  0  0  0  0  0
    0.1890   -0.5207   -0.8474 C   0  0  0  0  0  0  0  0  0  0  0  0
   -0.5351    0.1383    0.2330 C   0  0  0  0  0  0  0  0  0  0  0  0
   -1.5101    0.9232    0.0933 O   0  0  0  0  0  0  0  0  0  0  0  0
    1.7605    1.4776    2.7520 H   0  0  0  0  0  0  0  0  0  0  0  0
    0.5128    2.2477    3.8069 H   0  0  0  0  0  0  0  0  0  0  0  0
    0.4095    2.4300    2.0129 H   0  0  0  0  0  0  0  0  0  0  0  0
    0.1020   -0.2026    3.6037 H   0  0  0  0  0  0  0  0  0  0  0  0
   -1.2400    0.7434    2.8694 H   0  0  0  0  0  0  0  0  0  0  0  0
    2.9007   -2.5342   -0.6652 H   0  0  0  0  0  0  0  0  0  0  0  0
   -0.7869    0.0654   -2.6828 H   0  0  0  0  0  0  0  0  0  0  0  0
  1  2  1  0
  2  3  1  0
  3  4  1  0
  4  5  2  0
  4  6  1  0
  6  7  2  0
  7  8  1  0
  8  9  2  0
  9 10  1  0
 10 11  2  0
 11 12  1  0
 12 13  2  0
 12  3  1  0
 11  6  1  0
  1 14  1  0
  1 15  1  0
  1 16  1  0
  2 17  1  0
  2 18  1  0
  7 19  1  0
 10 20  1  0
M  END

