
     RDKit          3D

 44 48  0  0  0  0  0  0  0  0999 V2000
   -3.3188   -6.7565    1.8670 C   0  0  0  0  0  0  0  0  0  0  0  0
   -1.8203   -6.7977    1.5901 C   0  0  0  0  0  0  0  0  0  0  0  0
   -1.2049   -5.4478    1.8026 C   0  0  0  0  0  0  0  0  0  0  0  0
   -1.0422   -4.2747    0.6076 S   0  0  0  0  0  0  0  0  0  0  0  0
   -0.3938   -3.0883    1.6085 C   0  0  0  0  0  0  0  0  0  0  0  0
   -0.0093   -1.7351    1.1691 C   0  0  0  0  0  0  0  0  0  0  0  0
    1.3235   -1.2792    1.2312 C   0  0  0  0  0  0  0  0  0  0  0  0
    2.4372   -2.0131    1.6726 C   0  0  0  0  0  0  0  0  0  0  0  0
    3.6253   -1.2901    1.6230 C   0  0  0  0  0  0  0  0  0  0  0  0
    3.3029    0.2531    1.0236 S   0  0  0  0  0  0  0  0  0  0  0  0
    1.6506    0.0153    0.8159 C   0  0  0  0  0  0  0  0  0  0  0  0
    0.6927    0.9203    0.3278 C   0  0  0  0  0  0  0  0  0  0  0  0
    1.0724    2.2832   -0.0851 C   0  0  0  0  0  0  0  0  0  0  0  0
    2.1227    2.6461   -1.3480 S   0  0  0  0  0  0  0  0  0  0  0  0
    2.0422    4.3175   -1.1731 C   0  0  0  0  0  0  0  0  0  0  0  0
    2.8389    5.2960   -1.9819 C   0  0  0  0  0  0  0  0  0  0  0  0
    4.1672    5.6036   -1.3002 C   0  0  0  0  0  0  0  0  0  0  0  0
    1.2064    4.6141   -0.0974 C   0  0  0  0  0  0  0  0  0  0  0  0
    0.8911    6.2500    0.4646 Cl  0  0  0  0  0  0  0  0  0  0  0  0
    0.6577    3.4734    0.5090 C   0  0  0  0  0  0  0  0  0  0  0  0
   -0.3886    3.5400    1.9210 Cl  0  0  0  0  0  0  0  0  0  0  0  0
   -0.6375    0.4590    0.2508 C   0  0  0  0  0  0  0  0  0  0  0  0
   -1.7441    1.1784   -0.2307 C   0  0  0  0  0  0  0  0  0  0  0  0
   -2.9330    0.4569   -0.1768 C   0  0  0  0  0  0  0  0  0  0  0  0
   -2.6164   -1.0743    0.4556 S   0  0  0  0  0  0  0  0  0  0  0  0
   -0.9638   -0.8371    0.6618 C   0  0  0  0  0  0  0  0  0  0  0  0
   -0.3148   -3.5905    2.9058 C   0  0  0  0  0  0  0  0  0  0  0  0
    0.2368   -2.6432    4.2812 Cl  0  0  0  0  0  0  0  0  0  0  0  0
   -0.7754   -4.9117    3.0158 C   0  0  0  0  0  0  0  0  0  0  0  0
   -0.8302   -5.7893    4.5384 Cl  0  0  0  0  0  0  0  0  0  0  0  0
   -3.8165   -6.0325    1.1868 H   0  0  0  0  0  0  0  0  0  0  0  0
   -3.7558   -7.7629    1.6967 H   0  0  0  0  0  0  0  0  0  0  0  0
   -3.5093   -6.4599    2.9205 H   0  0  0  0  0  0  0  0  0  0  0  0
   -1.6503   -7.1196    0.5405 H   0  0  0  0  0  0  0  0  0  0  0  0
   -1.3382   -7.5436    2.2573 H   0  0  0  0  0  0  0  0  0  0  0  0
    2.3916   -3.0377    2.0171 H   0  0  0  0  0  0  0  0  0  0  0  0
    4.5972   -1.6610    1.9187 H   0  0  0  0  0  0  0  0  0  0  0  0
    3.0341    4.8696   -2.9891 H   0  0  0  0  0  0  0  0  0  0  0  0
    2.2621    6.2358   -2.1160 H   0  0  0  0  0  0  0  0  0  0  0  0
    3.9930    6.0543   -0.2998 H   0  0  0  0  0  0  0  0  0  0  0  0
    4.7650    4.6742   -1.1842 H   0  0  0  0  0  0  0  0  0  0  0  0
    4.7442    6.3230   -1.9183 H   0  0  0  0  0  0  0  0  0  0  0  0
   -1.6924    2.1904   -0.6097 H   0  0  0  0  0  0  0  0  0  0  0  0
   -3.9013    0.8205   -0.4927 H   0  0  0  0  0  0  0  0  0  0  0  0
  1  2  1  0
  2  3  1  0
  3  4  1  0
  4  5  1  0
  5  6  1  0
  6  7  2  0
  7  8  1  0
  8  9  2  0
  9 10  1  0
 10 11  1  0
 11 12  2  0
 12 13  1  0
 13 14  1  0
 14 15  1  0
 15 16  1  0
 16 17  1  0
 15 18  2  0
 18 19  1  0
 18 20  1  0
 20 21  1  0
 12 22  1  0
 22 23  1  0
 23 24  2  0
 24 25  1  0
 25 26  1  0
  5 27  2  0
 27 28  1  0
 27 29  1  0
 29 30  1  0
 29  3  2  0
 26  6  1  0
 11  7  1  0
 20 13  2  0
 26 22  2  0
  1 31  1  0
  1 32  1  0
  1 33  1  0
  2 34  1  0
  2 35  1  0
  8 36  1  0
  9 37  1  0
 16 38  1  0
 16 39  1  0
 17 40  1  0
 17 41  1  0
 17 42  1  0
 23 43  1  0
 24 44  1  0
M  END

