
     RDKit          3D

 50 56  0  0  0  0  0  0  0  0999 V2000
    6.5264   -4.0705   -0.4220 C   0  0  0  0  0  0  0  0  0  0  0  0
    6.4761   -2.8613    0.5047 C   0  0  0  0  0  0  0  0  0  0  0  0
    5.0667   -2.5701    0.9160 C   0  0  0  0  0  0  0  0  0  0  0  0
    4.0041   -1.5625    0.0856 S   0  0  0  0  0  0  0  0  0  0  0  0
    2.6809   -1.8554    1.0845 C   0  0  0  0  0  0  0  0  0  0  0  0
    1.3532   -1.2418    0.9355 C   0  0  0  0  0  0  0  0  0  0  0  0
    1.1684    0.1320    1.1639 C   0  0  0  0  0  0  0  0  0  0  0  0
    2.3578    1.2822    1.5829 S   0  0  0  0  0  0  0  0  0  0  0  0
    1.2618    2.5551    1.6165 C   0  0  0  0  0  0  0  0  0  0  0  0
    1.3912    3.9198    1.8494 C   0  0  0  0  0  0  0  0  0  0  0  0
    0.1591    4.5677    1.7189 C   0  0  0  0  0  0  0  0  0  0  0  0
   -1.0434    3.4304    1.3155 S   0  0  0  0  0  0  0  0  0  0  0  0
    0.0056    2.1187    1.3202 C   0  0  0  0  0  0  0  0  0  0  0  0
   -0.0971    0.7467    1.0668 C   0  0  0  0  0  0  0  0  0  0  0  0
   -1.2436   -0.0032    0.7328 C   0  0  0  0  0  0  0  0  0  0  0  0
   -2.5847    0.5951    0.6614 C   0  0  0  0  0  0  0  0  0  0  0  0
   -3.3142    1.0770    1.7418 C   0  0  0  0  0  0  0  0  0  0  0  0
   -4.5658    1.5787    1.3708 C   0  0  0  0  0  0  0  0  0  0  0  0
   -5.4328    2.1251    2.2584 F   0  0  0  0  0  0  0  0  0  0  0  0
   -4.8290    1.4721    0.0094 C   0  0  0  0  0  0  0  0  0  0  0  0
   -6.0460    1.9841   -0.6958 C   0  0  0  0  0  0  0  0  0  0  0  0
   -5.8718    3.4510   -1.0715 C   0  0  0  0  0  0  0  0  0  0  0  0
   -3.4936    0.7772   -0.7440 S   0  0  0  0  0  0  0  0  0  0  0  0
   -1.0553   -1.3730    0.4842 C   0  0  0  0  0  0  0  0  0  0  0  0
   -2.2407   -2.5185    0.0413 S   0  0  0  0  0  0  0  0  0  0  0  0
   -1.1354   -3.7807   -0.0463 C   0  0  0  0  0  0  0  0  0  0  0  0
   -1.2459   -5.1237   -0.3890 C   0  0  0  0  0  0  0  0  0  0  0  0
    0.0012   -5.7546   -0.3451 C   0  0  0  0  0  0  0  0  0  0  0  0
    1.1946   -4.6277    0.1107 S   0  0  0  0  0  0  0  0  0  0  0  0
    0.1189   -3.3466    0.2613 C   0  0  0  0  0  0  0  0  0  0  0  0
    0.2104   -1.9875    0.5803 C   0  0  0  0  0  0  0  0  0  0  0  0
    3.0523   -2.7478    2.0832 C   0  0  0  0  0  0  0  0  0  0  0  0
    4.3859   -3.1553    1.9781 C   0  0  0  0  0  0  0  0  0  0  0  0
    4.9535   -4.0451    2.8292 F   0  0  0  0  0  0  0  0  0  0  0  0
    7.5779   -4.2679   -0.7187 H   0  0  0  0  0  0  0  0  0  0  0  0
    6.1277   -4.9695    0.0951 H   0  0  0  0  0  0  0  0  0  0  0  0
    5.9278   -3.8791   -1.3383 H   0  0  0  0  0  0  0  0  0  0  0  0
    7.0967   -3.0580    1.4052 H   0  0  0  0  0  0  0  0  0  0  0  0
    6.8989   -1.9775   -0.0192 H   0  0  0  0  0  0  0  0  0  0  0  0
    2.3222    4.4157    2.0890 H   0  0  0  0  0  0  0  0  0  0  0  0
   -0.0019    5.6295    1.8464 H   0  0  0  0  0  0  0  0  0  0  0  0
   -2.9497    1.0747    2.7608 H   0  0  0  0  0  0  0  0  0  0  0  0
   -6.2196    1.3860   -1.6158 H   0  0  0  0  0  0  0  0  0  0  0  0
   -6.9351    1.8724   -0.0388 H   0  0  0  0  0  0  0  0  0  0  0  0
   -5.7199    4.0673   -0.1595 H   0  0  0  0  0  0  0  0  0  0  0  0
   -6.7817    3.8108   -1.5963 H   0  0  0  0  0  0  0  0  0  0  0  0
   -4.9985    3.5749   -1.7472 H   0  0  0  0  0  0  0  0  0  0  0  0
   -2.1709   -5.6127   -0.6633 H   0  0  0  0  0  0  0  0  0  0  0  0
    0.1795   -6.7963   -0.5743 H   0  0  0  0  0  0  0  0  0  0  0  0
    2.3794   -3.0992    2.8546 H   0  0  0  0  0  0  0  0  0  0  0  0
  1  2  1  0
  2  3  1  0
  3  4  1  0
  4  5  1  0
  5  6  1  0
  6  7  2  0
  7  8  1  0
  8  9  1  0
  9 10  1  0
 10 11  2  0
 11 12  1  0
 12 13  1  0
 13 14  1  0
 14 15  2  0
 15 16  1  0
 16 17  2  0
 17 18  1  0
 18 19  1  0
 18 20  2  0
 20 21  1  0
 21 22  1  0
 20 23  1  0
 15 24  1  0
 24 25  1  0
 25 26  1  0
 26 27  1  0
 27 28  2  0
 28 29  1  0
 29 30  1  0
 30 31  1  0
  5 32  2  0
 32 33  1  0
 33 34  1  0
 33  3  2  0
 31  6  1  0
 14  7  1  0
 23 16  1  0
 31 24  2  0
 13  9  2  0
 30 26  2  0
  1 35  1  0
  1 36  1  0
  1 37  1  0
  2 38  1  0
  2 39  1  0
 10 40  1  0
 11 41  1  0
 17 42  1  0
 21 43  1  0
 21 44  1  0
 22 45  1  0
 22 46  1  0
 22 47  1  0
 27 48  1  0
 28 49  1  0
 32 50  1  0
M  END

