
     RDKit          3D

 47 51  0  0  0  0  0  0  0  0999 V2000
    4.7554   -5.6594    2.1181 C   0  0  0  0  0  0  0  0  0  0  0  0
    4.6779   -4.9295    3.4594 C   0  0  0  0  0  0  0  0  0  0  0  0
    3.2642   -4.9431    4.0553 C   0  0  0  0  0  0  0  0  0  0  0  0
    2.2910   -4.1827    3.2039 C   0  0  0  0  0  0  0  0  0  0  0  0
    2.2216   -2.5062    3.0692 S   0  0  0  0  0  0  0  0  0  0  0  0
    0.9950   -2.4723    1.9111 C   0  0  0  0  0  0  0  0  0  0  0  0
    0.3923   -1.2531    1.3332 C   0  0  0  0  0  0  0  0  0  0  0  0
    1.1727   -0.2105    0.7826 C   0  0  0  0  0  0  0  0  0  0  0  0
    2.5691   -0.1999    0.6238 C   0  0  0  0  0  0  0  0  0  0  0  0
    3.0455    0.9566    0.0130 C   0  0  0  0  0  0  0  0  0  0  0  0
    1.7432    1.9617   -0.3520 S   0  0  0  0  0  0  0  0  0  0  0  0
    0.5602    0.9402    0.2725 C   0  0  0  0  0  0  0  0  0  0  0  0
   -0.8327    1.1199    0.2602 C   0  0  0  0  0  0  0  0  0  0  0  0
   -1.4411    2.3251   -0.3293 C   0  0  0  0  0  0  0  0  0  0  0  0
   -1.2228    3.6340    0.0872 C   0  0  0  0  0  0  0  0  0  0  0  0
   -1.9383    4.5719   -0.6657 C   0  0  0  0  0  0  0  0  0  0  0  0
   -1.8926    5.9041   -0.4170 F   0  0  0  0  0  0  0  0  0  0  0  0
   -2.6993    4.0076   -1.6854 C   0  0  0  0  0  0  0  0  0  0  0  0
   -3.5966    4.7417   -2.6346 C   0  0  0  0  0  0  0  0  0  0  0  0
   -5.0615    4.5606   -2.2490 C   0  0  0  0  0  0  0  0  0  0  0  0
   -2.5049    2.3355   -1.6356 S   0  0  0  0  0  0  0  0  0  0  0  0
   -1.6127    0.0789    0.8030 C   0  0  0  0  0  0  0  0  0  0  0  0
   -3.0122    0.0693    0.9378 C   0  0  0  0  0  0  0  0  0  0  0  0
   -3.4993   -1.0835    1.5465 C   0  0  0  0  0  0  0  0  0  0  0  0
   -2.2010   -2.0840    1.9351 S   0  0  0  0  0  0  0  0  0  0  0  0
   -1.0045   -1.0697    1.3193 C   0  0  0  0  0  0  0  0  0  0  0  0
    0.6248   -3.7822    1.6176 C   0  0  0  0  0  0  0  0  0  0  0  0
    1.3539   -4.7339    2.3371 C   0  0  0  0  0  0  0  0  0  0  0  0
    1.1714   -6.0693    2.1858 F   0  0  0  0  0  0  0  0  0  0  0  0
    4.1637   -5.1204    1.3483 H   0  0  0  0  0  0  0  0  0  0  0  0
    5.8128   -5.7028    1.7776 H   0  0  0  0  0  0  0  0  0  0  0  0
    4.3739   -6.6983    2.2165 H   0  0  0  0  0  0  0  0  0  0  0  0
    5.3678   -5.4301    4.1728 H   0  0  0  0  0  0  0  0  0  0  0  0
    5.0254   -3.8811    3.3313 H   0  0  0  0  0  0  0  0  0  0  0  0
    2.9203   -5.9918    4.1933 H   0  0  0  0  0  0  0  0  0  0  0  0
    3.2945   -4.4709    5.0598 H   0  0  0  0  0  0  0  0  0  0  0  0
    3.2246   -1.0082    0.9152 H   0  0  0  0  0  0  0  0  0  0  0  0
    4.0821    1.1657   -0.2099 H   0  0  0  0  0  0  0  0  0  0  0  0
   -0.5822    3.8995    0.9201 H   0  0  0  0  0  0  0  0  0  0  0  0
   -3.3474    5.8245   -2.6380 H   0  0  0  0  0  0  0  0  0  0  0  0
   -3.4350    4.3484   -3.6614 H   0  0  0  0  0  0  0  0  0  0  0  0
   -5.2437    4.9448   -1.2235 H   0  0  0  0  0  0  0  0  0  0  0  0
   -5.3397    3.4874   -2.2958 H   0  0  0  0  0  0  0  0  0  0  0  0
   -5.7055    5.1229   -2.9575 H   0  0  0  0  0  0  0  0  0  0  0  0
   -3.6603    0.8750    0.6195 H   0  0  0  0  0  0  0  0  0  0  0  0
   -4.5407   -1.2939    1.7534 H   0  0  0  0  0  0  0  0  0  0  0  0
   -0.1390   -4.0426    0.8967 H   0  0  0  0  0  0  0  0  0  0  0  0
  1  2  1  0
  2  3  1  0
  3  4  1  0
  4  5  1  0
  5  6  1  0
  6  7  1  0
  7  8  2  0
  8  9  1  0
  9 10  2  0
 10 11  1  0
 11 12  1  0
 12 13  2  0
 13 14  1  0
 14 15  2  0
 15 16  1  0
 16 17  1  0
 16 18  2  0
 18 19  1  0
 19 20  1  0
 18 21  1  0
 13 22  1  0
 22 23  1  0
 23 24  2  0
 24 25  1  0
 25 26  1  0
  6 27  2  0
 27 28  1  0
 28 29  1  0
 28  4  2  0
 26  7  1  0
 12  8  1  0
 21 14  1  0
 26 22  2  0
  1 30  1  0
  1 31  1  0
  1 32  1  0
  2 33  1  0
  2 34  1  0
  3 35  1  0
  3 36  1  0
  9 37  1  0
 10 38  1  0
 15 39  1  0
 19 40  1  0
 19 41  1  0
 20 42  1  0
 20 43  1  0
 20 44  1  0
 23 45  1  0
 24 46  1  0
 27 47  1  0
M  END

