
     RDKit          3D

 98108  0  0  0  0  0  0  0  0999 V2000
    0.5094    5.8204    5.0874 C   0  0  0  0  0  0  0  0  0  0  0  0
    1.8257    5.3988    4.4367 C   0  0  0  0  0  0  0  0  0  0  0  0
    1.7353    3.9870    3.9209 C   0  0  0  0  0  0  0  0  0  0  0  0
    1.3432    3.7349    2.5991 C   0  0  0  0  0  0  0  0  0  0  0  0
    1.2234    2.4237    2.1316 C   0  0  0  0  0  0  0  0  0  0  0  0
    1.5032    1.3248    2.9754 C   0  0  0  0  0  0  0  0  0  0  0  0
    1.4149   -0.1339    2.4973 C   0  0  0  0  0  0  0  0  0  0  0  0
    2.7716   -0.8388    2.4323 C   0  0  0  0  0  0  0  0  0  0  0  0
    2.8304   -2.2456    2.3377 C   0  0  0  0  0  0  0  0  0  0  0  0
    4.0577   -2.9065    2.2553 C   0  0  0  0  0  0  0  0  0  0  0  0
    5.2557   -2.1767    2.2457 C   0  0  0  0  0  0  0  0  0  0  0  0
    6.5794   -2.8907    2.1660 C   0  0  0  0  0  0  0  0  0  0  0  0
    7.1122   -2.9035    0.7382 C   0  0  0  0  0  0  0  0  0  0  0  0
    5.2090   -0.7749    2.2844 C   0  0  0  0  0  0  0  0  0  0  0  0
    3.9816   -0.1112    2.3641 C   0  0  0  0  0  0  0  0  0  0  0  0
    0.6880   -0.2861    1.1594 C   0  0  0  0  0  0  0  0  0  0  0  0
    1.1796    0.0076   -0.1246 C   0  0  0  0  0  0  0  0  0  0  0  0
    0.3257   -0.2434   -1.2025 C   0  0  0  0  0  0  0  0  0  0  0  0
   -0.9559   -0.7867   -1.0424 C   0  0  0  0  0  0  0  0  0  0  0  0
   -1.4255   -1.1303    0.2353 C   0  0  0  0  0  0  0  0  0  0  0  0
   -0.5767   -0.8633    1.3136 C   0  0  0  0  0  0  0  0  0  0  0  0
   -0.7328   -1.1999    2.7005 C   0  0  0  0  0  0  0  0  0  0  0  0
   -1.6306   -2.4039    3.4949 S   0  0  0  0  0  0  0  0  0  0  0  0
   -0.5379   -2.4307    4.7904 C   0  0  0  0  0  0  0  0  0  0  0  0
   -0.3944   -3.2766    5.8868 C   0  0  0  0  0  0  0  0  0  0  0  0
    0.8287   -3.0585    6.5320 C   0  0  0  0  0  0  0  0  0  0  0  0
    1.7089   -1.8526    5.7104 S   0  0  0  0  0  0  0  0  0  0  0  0
    0.5095   -1.5812    4.5693 C   0  0  0  0  0  0  0  0  0  0  0  0
    0.4159   -0.8702    3.3759 C   0  0  0  0  0  0  0  0  0  0  0  0
   -1.7012   -0.9031   -2.3744 C   0  0  0  0  0  0  0  0  0  0  0  0
   -2.9069    0.0402   -2.4724 C   0  0  0  0  0  0  0  0  0  0  0  0
   -3.8822   -0.1581   -3.4724 C   0  0  0  0  0  0  0  0  0  0  0  0
   -4.9552    0.7265   -3.6185 C   0  0  0  0  0  0  0  0  0  0  0  0
   -5.0683    1.8420   -2.7787 C   0  0  0  0  0  0  0  0  0  0  0  0
   -6.1940    2.8218   -2.9735 C   0  0  0  0  0  0  0  0  0  0  0  0
   -5.8178    3.8771   -4.0083 C   0  0  0  0  0  0  0  0  0  0  0  0
   -4.0814    2.0778   -1.8101 C   0  0  0  0  0  0  0  0  0  0  0  0
   -3.0101    1.1931   -1.6616 C   0  0  0  0  0  0  0  0  0  0  0  0
   -2.0483   -2.3783   -2.6235 C   0  0  0  0  0  0  0  0  0  0  0  0
   -1.1791   -3.2404   -3.3282 C   0  0  0  0  0  0  0  0  0  0  0  0
   -1.5000   -4.5889   -3.5075 C   0  0  0  0  0  0  0  0  0  0  0  0
   -2.6707   -5.1206   -2.9486 C   0  0  0  0  0  0  0  0  0  0  0  0
   -3.0180   -6.5737   -3.1556 C   0  0  0  0  0  0  0  0  0  0  0  0
   -3.8703   -6.7512   -4.4107 C   0  0  0  0  0  0  0  0  0  0  0  0
   -3.5265   -4.2860   -2.2157 C   0  0  0  0  0  0  0  0  0  0  0  0
   -3.2122   -2.9345   -2.0484 C   0  0  0  0  0  0  0  0  0  0  0  0
   -0.6176   -0.3724   -3.2839 C   0  0  0  0  0  0  0  0  0  0  0  0
    0.5063    0.0020   -2.6067 C   0  0  0  0  0  0  0  0  0  0  0  0
    1.7048    0.6596   -3.6187 S   0  0  0  0  0  0  0  0  0  0  0  0
    0.7141    0.4300   -4.9806 C   0  0  0  0  0  0  0  0  0  0  0  0
    0.8753    0.6921   -6.3364 C   0  0  0  0  0  0  0  0  0  0  0  0
   -0.2620    0.3091   -7.0591 C   0  0  0  0  0  0  0  0  0  0  0  0
   -1.4364   -0.3342   -5.9999 S   0  0  0  0  0  0  0  0  0  0  0  0
   -0.4860   -0.1250   -4.6393 C   0  0  0  0  0  0  0  0  0  0  0  0
    1.9136    1.5984    4.2980 C   0  0  0  0  0  0  0  0  0  0  0  0
    2.0105    2.9068    4.7682 C   0  0  0  0  0  0  0  0  0  0  0  0
    0.3001    5.1844    5.9740 H   0  0  0  0  0  0  0  0  0  0  0  0
    0.5808    6.8816    5.4154 H   0  0  0  0  0  0  0  0  0  0  0  0
   -0.3276    5.7294    4.3625 H   0  0  0  0  0  0  0  0  0  0  0  0
    2.0666    6.0959    3.6036 H   0  0  0  0  0  0  0  0  0  0  0  0
    2.6474    5.4771    5.1833 H   0  0  0  0  0  0  0  0  0  0  0  0
    1.1330    4.5544    1.9263 H   0  0  0  0  0  0  0  0  0  0  0  0
    0.9071    2.2913    1.1073 H   0  0  0  0  0  0  0  0  0  0  0  0
    1.9205   -2.8381    2.3376 H   0  0  0  0  0  0  0  0  0  0  0  0
    4.0744   -3.9900    2.1959 H   0  0  0  0  0  0  0  0  0  0  0  0
    7.3187   -2.3947    2.8357 H   0  0  0  0  0  0  0  0  0  0  0  0
    6.4710   -3.9397    2.5196 H   0  0  0  0  0  0  0  0  0  0  0  0
    8.0736   -3.4607    0.7051 H   0  0  0  0  0  0  0  0  0  0  0  0
    6.3892   -3.4059    0.0623 H   0  0  0  0  0  0  0  0  0  0  0  0
    7.2917   -1.8646    0.3860 H   0  0  0  0  0  0  0  0  0  0  0  0
    6.1257   -0.1970    2.2451 H   0  0  0  0  0  0  0  0  0  0  0  0
    3.9860    0.9715    2.3665 H   0  0  0  0  0  0  0  0  0  0  0  0
    2.1672    0.4240   -0.2721 H   0  0  0  0  0  0  0  0  0  0  0  0
   -2.4000   -1.5757    0.3829 H   0  0  0  0  0  0  0  0  0  0  0  0
   -1.1026   -4.0469    6.1644 H   0  0  0  0  0  0  0  0  0  0  0  0
    1.1848   -3.6079    7.3931 H   0  0  0  0  0  0  0  0  0  0  0  0
   -3.8095   -0.9981   -4.1495 H   0  0  0  0  0  0  0  0  0  0  0  0
   -5.6946    0.5462   -4.3931 H   0  0  0  0  0  0  0  0  0  0  0  0
   -7.1108    2.2882   -3.3081 H   0  0  0  0  0  0  0  0  0  0  0  0
   -6.4412    3.3233   -2.0125 H   0  0  0  0  0  0  0  0  0  0  0  0
   -4.9338    4.4577   -3.6642 H   0  0  0  0  0  0  0  0  0  0  0  0
   -6.6689    4.5773   -4.1569 H   0  0  0  0  0  0  0  0  0  0  0  0
   -5.5828    3.3914   -4.9810 H   0  0  0  0  0  0  0  0  0  0  0  0
   -4.1356    2.9586   -1.1800 H   0  0  0  0  0  0  0  0  0  0  0  0
   -2.2571    1.4281   -0.9206 H   0  0  0  0  0  0  0  0  0  0  0  0
   -0.2497   -2.8811   -3.7486 H   0  0  0  0  0  0  0  0  0  0  0  0
   -0.8260   -5.2241   -4.0720 H   0  0  0  0  0  0  0  0  0  0  0  0
   -3.5755   -6.9633   -2.2740 H   0  0  0  0  0  0  0  0  0  0  0  0
   -2.0900   -7.1817   -3.2574 H   0  0  0  0  0  0  0  0  0  0  0  0
   -4.1114   -7.8270   -4.5510 H   0  0  0  0  0  0  0  0  0  0  0  0
   -3.3176   -6.3938   -5.3083 H   0  0  0  0  0  0  0  0  0  0  0  0
   -4.8245   -6.1841   -4.3135 H   0  0  0  0  0  0  0  0  0  0  0  0
   -4.4402   -4.6784   -1.7791 H   0  0  0  0  0  0  0  0  0  0  0  0
   -3.8863   -2.3205   -1.4677 H   0  0  0  0  0  0  0  0  0  0  0  0
    1.7601    1.1350   -6.7742 H   0  0  0  0  0  0  0  0  0  0  0  0
   -0.3809    0.4178   -8.1293 H   0  0  0  0  0  0  0  0  0  0  0  0
    2.1613    0.7965    4.9711 H   0  0  0  0  0  0  0  0  0  0  0  0
    2.3126    3.0775    5.7964 H   0  0  0  0  0  0  0  0  0  0  0  0
  1  2  1  0
  2  3  1  0
  3  4  2  0
  4  5  1  0
  5  6  2  0
  6  7  1  0
  7  8  1  0
  8  9  2  0
  9 10  1  0
 10 11  2  0
 11 12  1  0
 12 13  1  0
 11 14  1  0
 14 15  2  0
  7 16  1  0
 16 17  2  0
 17 18  1  0
 18 19  2  0
 19 20  1  0
 20 21  2  0
 21 22  1  0
 22 23  1  0
 23 24  1  0
 24 25  1  0
 25 26  2  0
 26 27  1  0
 27 28  1  0
 28 29  1  0
 19 30  1  0
 30 31  1  0
 31 32  2  0
 32 33  1  0
 33 34  2  0
 34 35  1  0
 35 36  1  0
 34 37  1  0
 37 38  2  0
 30 39  1  0
 39 40  2  0
 40 41  1  0
 41 42  2  0
 42 43  1  0
 43 44  1  0
 42 45  1  0
 45 46  2  0
 30 47  1  0
 47 48  2  0
 48 49  1  0
 49 50  1  0
 50 51  1  0
 51 52  2  0
 52 53  1  0
 53 54  1  0
  6 55  1  0
 55 56  2  0
 56  3  1  0
 29  7  1  0
 38 31  1  0
 46 39  1  0
 54 47  1  0
 15  8  1  0
 21 16  1  0
 29 22  2  0
 54 50  2  0
 48 18  1  0
 28 24  2  0
  1 57  1  0
  1 58  1  0
  1 59  1  0
  2 60  1  0
  2 61  1  0
  4 62  1  0
  5 63  1  0
  9 64  1  0
 10 65  1  0
 12 66  1  0
 12 67  1  0
 13 68  1  0
 13 69  1  0
 13 70  1  0
 14 71  1  0
 15 72  1  0
 17 73  1  0
 20 74  1  0
 25 75  1  0
 26 76  1  0
 32 77  1  0
 33 78  1  0
 35 79  1  0
 35 80  1  0
 36 81  1  0
 36 82  1  0
 36 83  1  0
 37 84  1  0
 38 85  1  0
 40 86  1  0
 41 87  1  0
 43 88  1  0
 43 89  1  0
 44 90  1  0
 44 91  1  0
 44 92  1  0
 45 93  1  0
 46 94  1  0
 51 95  1  0
 52 96  1  0
 55 97  1  0
 56 98  1  0
M  END

