
     RDKit          3D

 60 65  0  0  0  0  0  0  0  0999 V2000
    7.9543   -1.6221    1.7195 C   0  0  0  0  0  0  0  0  0  0  0  0
    7.2788   -2.3675    0.5727 C   0  0  0  0  0  0  0  0  0  0  0  0
    6.0268   -1.7650    0.2507 O   0  0  0  0  0  0  0  0  0  0  0  0
    5.9075   -0.5672   -0.4646 C   0  0  0  0  0  0  0  0  0  0  0  0
    6.9318    0.0023   -0.9329 O   0  0  0  0  0  0  0  0  0  0  0  0
    4.5767    0.0274   -0.6717 C   0  0  0  0  0  0  0  0  0  0  0  0
    4.3679    1.2116   -1.3760 C   0  0  0  0  0  0  0  0  0  0  0  0
    2.7214    1.5485   -1.3634 S   0  0  0  0  0  0  0  0  0  0  0  0
    2.2570    0.2000   -0.4691 C   0  0  0  0  0  0  0  0  0  0  0  0
    0.8794   -0.1251   -0.0667 C   0  0  0  0  0  0  0  0  0  0  0  0
   -0.2471    0.6521   -0.3305 C   0  0  0  0  0  0  0  0  0  0  0  0
   -1.4321    0.0978    0.1842 C   0  0  0  0  0  0  0  0  0  0  0  0
   -2.7280    0.6464    0.0791 C   0  0  0  0  0  0  0  0  0  0  0  0
   -2.9952    1.8952   -0.6615 C   0  0  0  0  0  0  0  0  0  0  0  0
   -3.6504    3.0156   -0.1582 C   0  0  0  0  0  0  0  0  0  0  0  0
   -3.7823    4.0463   -1.0954 C   0  0  0  0  0  0  0  0  0  0  0  0
   -3.2516    3.7267   -2.3401 C   0  0  0  0  0  0  0  0  0  0  0  0
   -3.1866    4.6395   -3.5233 C   0  0  0  0  0  0  0  0  0  0  0  0
   -1.8551    5.3882   -3.5542 C   0  0  0  0  0  0  0  0  0  0  0  0
   -2.5977    2.1781   -2.2736 S   0  0  0  0  0  0  0  0  0  0  0  0
   -3.7676   -0.0634    0.7065 C   0  0  0  0  0  0  0  0  0  0  0  0
   -5.4054    0.3207    0.7658 S   0  0  0  0  0  0  0  0  0  0  0  0
   -5.8660   -1.0170    1.6807 C   0  0  0  0  0  0  0  0  0  0  0  0
   -4.7404   -1.7898    1.9477 C   0  0  0  0  0  0  0  0  0  0  0  0
   -3.5601   -1.2670    1.3895 C   0  0  0  0  0  0  0  0  0  0  0  0
   -2.2665   -1.8241    1.4828 C   0  0  0  0  0  0  0  0  0  0  0  0
   -2.0121   -3.1076    2.1685 C   0  0  0  0  0  0  0  0  0  0  0  0
   -1.0645   -3.3279    3.1633 C   0  0  0  0  0  0  0  0  0  0  0  0
   -1.0130   -4.6580    3.5956 C   0  0  0  0  0  0  0  0  0  0  0  0
   -1.9260   -5.4807    2.9461 C   0  0  0  0  0  0  0  0  0  0  0  0
   -2.0550   -6.9594    3.1306 C   0  0  0  0  0  0  0  0  0  0  0  0
   -1.0734   -7.7013    2.2283 C   0  0  0  0  0  0  0  0  0  0  0  0
   -2.7729   -4.5687    1.8149 S   0  0  0  0  0  0  0  0  0  0  0  0
   -1.2222   -1.1034    0.8733 C   0  0  0  0  0  0  0  0  0  0  0  0
    0.4157   -1.4905    0.8105 S   0  0  0  0  0  0  0  0  0  0  0  0
    3.3949   -0.5393   -0.1653 C   0  0  0  0  0  0  0  0  0  0  0  0
    8.9051   -2.1301    1.9862 H   0  0  0  0  0  0  0  0  0  0  0  0
    7.2892   -1.6155    2.6095 H   0  0  0  0  0  0  0  0  0  0  0  0
    8.1772   -0.5753    1.4234 H   0  0  0  0  0  0  0  0  0  0  0  0
    7.9417   -2.3876   -0.3204 H   0  0  0  0  0  0  0  0  0  0  0  0
    7.0952   -3.4173    0.8886 H   0  0  0  0  0  0  0  0  0  0  0  0
    5.1304    1.8181   -1.8475 H   0  0  0  0  0  0  0  0  0  0  0  0
   -0.2003    1.5919   -0.8629 H   0  0  0  0  0  0  0  0  0  0  0  0
   -4.0053    3.0944    0.8606 H   0  0  0  0  0  0  0  0  0  0  0  0
   -4.2473    4.9966   -0.8688 H   0  0  0  0  0  0  0  0  0  0  0  0
   -4.0239    5.3726   -3.4770 H   0  0  0  0  0  0  0  0  0  0  0  0
   -3.2987    4.0424   -4.4573 H   0  0  0  0  0  0  0  0  0  0  0  0
   -1.0103    4.6704   -3.6519 H   0  0  0  0  0  0  0  0  0  0  0  0
   -1.7244    5.9882   -2.6260 H   0  0  0  0  0  0  0  0  0  0  0  0
   -1.8375    6.0748   -4.4263 H   0  0  0  0  0  0  0  0  0  0  0  0
   -6.8711   -1.2377    2.0126 H   0  0  0  0  0  0  0  0  0  0  0  0
   -4.7888   -2.6936    2.5387 H   0  0  0  0  0  0  0  0  0  0  0  0
   -0.4241   -2.5521    3.5621 H   0  0  0  0  0  0  0  0  0  0  0  0
   -0.3231   -5.0100    4.3514 H   0  0  0  0  0  0  0  0  0  0  0  0
   -3.0926   -7.2741    2.8856 H   0  0  0  0  0  0  0  0  0  0  0  0
   -1.8551   -7.2220    4.1924 H   0  0  0  0  0  0  0  0  0  0  0  0
   -1.2886   -7.4776    1.1609 H   0  0  0  0  0  0  0  0  0  0  0  0
   -0.0291   -7.4032    2.4666 H   0  0  0  0  0  0  0  0  0  0  0  0
   -1.1753   -8.7942    2.3892 H   0  0  0  0  0  0  0  0  0  0  0  0
    3.3726   -1.4557    0.4110 H   0  0  0  0  0  0  0  0  0  0  0  0
  1  2  1  0
  2  3  1  0
  3  4  1  0
  4  5  2  0
  4  6  1  0
  6  7  2  0
  7  8  1  0
  8  9  1  0
  9 10  1  0
 10 11  2  0
 11 12  1  0
 12 13  2  0
 13 14  1  0
 14 15  2  0
 15 16  1  0
 16 17  2  0
 17 18  1  0
 18 19  1  0
 17 20  1  0
 13 21  1  0
 21 22  1  0
 22 23  1  0
 23 24  2  0
 24 25  1  0
 25 26  1  0
 26 27  1  0
 27 28  2  0
 28 29  1  0
 29 30  2  0
 30 31  1  0
 31 32  1  0
 30 33  1  0
 26 34  2  0
 34 35  1  0
  9 36  2  0
 36  6  1  0
 35 10  1  0
 34 12  1  0
 20 14  1  0
 25 21  2  0
 33 27  1  0
  1 37  1  0
  1 38  1  0
  1 39  1  0
  2 40  1  0
  2 41  1  0
  7 42  1  0
 11 43  1  0
 15 44  1  0
 16 45  1  0
 18 46  1  0
 18 47  1  0
 19 48  1  0
 19 49  1  0
 19 50  1  0
 23 51  1  0
 24 52  1  0
 28 53  1  0
 29 54  1  0
 31 55  1  0
 31 56  1  0
 32 57  1  0
 32 58  1  0
 32 59  1  0
 36 60  1  0
M  END

