
     RDKit          3D

 12 12  0  0  0  0  0  0  0  0999 V2000
    1.3199   -1.8871    3.1280 O   0  0  0  0  0  0  0  0  0  0  0  0
    0.6286   -1.4273    2.1797 C   0  0  0  0  0  0  0  0  0  0  0  0
   -0.7590   -1.5265    2.2279 O   0  0  0  0  0  0  0  0  0  0  0  0
    1.2830   -0.7882    1.0261 C   0  0  0  0  0  0  0  0  0  0  0  0
    2.6760   -0.6494    0.9027 C   0  0  0  0  0  0  0  0  0  0  0  0
    3.0698   -0.0156   -0.2674 C   0  0  0  0  0  0  0  0  0  0  0  0
    1.6886    0.3693   -1.1428 S   0  0  0  0  0  0  0  0  0  0  0  0
    0.5773   -0.2614   -0.0516 C   0  0  0  0  0  0  0  0  0  0  0  0
   -1.2219   -1.9638    3.0158 H   0  0  0  0  0  0  0  0  0  0  0  0
    3.3826   -0.9999    1.6438 H   0  0  0  0  0  0  0  0  0  0  0  0
    4.0894    0.1930   -0.5619 H   0  0  0  0  0  0  0  0  0  0  0  0
   -0.4981   -0.2558   -0.1717 H   0  0  0  0  0  0  0  0  0  0  0  0
  1  2  2  0
  2  3  1  0
  2  4  1  0
  4  5  1  0
  5  6  2  0
  6  7  1  0
  7  8  1  0
  8  4  2  0
  3  9  1  0
  5 10  1  0
  6 11  1  0
  8 12  1  0
M  END

