
     RDKit          3D

 74 78  0  0  0  0  0  0  0  0999 V2000
    7.0425    0.8833    6.5215 C   0  0  0  0  0  0  0  0  0  0  0  0
    6.4424    1.0628    5.1318 C   0  0  0  0  0  0  0  0  0  0  0  0
    5.4392   -0.4362    4.5943 Si  0  0  0  0  0  4  0  0  0  0  0  0
    4.2353   -0.8808    5.9791 C   0  0  0  0  0  0  0  0  0  0  0  0
    3.5713   -2.2372    5.7743 C   0  0  0  0  0  0  0  0  0  0  0  0
    6.6312   -1.8502    4.2537 C   0  0  0  0  0  0  0  0  0  0  0  0
    6.0859   -2.8256    3.2150 C   0  0  0  0  0  0  0  0  0  0  0  0
    4.5131    0.0130    3.0505 C   0  0  0  0  0  0  0  0  0  0  0  0
    2.8722   -0.2622    2.8182 S   0  0  0  0  0  0  0  0  0  0  0  0
    2.7895    0.3266    1.2454 C   0  0  0  0  0  0  0  0  0  0  0  0
    1.5861    0.2958    0.3841 C   0  0  0  0  0  0  0  0  0  0  0  0
    0.3147    0.7013    0.8532 C   0  0  0  0  0  0  0  0  0  0  0  0
    0.0235    1.2864    2.1000 C   0  0  0  0  0  0  0  0  0  0  0  0
   -1.3250    1.5849    2.2679 C   0  0  0  0  0  0  0  0  0  0  0  0
   -2.1614    1.1520    0.8730 S   0  0  0  0  0  0  0  0  0  0  0  0
   -0.8188    0.5702    0.0429 C   0  0  0  0  0  0  0  0  0  0  0  0
   -0.7620    0.0694   -1.2670 C   0  0  0  0  0  0  0  0  0  0  0  0
   -1.9744   -0.0319   -2.0979 C   0  0  0  0  0  0  0  0  0  0  0  0
   -2.1712    0.5954   -3.3204 C   0  0  0  0  0  0  0  0  0  0  0  0
   -3.4061    0.2891   -3.9037 C   0  0  0  0  0  0  0  0  0  0  0  0
   -3.8913    0.9602   -5.4525 Cl  0  0  0  0  0  0  0  0  0  0  0  0
   -4.1774   -0.5902   -3.1432 C   0  0  0  0  0  0  0  0  0  0  0  0
   -5.8169   -1.3154   -3.5994 Si  0  0  0  0  0  4  0  0  0  0  0  0
   -6.3691   -2.4904   -2.2380 C   0  0  0  0  0  0  0  0  0  0  0  0
   -7.7580   -3.0564   -2.5028 C   0  0  0  0  0  0  0  0  0  0  0  0
   -7.0678    0.0719   -3.8163 C   0  0  0  0  0  0  0  0  0  0  0  0
   -7.2579    0.8625   -2.5268 C   0  0  0  0  0  0  0  0  0  0  0  0
   -5.5787   -2.2919   -5.1914 C   0  0  0  0  0  0  0  0  0  0  0  0
   -6.7773   -2.1899   -6.1249 C   0  0  0  0  0  0  0  0  0  0  0  0
   -3.3249   -0.9712   -1.7443 S   0  0  0  0  0  0  0  0  0  0  0  0
    0.5062   -0.3152   -1.7469 C   0  0  0  0  0  0  0  0  0  0  0  0
    0.7800   -0.8804   -3.0058 C   0  0  0  0  0  0  0  0  0  0  0  0
    2.1189   -1.2139   -3.1803 C   0  0  0  0  0  0  0  0  0  0  0  0
    2.9634   -0.8207   -1.7754 S   0  0  0  0  0  0  0  0  0  0  0  0
    1.6397   -0.2037   -0.9338 C   0  0  0  0  0  0  0  0  0  0  0  0
    4.0667    0.7346    0.8693 C   0  0  0  0  0  0  0  0  0  0  0  0
    5.0292    0.5526    1.8728 C   0  0  0  0  0  0  0  0  0  0  0  0
    6.7240    0.9264    1.6085 Cl  0  0  0  0  0  0  0  0  0  0  0  0
    7.5697   -0.0938    6.6044 H   0  0  0  0  0  0  0  0  0  0  0  0
    6.2468    0.9421    7.2950 H   0  0  0  0  0  0  0  0  0  0  0  0
    7.7720    1.6981    6.7195 H   0  0  0  0  0  0  0  0  0  0  0  0
    5.7873    1.9620    5.1220 H   0  0  0  0  0  0  0  0  0  0  0  0
    7.2662    1.2170    4.4039 H   0  0  0  0  0  0  0  0  0  0  0  0
    4.7869   -0.9038    6.9418 H   0  0  0  0  0  0  0  0  0  0  0  0
    3.4570   -0.0901    6.0386 H   0  0  0  0  0  0  0  0  0  0  0  0
    4.3280   -3.0481    5.8125 H   0  0  0  0  0  0  0  0  0  0  0  0
    2.8318   -2.4096    6.5849 H   0  0  0  0  0  0  0  0  0  0  0  0
    3.0368   -2.2771    4.8053 H   0  0  0  0  0  0  0  0  0  0  0  0
    6.8298   -2.3861    5.2067 H   0  0  0  0  0  0  0  0  0  0  0  0
    7.5893   -1.4292    3.8790 H   0  0  0  0  0  0  0  0  0  0  0  0
    6.8138   -3.6482    3.0644 H   0  0  0  0  0  0  0  0  0  0  0  0
    5.9390   -2.3126    2.2413 H   0  0  0  0  0  0  0  0  0  0  0  0
    5.1213   -3.2624    3.5467 H   0  0  0  0  0  0  0  0  0  0  0  0
    0.7587    1.5192    2.8557 H   0  0  0  0  0  0  0  0  0  0  0  0
   -1.7620    2.0374    3.1487 H   0  0  0  0  0  0  0  0  0  0  0  0
   -1.4450    1.2551   -3.7769 H   0  0  0  0  0  0  0  0  0  0  0  0
   -6.3648   -1.9506   -1.2671 H   0  0  0  0  0  0  0  0  0  0  0  0
   -5.6387   -3.3263   -2.1805 H   0  0  0  0  0  0  0  0  0  0  0  0
   -7.7769   -3.6092   -3.4655 H   0  0  0  0  0  0  0  0  0  0  0  0
   -8.0288   -3.7632   -1.6891 H   0  0  0  0  0  0  0  0  0  0  0  0
   -8.5105   -2.2398   -2.5233 H   0  0  0  0  0  0  0  0  0  0  0  0
   -6.7160    0.7528   -4.6204 H   0  0  0  0  0  0  0  0  0  0  0  0
   -8.0424   -0.3587   -4.1279 H   0  0  0  0  0  0  0  0  0  0  0  0
   -7.6690    0.2093   -1.7268 H   0  0  0  0  0  0  0  0  0  0  0  0
   -6.2924    1.2966   -2.1897 H   0  0  0  0  0  0  0  0  0  0  0  0
   -7.9685    1.6931   -2.7101 H   0  0  0  0  0  0  0  0  0  0  0  0
   -4.6788   -1.9131   -5.7183 H   0  0  0  0  0  0  0  0  0  0  0  0
   -5.4001   -3.3570   -4.9308 H   0  0  0  0  0  0  0  0  0  0  0  0
   -6.9088   -1.1423   -6.4698 H   0  0  0  0  0  0  0  0  0  0  0  0
   -6.6066   -2.8331   -7.0113 H   0  0  0  0  0  0  0  0  0  0  0  0
   -7.7028   -2.5309   -5.6164 H   0  0  0  0  0  0  0  0  0  0  0  0
    0.0333   -1.0654   -3.7660 H   0  0  0  0  0  0  0  0  0  0  0  0
    2.5401   -1.6652   -4.0689 H   0  0  0  0  0  0  0  0  0  0  0  0
    4.3041    1.1433   -0.1048 H   0  0  0  0  0  0  0  0  0  0  0  0
  1  2  1  0
  2  3  1  0
  3  4  1  0
  4  5  1  0
  3  6  1  0
  6  7  1  0
  3  8  1  0
  8  9  1  0
  9 10  1  0
 10 11  1  0
 11 12  2  0
 12 13  1  0
 13 14  2  0
 14 15  1  0
 15 16  1  0
 16 17  2  0
 17 18  1  0
 18 19  2  0
 19 20  1  0
 20 21  1  0
 20 22  2  0
 22 23  1  0
 23 24  1  0
 24 25  1  0
 23 26  1  0
 26 27  1  0
 23 28  1  0
 28 29  1  0
 22 30  1  0
 17 31  1  0
 31 32  1  0
 32 33  2  0
 33 34  1  0
 34 35  1  0
 10 36  2  0
 36 37  1  0
 37 38  1  0
 37  8  2  0
 35 11  1  0
 16 12  1  0
 30 18  1  0
 35 31  2  0
  1 39  1  0
  1 40  1  0
  1 41  1  0
  2 42  1  0
  2 43  1  0
  4 44  1  0
  4 45  1  0
  5 46  1  0
  5 47  1  0
  5 48  1  0
  6 49  1  0
  6 50  1  0
  7 51  1  0
  7 52  1  0
  7 53  1  0
 13 54  1  0
 14 55  1  0
 19 56  1  0
 24 57  1  0
 24 58  1  0
 25 59  1  0
 25 60  1  0
 25 61  1  0
 26 62  1  0
 26 63  1  0
 27 64  1  0
 27 65  1  0
 27 66  1  0
 28 67  1  0
 28 68  1  0
 29 69  1  0
 29 70  1  0
 29 71  1  0
 32 72  1  0
 33 73  1  0
 36 74  1  0
M  END

