
     RDKit          3D

 34 37  0  0  0  0  0  0  0  0999 V2000
   -2.4981   -5.8348    1.3236 C   0  0  0  0  0  0  0  0  0  0  0  0
   -1.2341   -5.7417    0.4792 C   0  0  0  0  0  0  0  0  0  0  0  0
   -0.6259   -4.4257    0.6295 N   0  0  0  0  0  0  0  0  0  0  0  0
    0.2600   -4.1326    1.5793 N   0  0  0  0  0  0  0  0  0  0  0  0
    0.5241   -2.8287    1.4070 C   0  0  0  0  0  0  0  0  0  0  0  0
    1.3868   -2.0132    2.1345 C   0  0  0  0  0  0  0  0  0  0  0  0
    1.4826   -0.6596    1.7567 C   0  0  0  0  0  0  0  0  0  0  0  0
    0.7153   -0.1664    0.6707 C   0  0  0  0  0  0  0  0  0  0  0  0
   -0.1635   -1.0342   -0.0530 C   0  0  0  0  0  0  0  0  0  0  0  0
   -0.9339   -0.5401   -1.1362 C   0  0  0  0  0  0  0  0  0  0  0  0
   -0.8409    0.8144   -1.5117 C   0  0  0  0  0  0  0  0  0  0  0  0
    0.0255    1.6288   -0.7873 C   0  0  0  0  0  0  0  0  0  0  0  0
    0.2766    2.9366   -0.9486 N   0  0  0  0  0  0  0  0  0  0  0  0
    1.1725    3.2267   -0.0073 N   0  0  0  0  0  0  0  0  0  0  0  0
    1.6940    4.5692    0.2166 C   0  0  0  0  0  0  0  0  0  0  0  0
    0.8043    5.3203    1.1983 C   0  0  0  0  0  0  0  0  0  0  0  0
    1.4925    2.1811    0.7524 N   0  0  0  0  0  0  0  0  0  0  0  0
    0.7701    1.1644    0.2551 C   0  0  0  0  0  0  0  0  0  0  0  0
   -0.2177   -2.3652    0.3621 C   0  0  0  0  0  0  0  0  0  0  0  0
   -0.9511   -3.3786   -0.1258 N   0  0  0  0  0  0  0  0  0  0  0  0
   -3.2312   -5.0659    0.9992 H   0  0  0  0  0  0  0  0  0  0  0  0
   -2.9547   -6.8397    1.2034 H   0  0  0  0  0  0  0  0  0  0  0  0
   -2.2533   -5.6771    2.3955 H   0  0  0  0  0  0  0  0  0  0  0  0
   -1.4872   -5.9176   -0.5888 H   0  0  0  0  0  0  0  0  0  0  0  0
   -0.5147   -6.5260    0.7998 H   0  0  0  0  0  0  0  0  0  0  0  0
    1.9636   -2.4049    2.9622 H   0  0  0  0  0  0  0  0  0  0  0  0
    2.1464   -0.0027    2.3050 H   0  0  0  0  0  0  0  0  0  0  0  0
   -1.5997   -1.1963   -1.6828 H   0  0  0  0  0  0  0  0  0  0  0  0
   -1.4236    1.2079   -2.3344 H   0  0  0  0  0  0  0  0  0  0  0  0
    1.7329    5.1217   -0.7470 H   0  0  0  0  0  0  0  0  0  0  0  0
    2.7263    4.5070    0.6237 H   0  0  0  0  0  0  0  0  0  0  0  0
   -0.2265    5.4029    0.7929 H   0  0  0  0  0  0  0  0  0  0  0  0
    0.7727    4.7851    2.1711 H   0  0  0  0  0  0  0  0  0  0  0  0
    1.2083    6.3413    1.3631 H   0  0  0  0  0  0  0  0  0  0  0  0
  1  2  1  0
  2  3  1  0
  3  4  1  0
  4  5  2  0
  5  6  1  0
  6  7  2  0
  7  8  1  0
  8  9  2  0
  9 10  1  0
 10 11  2  0
 11 12  1  0
 12 13  2  0
 13 14  1  0
 14 15  1  0
 15 16  1  0
 14 17  1  0
 17 18  2  0
  9 19  1  0
 19 20  2  0
 20  3  1  0
 19  5  1  0
 18  8  1  0
 18 12  1  0
  1 21  1  0
  1 22  1  0
  1 23  1  0
  2 24  1  0
  2 25  1  0
  6 26  1  0
  7 27  1  0
 10 28  1  0
 11 29  1  0
 15 30  1  0
 15 31  1  0
 16 32  1  0
 16 33  1  0
 16 34  1  0
M  END

