
     RDKit          3D

 50 56  0  0  0  0  0  0  0  0999 V2000
    6.2233   -4.6002    1.3965 C   0  0  0  0  0  0  0  0  0  0  0  0
    6.2651   -3.4089    0.4462 C   0  0  0  0  0  0  0  0  0  0  0  0
    5.1118   -2.4878    0.7035 C   0  0  0  0  0  0  0  0  0  0  0  0
    3.6121   -2.5995   -0.0527 S   0  0  0  0  0  0  0  0  0  0  0  0
    2.8881   -1.3603    0.8253 C   0  0  0  0  0  0  0  0  0  0  0  0
    1.5151   -0.8755    0.6299 C   0  0  0  0  0  0  0  0  0  0  0  0
    1.2748    0.3617    0.0104 C   0  0  0  0  0  0  0  0  0  0  0  0
    2.4342    1.4578   -0.5954 S   0  0  0  0  0  0  0  0  0  0  0  0
    1.2718    2.5272   -1.1691 C   0  0  0  0  0  0  0  0  0  0  0  0
    1.3416    3.7265   -1.8691 C   0  0  0  0  0  0  0  0  0  0  0  0
    0.0622    4.2060   -2.1669 C   0  0  0  0  0  0  0  0  0  0  0  0
   -1.1075    3.1256   -1.5612 S   0  0  0  0  0  0  0  0  0  0  0  0
    0.0175    2.0624   -0.9099 C   0  0  0  0  0  0  0  0  0  0  0  0
   -0.0293    0.8377   -0.2363 C   0  0  0  0  0  0  0  0  0  0  0  0
   -1.1592    0.0868    0.1465 C   0  0  0  0  0  0  0  0  0  0  0  0
   -2.5326    0.5724   -0.0474 C   0  0  0  0  0  0  0  0  0  0  0  0
   -3.4751    0.0120   -0.8998 C   0  0  0  0  0  0  0  0  0  0  0  0
   -4.7268    0.6320   -0.8144 C   0  0  0  0  0  0  0  0  0  0  0  0
   -6.1045    0.1069   -1.7665 Cl  0  0  0  0  0  0  0  0  0  0  0  0
   -4.7671    1.6765    0.1081 C   0  0  0  0  0  0  0  0  0  0  0  0
   -5.9698    2.4845    0.4900 C   0  0  0  0  0  0  0  0  0  0  0  0
   -6.7770    1.7727    1.5696 C   0  0  0  0  0  0  0  0  0  0  0  0
   -3.2560    1.8068    0.8381 S   0  0  0  0  0  0  0  0  0  0  0  0
   -0.9185   -1.1504    0.7669 C   0  0  0  0  0  0  0  0  0  0  0  0
   -2.0772   -2.2457    1.3762 S   0  0  0  0  0  0  0  0  0  0  0  0
   -0.9144   -3.3143    1.9505 C   0  0  0  0  0  0  0  0  0  0  0  0
   -0.9835   -4.5124    2.6527 C   0  0  0  0  0  0  0  0  0  0  0  0
    0.2962   -4.9913    2.9503 C   0  0  0  0  0  0  0  0  0  0  0  0
    1.4653   -3.9120    2.3418 S   0  0  0  0  0  0  0  0  0  0  0  0
    0.3396   -2.8499    1.6893 C   0  0  0  0  0  0  0  0  0  0  0  0
    0.3856   -1.6261    1.0138 C   0  0  0  0  0  0  0  0  0  0  0  0
    3.8125   -0.8324    1.7169 C   0  0  0  0  0  0  0  0  0  0  0  0
    5.0543   -1.4752    1.6601 C   0  0  0  0  0  0  0  0  0  0  0  0
    6.3910   -1.0358    2.7091 Cl  0  0  0  0  0  0  0  0  0  0  0  0
    5.2789   -5.1694    1.2597 H   0  0  0  0  0  0  0  0  0  0  0  0
    6.2939   -4.2562    2.4505 H   0  0  0  0  0  0  0  0  0  0  0  0
    7.0794   -5.2747    1.1847 H   0  0  0  0  0  0  0  0  0  0  0  0
    7.2235   -2.8623    0.5753 H   0  0  0  0  0  0  0  0  0  0  0  0
    6.2191   -3.7741   -0.6020 H   0  0  0  0  0  0  0  0  0  0  0  0
    2.2621    4.2162   -2.1570 H   0  0  0  0  0  0  0  0  0  0  0  0
   -0.1496    5.1172   -2.7095 H   0  0  0  0  0  0  0  0  0  0  0  0
   -3.2667   -0.8258   -1.5526 H   0  0  0  0  0  0  0  0  0  0  0  0
   -5.6426    3.4758    0.8704 H   0  0  0  0  0  0  0  0  0  0  0  0
   -6.6097    2.6558   -0.4017 H   0  0  0  0  0  0  0  0  0  0  0  0
   -7.1341    0.7881    1.1991 H   0  0  0  0  0  0  0  0  0  0  0  0
   -6.1549    1.6189    2.4773 H   0  0  0  0  0  0  0  0  0  0  0  0
   -7.6582    2.3904    1.8426 H   0  0  0  0  0  0  0  0  0  0  0  0
   -1.9037   -5.0015    2.9424 H   0  0  0  0  0  0  0  0  0  0  0  0
    0.5085   -5.9015    3.4943 H   0  0  0  0  0  0  0  0  0  0  0  0
    3.5921   -0.0162    2.3927 H   0  0  0  0  0  0  0  0  0  0  0  0
  1  2  1  0
  2  3  1  0
  3  4  1  0
  4  5  1  0
  5  6  1  0
  6  7  2  0
  7  8  1  0
  8  9  1  0
  9 10  1  0
 10 11  2  0
 11 12  1  0
 12 13  1  0
 13 14  1  0
 14 15  2  0
 15 16  1  0
 16 17  2  0
 17 18  1  0
 18 19  1  0
 18 20  2  0
 20 21  1  0
 21 22  1  0
 20 23  1  0
 15 24  1  0
 24 25  1  0
 25 26  1  0
 26 27  1  0
 27 28  2  0
 28 29  1  0
 29 30  1  0
 30 31  1  0
  5 32  2  0
 32 33  1  0
 33 34  1  0
 33  3  2  0
 31  6  1  0
 14  7  1  0
 23 16  1  0
 31 24  2  0
 13  9  2  0
 30 26  2  0
  1 35  1  0
  1 36  1  0
  1 37  1  0
  2 38  1  0
  2 39  1  0
 10 40  1  0
 11 41  1  0
 17 42  1  0
 21 43  1  0
 21 44  1  0
 22 45  1  0
 22 46  1  0
 22 47  1  0
 27 48  1  0
 28 49  1  0
 32 50  1  0
M  END

