
     RDKit          3D

 35 37  0  0  0  0  0  0  0  0999 V2000
   -1.7372   -3.7633    2.1716 C   0  0  0  0  0  0  0  0  0  0  0  0
   -1.3102   -3.9162    0.7175 C   0  0  0  0  0  0  0  0  0  0  0  0
   -1.9898   -2.5691   -0.3144 S   0  0  0  0  0  0  0  0  0  0  0  0
   -0.7143   -1.3697    0.1115 C   0  0  0  0  0  0  0  0  0  0  0  0
   -0.9564   -0.4748    1.1592 C   0  0  0  0  0  0  0  0  0  0  0  0
    0.0167    0.4612    1.5445 C   0  0  0  0  0  0  0  0  0  0  0  0
    1.2562    0.4995    0.8583 C   0  0  0  0  0  0  0  0  0  0  0  0
    1.4857   -0.3923   -0.2018 C   0  0  0  0  0  0  0  0  0  0  0  0
    0.5038   -1.3103   -0.5907 C   0  0  0  0  0  0  0  0  0  0  0  0
    0.8545   -2.4239   -1.9630 S   0  0  0  0  0  0  0  0  0  0  0  0
    0.4595   -1.2156   -3.2776 C   0  0  0  0  0  0  0  0  0  0  0  0
   -1.0447   -1.0501   -3.4510 C   0  0  0  0  0  0  0  0  0  0  0  0
    2.3002    1.4797    1.2582 C   0  0  0  0  0  0  0  0  0  0  0  0
    3.4084    1.5262    0.6581 O   0  0  0  0  0  0  0  0  0  0  0  0
    2.0241    2.4027    2.3707 C   0  0  0  0  0  0  0  0  0  0  0  0
    2.9040    3.3669    2.8496 C   0  0  0  0  0  0  0  0  0  0  0  0
    2.1371    4.1632    4.1184 S   0  0  0  0  0  0  0  0  0  0  0  0
    0.6937    3.2992    4.0721 C   0  0  0  0  0  0  0  0  0  0  0  0
    0.8001    2.3653    3.0477 C   0  0  0  0  0  0  0  0  0  0  0  0
   -0.2445    1.4016    2.6661 C   0  0  0  0  0  0  0  0  0  0  0  0
   -1.3422    1.3799    3.2867 O   0  0  0  0  0  0  0  0  0  0  0  0
   -2.8430   -3.6883    2.2412 H   0  0  0  0  0  0  0  0  0  0  0  0
   -1.2772   -2.8587    2.6192 H   0  0  0  0  0  0  0  0  0  0  0  0
   -1.4024   -4.6491    2.7512 H   0  0  0  0  0  0  0  0  0  0  0  0
   -0.2020   -3.9482    0.6471 H   0  0  0  0  0  0  0  0  0  0  0  0
   -1.7048   -4.8785    0.3289 H   0  0  0  0  0  0  0  0  0  0  0  0
   -1.9059   -0.5185    1.6787 H   0  0  0  0  0  0  0  0  0  0  0  0
    2.4266   -0.3708   -0.7380 H   0  0  0  0  0  0  0  0  0  0  0  0
    0.9279   -0.2324   -3.0585 H   0  0  0  0  0  0  0  0  0  0  0  0
    0.8885   -1.5934   -4.2293 H   0  0  0  0  0  0  0  0  0  0  0  0
   -1.4851   -0.5557   -2.5610 H   0  0  0  0  0  0  0  0  0  0  0  0
   -1.5257   -2.0395   -3.6027 H   0  0  0  0  0  0  0  0  0  0  0  0
   -1.2477   -0.4147   -4.3385 H   0  0  0  0  0  0  0  0  0  0  0  0
    3.8992    3.5704    2.4774 H   0  0  0  0  0  0  0  0  0  0  0  0
   -0.1587    3.4461    4.7219 H   0  0  0  0  0  0  0  0  0  0  0  0
  1  2  1  0
  2  3  1  0
  3  4  1  0
  4  5  2  0
  5  6  1  0
  6  7  2  0
  7  8  1  0
  8  9  2  0
  9 10  1  0
 10 11  1  0
 11 12  1  0
  7 13  1  0
 13 14  2  0
 13 15  1  0
 15 16  2  0
 16 17  1  0
 17 18  1  0
 18 19  2  0
 19 20  1  0
 20 21  2  0
  9  4  1  0
 19 15  1  0
 20  6  1  0
  1 22  1  0
  1 23  1  0
  1 24  1  0
  2 25  1  0
  2 26  1  0
  5 27  1  0
  8 28  1  0
 11 29  1  0
 11 30  1  0
 12 31  1  0
 12 32  1  0
 12 33  1  0
 16 34  1  0
 18 35  1  0
M  END

