
     RDKit          3D

 51 56  0  0  0  0  0  0  0  0999 V2000
    4.4411   -1.1183    6.0495 C   0  0  0  0  0  0  0  0  0  0  0  0
    3.5884    0.0941    5.6921 C   0  0  0  0  0  0  0  0  0  0  0  0
    2.2497   -0.3352    5.1631 C   0  0  0  0  0  0  0  0  0  0  0  0
    2.0075   -0.5598    3.7992 C   0  0  0  0  0  0  0  0  0  0  0  0
    0.7139   -0.9979    3.5344 C   0  0  0  0  0  0  0  0  0  0  0  0
    0.1662   -1.3131    2.1997 C   0  0  0  0  0  0  0  0  0  0  0  0
    0.2223   -0.3925    1.1310 C   0  0  0  0  0  0  0  0  0  0  0  0
    0.7430    0.9131    1.1797 C   0  0  0  0  0  0  0  0  0  0  0  0
    0.6662    1.5781   -0.0440 C   0  0  0  0  0  0  0  0  0  0  0  0
    1.1303    2.9483   -0.3166 C   0  0  0  0  0  0  0  0  0  0  0  0
    1.7350    3.8128    0.5908 C   0  0  0  0  0  0  0  0  0  0  0  0
    2.0676    5.0543    0.0348 C   0  0  0  0  0  0  0  0  0  0  0  0
    1.7292    5.1750   -1.3063 C   0  0  0  0  0  0  0  0  0  0  0  0
    1.0159    3.7353   -1.8000 S   0  0  0  0  0  0  0  0  0  0  0  0
   -0.0563    0.5605   -1.1797 S   0  0  0  0  0  0  0  0  0  0  0  0
   -0.2868   -0.7331   -0.1278 C   0  0  0  0  0  0  0  0  0  0  0  0
   -0.8666   -1.9853   -0.4018 C   0  0  0  0  0  0  0  0  0  0  0  0
   -1.3634   -2.3154   -1.7523 C   0  0  0  0  0  0  0  0  0  0  0  0
   -2.2654   -1.5594   -2.4937 C   0  0  0  0  0  0  0  0  0  0  0  0
   -2.5221   -2.0921   -3.7664 C   0  0  0  0  0  0  0  0  0  0  0  0
   -3.5022   -1.4768   -4.7240 C   0  0  0  0  0  0  0  0  0  0  0  0
   -4.8915   -2.0748   -4.5321 C   0  0  0  0  0  0  0  0  0  0  0  0
   -1.8250   -3.2733   -4.0143 C   0  0  0  0  0  0  0  0  0  0  0  0
   -1.9017   -4.2505   -5.4691 Cl  0  0  0  0  0  0  0  0  0  0  0  0
   -0.8829   -3.6412   -2.6732 S   0  0  0  0  0  0  0  0  0  0  0  0
   -0.9323   -2.9017    0.6693 C   0  0  0  0  0  0  0  0  0  0  0  0
   -1.4920   -4.1913    0.6345 C   0  0  0  0  0  0  0  0  0  0  0  0
   -1.4003   -4.8649    1.8481 C   0  0  0  0  0  0  0  0  0  0  0  0
   -0.6409   -3.8643    2.9708 S   0  0  0  0  0  0  0  0  0  0  0  0
   -0.4280   -2.5595    1.9294 C   0  0  0  0  0  0  0  0  0  0  0  0
   -0.1226   -1.1249    4.9905 S   0  0  0  0  0  0  0  0  0  0  0  0
    1.1470   -0.6186    5.9669 C   0  0  0  0  0  0  0  0  0  0  0  0
    1.0660   -0.5010    7.7153 Cl  0  0  0  0  0  0  0  0  0  0  0  0
    5.4265   -0.7796    6.4330 H   0  0  0  0  0  0  0  0  0  0  0  0
    3.9419   -1.7231    6.8365 H   0  0  0  0  0  0  0  0  0  0  0  0
    4.6068   -1.7508    5.1512 H   0  0  0  0  0  0  0  0  0  0  0  0
    3.4560    0.7327    6.5915 H   0  0  0  0  0  0  0  0  0  0  0  0
    4.1181    0.7007    4.9259 H   0  0  0  0  0  0  0  0  0  0  0  0
    2.7567   -0.4187    3.0304 H   0  0  0  0  0  0  0  0  0  0  0  0
    1.1528    1.3648    2.0718 H   0  0  0  0  0  0  0  0  0  0  0  0
    1.9345    3.5633    1.6241 H   0  0  0  0  0  0  0  0  0  0  0  0
    2.5441    5.8458    0.5976 H   0  0  0  0  0  0  0  0  0  0  0  0
    1.8972    6.0464   -1.9246 H   0  0  0  0  0  0  0  0  0  0  0  0
   -2.7309   -0.6555   -2.1217 H   0  0  0  0  0  0  0  0  0  0  0  0
   -3.1682   -1.6427   -5.7706 H   0  0  0  0  0  0  0  0  0  0  0  0
   -3.5507   -0.3787   -4.5583 H   0  0  0  0  0  0  0  0  0  0  0  0
   -5.2508   -1.8895   -3.4972 H   0  0  0  0  0  0  0  0  0  0  0  0
   -5.6006   -1.6037   -5.2448 H   0  0  0  0  0  0  0  0  0  0  0  0
   -4.8705   -3.1692   -4.7224 H   0  0  0  0  0  0  0  0  0  0  0  0
   -1.9608   -4.6303   -0.2348 H   0  0  0  0  0  0  0  0  0  0  0  0
   -1.7636   -5.8654    2.0391 H   0  0  0  0  0  0  0  0  0  0  0  0
  1  2  1  0
  2  3  1  0
  3  4  1  0
  4  5  2  0
  5  6  1  0
  6  7  2  0
  7  8  1  0
  8  9  2  0
  9 10  1  0
 10 11  2  0
 11 12  1  0
 12 13  2  0
 13 14  1  0
  9 15  1  0
 15 16  1  0
 16 17  2  0
 17 18  1  0
 18 19  2  0
 19 20  1  0
 20 21  1  0
 21 22  1  0
 20 23  2  0
 23 24  1  0
 23 25  1  0
 17 26  1  0
 26 27  1  0
 27 28  2  0
 28 29  1  0
 29 30  1  0
  5 31  1  0
 31 32  1  0
 32 33  1  0
 32  3  2  0
 30  6  1  0
 16  7  1  0
 25 18  1  0
 30 26  2  0
 14 10  1  0
  1 34  1  0
  1 35  1  0
  1 36  1  0
  2 37  1  0
  2 38  1  0
  4 39  1  0
  8 40  1  0
 11 41  1  0
 12 42  1  0
 13 43  1  0
 19 44  1  0
 21 45  1  0
 21 46  1  0
 22 47  1  0
 22 48  1  0
 22 49  1  0
 27 50  1  0
 28 51  1  0
M  END

