
     RDKit          3D

 44 48  0  0  0  0  0  0  0  0999 V2000
   -1.4778   -6.8550   -1.0854 C   0  0  0  0  0  0  0  0  0  0  0  0
   -2.0812   -5.7219   -1.9079 C   0  0  0  0  0  0  0  0  0  0  0  0
   -1.1338   -4.5588   -1.9854 C   0  0  0  0  0  0  0  0  0  0  0  0
   -1.1422   -3.5076   -1.0558 C   0  0  0  0  0  0  0  0  0  0  0  0
   -0.1470   -2.5630   -1.2842 C   0  0  0  0  0  0  0  0  0  0  0  0
    0.0674   -1.3295   -0.5018 C   0  0  0  0  0  0  0  0  0  0  0  0
    1.3199   -1.0032    0.0609 C   0  0  0  0  0  0  0  0  0  0  0  0
    2.4904   -1.7807    0.0078 C   0  0  0  0  0  0  0  0  0  0  0  0
    3.5738   -1.1902    0.6504 C   0  0  0  0  0  0  0  0  0  0  0  0
    3.0857    0.2867    1.2980 S   0  0  0  0  0  0  0  0  0  0  0  0
    1.4886    0.1880    0.7760 C   0  0  0  0  0  0  0  0  0  0  0  0
    0.4478    1.1148    0.9699 C   0  0  0  0  0  0  0  0  0  0  0  0
    0.6748    2.3749    1.7049 C   0  0  0  0  0  0  0  0  0  0  0  0
    1.2338    2.4872    2.9736 C   0  0  0  0  0  0  0  0  0  0  0  0
    1.3760    3.8158    3.4023 C   0  0  0  0  0  0  0  0  0  0  0  0
    2.0030    4.1837    4.7166 C   0  0  0  0  0  0  0  0  0  0  0  0
    3.5081    4.3713    4.5615 C   0  0  0  0  0  0  0  0  0  0  0  0
    0.9484    4.7437    2.4542 C   0  0  0  0  0  0  0  0  0  0  0  0
    1.0050    6.4912    2.5975 Cl  0  0  0  0  0  0  0  0  0  0  0  0
    0.3846    3.9207    1.1029 S   0  0  0  0  0  0  0  0  0  0  0  0
   -0.8073    0.7833    0.4167 C   0  0  0  0  0  0  0  0  0  0  0  0
   -1.9896    1.5387    0.5100 C   0  0  0  0  0  0  0  0  0  0  0  0
   -3.0692    0.9555   -0.1454 C   0  0  0  0  0  0  0  0  0  0  0  0
   -2.5701   -0.5010   -0.8301 S   0  0  0  0  0  0  0  0  0  0  0  0
   -0.9774   -0.4103   -0.2937 C   0  0  0  0  0  0  0  0  0  0  0  0
    0.7411   -3.0287   -2.6373 S   0  0  0  0  0  0  0  0  0  0  0  0
   -0.1220   -4.4383   -2.9364 C   0  0  0  0  0  0  0  0  0  0  0  0
    0.2325   -5.5594   -4.2382 Cl  0  0  0  0  0  0  0  0  0  0  0  0
   -0.5362   -7.2133   -1.5538 H   0  0  0  0  0  0  0  0  0  0  0  0
   -1.2642   -6.5087   -0.0515 H   0  0  0  0  0  0  0  0  0  0  0  0
   -2.1948   -7.7013   -1.0363 H   0  0  0  0  0  0  0  0  0  0  0  0
   -2.3174   -6.0900   -2.9292 H   0  0  0  0  0  0  0  0  0  0  0  0
   -3.0360   -5.3983   -1.4396 H   0  0  0  0  0  0  0  0  0  0  0  0
   -1.8462   -3.4437   -0.2357 H   0  0  0  0  0  0  0  0  0  0  0  0
    2.5600   -2.7478   -0.4696 H   0  0  0  0  0  0  0  0  0  0  0  0
    4.5655   -1.6150    0.7262 H   0  0  0  0  0  0  0  0  0  0  0  0
    1.5318    1.6344    3.5704 H   0  0  0  0  0  0  0  0  0  0  0  0
    1.8094    3.3824    5.4623 H   0  0  0  0  0  0  0  0  0  0  0  0
    1.5506    5.1204    5.1068 H   0  0  0  0  0  0  0  0  0  0  0  0
    3.9781    3.4316    4.1999 H   0  0  0  0  0  0  0  0  0  0  0  0
    3.7230    5.1892    3.8409 H   0  0  0  0  0  0  0  0  0  0  0  0
    3.9529    4.6368    5.5435 H   0  0  0  0  0  0  0  0  0  0  0  0
   -2.0748    2.4759    1.0418 H   0  0  0  0  0  0  0  0  0  0  0  0
   -4.0672    1.3686   -0.2000 H   0  0  0  0  0  0  0  0  0  0  0  0
  1  2  1  0
  2  3  1  0
  3  4  1  0
  4  5  2  0
  5  6  1  0
  6  7  2  0
  7  8  1  0
  8  9  2  0
  9 10  1  0
 10 11  1  0
 11 12  2  0
 12 13  1  0
 13 14  2  0
 14 15  1  0
 15 16  1  0
 16 17  1  0
 15 18  2  0
 18 19  1  0
 18 20  1  0
 12 21  1  0
 21 22  1  0
 22 23  2  0
 23 24  1  0
 24 25  1  0
  5 26  1  0
 26 27  1  0
 27 28  1  0
 27  3  2  0
 25  6  1  0
 11  7  1  0
 20 13  1  0
 25 21  2  0
  1 29  1  0
  1 30  1  0
  1 31  1  0
  2 32  1  0
  2 33  1  0
  4 34  1  0
  8 35  1  0
  9 36  1  0
 14 37  1  0
 16 38  1  0
 16 39  1  0
 17 40  1  0
 17 41  1  0
 17 42  1  0
 22 43  1  0
 23 44  1  0
M  END

