
     RDKit          3D

 23 24  0  0  0  0  0  0  0  0999 V2000
   -1.7871   -0.8635    2.8191 C   0  0  0  0  0  0  0  0  0  0  0  0
   -0.7965   -0.6513    1.9469 C   0  0  0  0  0  0  0  0  0  0  0  0
   -0.4752   -1.5711    0.8606 C   0  0  0  0  0  0  0  0  0  0  0  0
   -0.9501   -2.7299    0.7259 O   0  0  0  0  0  0  0  0  0  0  0  0
    0.4311   -0.9000   -0.0602 C   0  0  0  0  0  0  0  0  0  0  0  0
    0.9491   -1.3400   -1.2928 C   0  0  0  0  0  0  0  0  0  0  0  0
    0.7132   -2.6178   -1.7999 O   0  0  0  0  0  0  0  0  0  0  0  0
    1.7326   -0.4493   -2.0392 C   0  0  0  0  0  0  0  0  0  0  0  0
    1.9714    0.8521   -1.5743 C   0  0  0  0  0  0  0  0  0  0  0  0
    1.4476    1.2767   -0.3459 C   0  0  0  0  0  0  0  0  0  0  0  0
    0.6962    0.3767    0.4276 C   0  0  0  0  0  0  0  0  0  0  0  0
    0.0294    0.5739    1.7490 C   0  0  0  0  0  0  0  0  0  0  0  0
    0.2848    1.5476    2.6625 C   0  0  0  0  0  0  0  0  0  0  0  0
   -0.2629    1.5221    3.9939 C   0  0  0  0  0  0  0  0  0  0  0  0
   -0.6932    1.5112    5.0686 N   0  0  0  0  0  0  0  0  0  0  0  0
    1.2197    2.6149    2.4217 C   0  0  0  0  0  0  0  0  0  0  0  0
    1.9707    3.4784    2.2464 N   0  0  0  0  0  0  0  0  0  0  0  0
   -2.3394   -1.7945    2.8008 H   0  0  0  0  0  0  0  0  0  0  0  0
   -2.1160   -0.1160    3.5205 H   0  0  0  0  0  0  0  0  0  0  0  0
    0.1797   -3.3189   -1.3060 H   0  0  0  0  0  0  0  0  0  0  0  0
    2.1436   -0.7597   -2.9916 H   0  0  0  0  0  0  0  0  0  0  0  0
    2.5553    1.5375   -2.1751 H   0  0  0  0  0  0  0  0  0  0  0  0
    1.6106    2.2980   -0.0494 H   0  0  0  0  0  0  0  0  0  0  0  0
  1  2  2  3
  2  3  1  0
  3  4  2  0
  3  5  1  0
  5  6  2  0
  6  7  1  0
  6  8  1  0
  8  9  2  0
  9 10  1  0
 10 11  2  0
 11 12  1  0
 12 13  2  3
 13 14  1  0
 14 15  3  0
 13 16  1  0
 16 17  3  0
 12  2  1  0
 11  5  1  0
  1 18  1  0
  1 19  1  0
  7 20  1  0
  8 21  1  0
  9 22  1  0
 10 23  1  0
M  END

