
     RDKit          3D

 50 56  0  0  0  0  0  0  0  0999 V2000
    8.6260   -0.8248    4.7876 C   0  0  0  0  0  0  0  0  0  0  0  0
    8.4961    0.1700    3.6401 C   0  0  0  0  0  0  0  0  0  0  0  0
    7.1390    0.0818    3.0160 C   0  0  0  0  0  0  0  0  0  0  0  0
    6.0100    0.7949    3.4409 C   0  0  0  0  0  0  0  0  0  0  0  0
    4.9003    0.4333    2.6873 C   0  0  0  0  0  0  0  0  0  0  0  0
    3.2884    0.8900    2.6892 S   0  0  0  0  0  0  0  0  0  0  0  0
    2.8743   -0.1643    1.4095 C   0  0  0  0  0  0  0  0  0  0  0  0
    1.5137   -0.3310    0.8638 C   0  0  0  0  0  0  0  0  0  0  0  0
    0.7700    0.7549    0.3558 C   0  0  0  0  0  0  0  0  0  0  0  0
    1.2003    2.0898    0.2560 C   0  0  0  0  0  0  0  0  0  0  0  0
    0.2390    2.9395   -0.2816 C   0  0  0  0  0  0  0  0  0  0  0  0
   -1.1394    2.0418   -0.6470 S   0  0  0  0  0  0  0  0  0  0  0  0
   -0.5265    0.5609   -0.1342 C   0  0  0  0  0  0  0  0  0  0  0  0
   -1.1568   -0.6970   -0.1438 C   0  0  0  0  0  0  0  0  0  0  0  0
   -2.5356   -0.8584   -0.6451 C   0  0  0  0  0  0  0  0  0  0  0  0
   -3.5940   -1.4286    0.0765 C   0  0  0  0  0  0  0  0  0  0  0  0
   -4.7565   -1.4247   -0.6839 C   0  0  0  0  0  0  0  0  0  0  0  0
   -6.3323   -1.9258   -0.4102 S   0  0  0  0  0  0  0  0  0  0  0  0
   -6.8678   -1.4440   -1.9584 C   0  0  0  0  0  0  0  0  0  0  0  0
   -8.2840   -1.5362   -2.4330 C   0  0  0  0  0  0  0  0  0  0  0  0
   -9.0466   -0.2590   -2.1013 C   0  0  0  0  0  0  0  0  0  0  0  0
   -5.8126   -0.8720   -2.6812 C   0  0  0  0  0  0  0  0  0  0  0  0
   -4.6464   -0.8895   -1.9264 C   0  0  0  0  0  0  0  0  0  0  0  0
   -3.0766   -0.3669   -2.1898 S   0  0  0  0  0  0  0  0  0  0  0  0
   -0.4095   -1.7844    0.3575 C   0  0  0  0  0  0  0  0  0  0  0  0
   -0.8240   -3.1267    0.4214 C   0  0  0  0  0  0  0  0  0  0  0  0
    0.1327   -3.9726    0.9734 C   0  0  0  0  0  0  0  0  0  0  0  0
    1.4970   -3.0676    1.3725 S   0  0  0  0  0  0  0  0  0  0  0  0
    0.8894   -1.5912    0.8404 C   0  0  0  0  0  0  0  0  0  0  0  0
    4.0032   -0.8834    0.9927 C   0  0  0  0  0  0  0  0  0  0  0  0
    5.1161   -0.5104    1.7355 C   0  0  0  0  0  0  0  0  0  0  0  0
    6.7239   -0.9837    1.7478 S   0  0  0  0  0  0  0  0  0  0  0  0
    9.6374   -0.7426    5.2382 H   0  0  0  0  0  0  0  0  0  0  0  0
    8.4854   -1.8623    4.4155 H   0  0  0  0  0  0  0  0  0  0  0  0
    7.8686   -0.6103    5.5717 H   0  0  0  0  0  0  0  0  0  0  0  0
    9.2703   -0.0464    2.8737 H   0  0  0  0  0  0  0  0  0  0  0  0
    8.6664    1.1993    4.0226 H   0  0  0  0  0  0  0  0  0  0  0  0
    5.9983    1.5155    4.2476 H   0  0  0  0  0  0  0  0  0  0  0  0
    2.1794    2.4388    0.5526 H   0  0  0  0  0  0  0  0  0  0  0  0
    0.3612    4.0018   -0.4432 H   0  0  0  0  0  0  0  0  0  0  0  0
   -3.5229   -1.8078    1.0874 H   0  0  0  0  0  0  0  0  0  0  0  0
   -8.7823   -2.4007   -1.9449 H   0  0  0  0  0  0  0  0  0  0  0  0
   -8.3000   -1.7028   -3.5315 H   0  0  0  0  0  0  0  0  0  0  0  0
   -8.5719    0.6140   -2.5990 H   0  0  0  0  0  0  0  0  0  0  0  0
   -9.0598   -0.0924   -1.0027 H   0  0  0  0  0  0  0  0  0  0  0  0
  -10.0935   -0.3475   -2.4605 H   0  0  0  0  0  0  0  0  0  0  0  0
   -5.8937   -0.4646   -3.6803 H   0  0  0  0  0  0  0  0  0  0  0  0
   -1.7826   -3.4866    0.0738 H   0  0  0  0  0  0  0  0  0  0  0  0
    0.0187   -5.0385    1.1171 H   0  0  0  0  0  0  0  0  0  0  0  0
    4.0117   -1.6230    0.2031 H   0  0  0  0  0  0  0  0  0  0  0  0
  1  2  1  0
  2  3  1  0
  3  4  2  0
  4  5  1  0
  5  6  1  0
  6  7  1  0
  7  8  1  0
  8  9  2  0
  9 10  1  0
 10 11  2  0
 11 12  1  0
 12 13  1  0
 13 14  2  0
 14 15  1  0
 15 16  2  0
 16 17  1  0
 17 18  1  0
 18 19  1  0
 19 20  1  0
 20 21  1  0
 19 22  2  0
 22 23  1  0
 23 24  1  0
 14 25  1  0
 25 26  1  0
 26 27  2  0
 27 28  1  0
 28 29  1  0
  7 30  2  0
 30 31  1  0
 31 32  1  0
 32  3  1  0
 31  5  2  0
 29  8  1  0
 13  9  1  0
 24 15  1  0
 29 25  2  0
 23 17  2  0
  1 33  1  0
  1 34  1  0
  1 35  1  0
  2 36  1  0
  2 37  1  0
  4 38  1  0
 10 39  1  0
 11 40  1  0
 16 41  1  0
 20 42  1  0
 20 43  1  0
 21 44  1  0
 21 45  1  0
 21 46  1  0
 22 47  1  0
 26 48  1  0
 27 49  1  0
 30 50  1  0
M  END

