
     RDKit          3D

 31 33  0  0  0  0  0  0  0  0999 V2000
   -3.1565   -1.3094    1.5775 C   0  0  0  0  0  0  0  0  0  0  0  0
   -1.9594   -1.8570    2.3450 C   0  0  0  0  0  0  0  0  0  0  0  0
   -0.7245   -1.2301    1.8772 N   0  0  0  0  0  0  0  0  0  0  0  0
    0.0487   -1.6393    0.7482 C   0  0  0  0  0  0  0  0  0  0  0  0
   -0.0593   -2.7740    0.2126 O   0  0  0  0  0  0  0  0  0  0  0  0
    1.0156   -0.5938    0.3726 C   0  0  0  0  0  0  0  0  0  0  0  0
    1.9520   -0.5953   -0.5888 C   0  0  0  0  0  0  0  0  0  0  0  0
    2.1004   -1.6519   -1.6039 C   0  0  0  0  0  0  0  0  0  0  0  0
    1.0416   -2.1577   -2.3774 C   0  0  0  0  0  0  0  0  0  0  0  0
    1.4423   -3.0872   -3.3264 C   0  0  0  0  0  0  0  0  0  0  0  0
    3.1111   -3.2509   -3.2236 S   0  0  0  0  0  0  0  0  0  0  0  0
    3.3433   -2.1512   -1.9747 C   0  0  0  0  0  0  0  0  0  0  0  0
    0.7780    0.4712    1.3527 C   0  0  0  0  0  0  0  0  0  0  0  0
    1.3837    1.7238    1.4848 C   0  0  0  0  0  0  0  0  0  0  0  0
    0.9302    2.5805    2.5010 C   0  0  0  0  0  0  0  0  0  0  0  0
   -0.1154    2.1819    3.3567 C   0  0  0  0  0  0  0  0  0  0  0  0
   -0.7168    0.9218    3.2060 C   0  0  0  0  0  0  0  0  0  0  0  0
   -0.2492    0.0788    2.1940 C   0  0  0  0  0  0  0  0  0  0  0  0
   -3.0388   -1.5125    0.4919 H   0  0  0  0  0  0  0  0  0  0  0  0
   -4.0858   -1.7997    1.9360 H   0  0  0  0  0  0  0  0  0  0  0  0
   -3.2448   -0.2138    1.7366 H   0  0  0  0  0  0  0  0  0  0  0  0
   -2.0917   -1.6675    3.4310 H   0  0  0  0  0  0  0  0  0  0  0  0
   -1.8996   -2.9570    2.1995 H   0  0  0  0  0  0  0  0  0  0  0  0
    2.6660    0.2174   -0.6221 H   0  0  0  0  0  0  0  0  0  0  0  0
    0.0131   -1.8389   -2.2689 H   0  0  0  0  0  0  0  0  0  0  0  0
    0.7938   -3.5981   -4.0251 H   0  0  0  0  0  0  0  0  0  0  0  0
    4.2954   -1.8786   -1.5385 H   0  0  0  0  0  0  0  0  0  0  0  0
    2.1784    2.0373    0.8215 H   0  0  0  0  0  0  0  0  0  0  0  0
    1.3836    3.5555    2.6241 H   0  0  0  0  0  0  0  0  0  0  0  0
   -0.4592    2.8519    4.1340 H   0  0  0  0  0  0  0  0  0  0  0  0
   -1.5217    0.6194    3.8621 H   0  0  0  0  0  0  0  0  0  0  0  0
  1  2  1  0
  2  3  1  0
  3  4  1  0
  4  5  2  0
  4  6  1  0
  6  7  2  3
  7  8  1  0
  8  9  1  0
  9 10  2  0
 10 11  1  0
 11 12  1  0
  6 13  1  0
 13 14  2  0
 14 15  1  0
 15 16  2  0
 16 17  1  0
 17 18  2  0
 18  3  1  0
 12  8  2  0
 18 13  1  0
  1 19  1  0
  1 20  1  0
  1 21  1  0
  2 22  1  0
  2 23  1  0
  7 24  1  0
  9 25  1  0
 10 26  1  0
 12 27  1  0
 14 28  1  0
 15 29  1  0
 16 30  1  0
 17 31  1  0
M  END

