
     RDKit          3D

 50 53  0  0  0  0  0  0  0  0999 V2000
    1.8873   -2.4547    6.1989 C   0  0  0  0  0  0  0  0  0  0  0  0
    1.4539   -1.0292    6.5237 C   0  0  0  0  0  0  0  0  0  0  0  0
    0.4505   -0.5845    5.6104 O   0  0  0  0  0  0  0  0  0  0  0  0
    0.6710   -0.1951    4.2784 C   0  0  0  0  0  0  0  0  0  0  0  0
    1.9599   -0.0794    3.7222 C   0  0  0  0  0  0  0  0  0  0  0  0
    2.1214    0.3077    2.3889 C   0  0  0  0  0  0  0  0  0  0  0  0
    1.0030    0.5740    1.5858 C   0  0  0  0  0  0  0  0  0  0  0  0
    1.1898    0.9875    0.1770 C   0  0  0  0  0  0  0  0  0  0  0  0
    2.0748    1.9885   -0.0859 N   0  0  0  0  0  0  0  0  0  0  0  0
    2.2547    2.4743   -1.3401 C   0  0  0  0  0  0  0  0  0  0  0  0
    3.1666    3.5075   -1.5816 C   0  0  0  0  0  0  0  0  0  0  0  0
    3.3281    4.0046   -2.8801 C   0  0  0  0  0  0  0  0  0  0  0  0
    4.2118    5.0063   -3.1140 F   0  0  0  0  0  0  0  0  0  0  0  0
    2.5782    3.4702   -3.9363 C   0  0  0  0  0  0  0  0  0  0  0  0
    2.7362    3.9532   -5.1935 F   0  0  0  0  0  0  0  0  0  0  0  0
    1.6654    2.4361   -3.6971 C   0  0  0  0  0  0  0  0  0  0  0  0
    1.5025    1.9375   -2.4002 C   0  0  0  0  0  0  0  0  0  0  0  0
    0.6323    0.9265   -2.1512 N   0  0  0  0  0  0  0  0  0  0  0  0
    0.4590    0.4192   -0.8994 C   0  0  0  0  0  0  0  0  0  0  0  0
   -0.4537   -0.7346   -0.7348 C   0  0  0  0  0  0  0  0  0  0  0  0
   -1.7322   -0.7001   -1.3101 C   0  0  0  0  0  0  0  0  0  0  0  0
   -2.6019   -1.7853   -1.1694 C   0  0  0  0  0  0  0  0  0  0  0  0
   -2.1974   -2.9343   -0.4622 C   0  0  0  0  0  0  0  0  0  0  0  0
   -3.0320   -4.0508   -0.2853 O   0  0  0  0  0  0  0  0  0  0  0  0
   -4.3227   -4.2254   -0.8703 C   0  0  0  0  0  0  0  0  0  0  0  0
   -4.2028   -4.5877   -2.3466 C   0  0  0  0  0  0  0  0  0  0  0  0
   -0.9132   -2.9730    0.0961 C   0  0  0  0  0  0  0  0  0  0  0  0
   -0.5022   -4.0733    0.7746 F   0  0  0  0  0  0  0  0  0  0  0  0
   -0.0438   -1.8879   -0.0463 C   0  0  0  0  0  0  0  0  0  0  0  0
   -0.2805    0.4866    2.1488 C   0  0  0  0  0  0  0  0  0  0  0  0
   -0.4430    0.0987    3.4817 C   0  0  0  0  0  0  0  0  0  0  0  0
   -1.6919    0.0084    4.0033 F   0  0  0  0  0  0  0  0  0  0  0  0
    1.0086   -3.1330    6.2318 H   0  0  0  0  0  0  0  0  0  0  0  0
    2.3452   -2.5068    5.1899 H   0  0  0  0  0  0  0  0  0  0  0  0
    2.6335   -2.7969    6.9465 H   0  0  0  0  0  0  0  0  0  0  0  0
    1.0218   -1.0202    7.5464 H   0  0  0  0  0  0  0  0  0  0  0  0
    2.3232   -0.3383    6.5261 H   0  0  0  0  0  0  0  0  0  0  0  0
    2.8452   -0.2828    4.3070 H   0  0  0  0  0  0  0  0  0  0  0  0
    3.1207    0.3856    1.9781 H   0  0  0  0  0  0  0  0  0  0  0  0
    3.7464    3.9257   -0.7680 H   0  0  0  0  0  0  0  0  0  0  0  0
    1.0900    2.0243   -4.5170 H   0  0  0  0  0  0  0  0  0  0  0  0
   -2.0632    0.1756   -1.8552 H   0  0  0  0  0  0  0  0  0  0  0  0
   -3.5846   -1.7143   -1.6125 H   0  0  0  0  0  0  0  0  0  0  0  0
   -4.9481   -3.3184   -0.7311 H   0  0  0  0  0  0  0  0  0  0  0  0
   -4.8318   -5.0615   -0.3462 H   0  0  0  0  0  0  0  0  0  0  0  0
   -5.2139   -4.7611   -2.7712 H   0  0  0  0  0  0  0  0  0  0  0  0
   -3.6017   -5.5146   -2.4600 H   0  0  0  0  0  0  0  0  0  0  0  0
   -3.7141   -3.7697   -2.9144 H   0  0  0  0  0  0  0  0  0  0  0  0
    0.9516   -1.9509    0.3754 H   0  0  0  0  0  0  0  0  0  0  0  0
   -1.1564    0.7244    1.5580 H   0  0  0  0  0  0  0  0  0  0  0  0
  1  2  1  0
  2  3  1  0
  3  4  1  0
  4  5  2  0
  5  6  1  0
  6  7  2  0
  7  8  1  0
  8  9  2  0
  9 10  1  0
 10 11  2  0
 11 12  1  0
 12 13  1  0
 12 14  2  0
 14 15  1  0
 14 16  1  0
 16 17  2  0
 17 18  1  0
 18 19  2  0
 19 20  1  0
 20 21  2  0
 21 22  1  0
 22 23  2  0
 23 24  1  0
 24 25  1  0
 25 26  1  0
 23 27  1  0
 27 28  1  0
 27 29  2  0
  7 30  1  0
 30 31  2  0
 31 32  1  0
 31  4  1  0
 19  8  1  0
 29 20  1  0
 17 10  1  0
  1 33  1  0
  1 34  1  0
  1 35  1  0
  2 36  1  0
  2 37  1  0
  5 38  1  0
  6 39  1  0
 11 40  1  0
 16 41  1  0
 21 42  1  0
 22 43  1  0
 25 44  1  0
 25 45  1  0
 26 46  1  0
 26 47  1  0
 26 48  1  0
 29 49  1  0
 30 50  1  0
M  END

