
     RDKit          3D

 80 86  0  0  0  0  0  0  0  0999 V2000
    3.5981   -3.7915    8.6077 C   0  0  0  0  0  0  0  0  0  0  0  0
    5.0349   -3.9905    8.1408 C   0  0  0  0  0  0  0  0  0  0  0  0
    5.1186   -5.0128    6.5668 Si  0  0  0  0  0  4  0  0  0  0  0  0
    4.3677   -6.7027    6.9257 C   0  0  0  0  0  0  0  0  0  0  0  0
    4.5555   -7.6784    5.7712 C   0  0  0  0  0  0  0  0  0  0  0  0
    6.9348   -5.1706    6.0941 C   0  0  0  0  0  0  0  0  0  0  0  0
    7.1438   -5.4302    4.6054 C   0  0  0  0  0  0  0  0  0  0  0  0
    4.1492   -4.1394    5.2600 C   0  0  0  0  0  0  0  0  0  0  0  0
    4.5588   -2.9829    4.5858 C   0  0  0  0  0  0  0  0  0  0  0  0
    3.5601   -2.5468    3.7251 C   0  0  0  0  0  0  0  0  0  0  0  0
    3.4208   -1.2718    2.6461 S   0  0  0  0  0  0  0  0  0  0  0  0
    1.8316   -1.6954    2.1825 C   0  0  0  0  0  0  0  0  0  0  0  0
    1.0152   -0.9632    1.1955 C   0  0  0  0  0  0  0  0  0  0  0  0
   -0.2639   -0.4615    1.5112 C   0  0  0  0  0  0  0  0  0  0  0  0
   -0.8830   -0.4944    2.7727 C   0  0  0  0  0  0  0  0  0  0  0  0
   -2.1346    0.1115    2.7863 C   0  0  0  0  0  0  0  0  0  0  0  0
   -2.4739    0.6984    1.2436 S   0  0  0  0  0  0  0  0  0  0  0  0
   -1.0373    0.1790    0.5367 C   0  0  0  0  0  0  0  0  0  0  0  0
   -0.5953    0.3652   -0.7871 C   0  0  0  0  0  0  0  0  0  0  0  0
   -1.4426    1.0478   -1.7870 C   0  0  0  0  0  0  0  0  0  0  0  0
   -2.7781    0.7236   -2.0678 C   0  0  0  0  0  0  0  0  0  0  0  0
   -3.2838    1.5602   -3.0537 C   0  0  0  0  0  0  0  0  0  0  0  0
   -4.7645    1.6919   -3.8254 S   0  0  0  0  0  0  0  0  0  0  0  0
   -4.2556    2.9797   -4.8219 C   0  0  0  0  0  0  0  0  0  0  0  0
   -5.3533    3.8576   -6.0200 Si  0  0  0  0  0  4  0  0  0  0  0  0
   -6.3844    2.6322   -7.0141 C   0  0  0  0  0  0  0  0  0  0  0  0
   -5.5917    1.4102   -7.4674 C   0  0  0  0  0  0  0  0  0  0  0  0
   -6.5197    4.9159   -4.9954 C   0  0  0  0  0  0  0  0  0  0  0  0
   -7.5161    5.6728   -5.8654 C   0  0  0  0  0  0  0  0  0  0  0  0
   -4.3481    4.9976   -7.1348 C   0  0  0  0  0  0  0  0  0  0  0  0
   -3.3964    4.2389   -8.0510 C   0  0  0  0  0  0  0  0  0  0  0  0
   -2.9318    3.3260   -4.5239 C   0  0  0  0  0  0  0  0  0  0  0  0
   -2.4261    2.4951   -3.5320 C   0  0  0  0  0  0  0  0  0  0  0  0
   -0.9478    2.3680   -2.7544 S   0  0  0  0  0  0  0  0  0  0  0  0
    0.6885   -0.1332   -1.1011 C   0  0  0  0  0  0  0  0  0  0  0  0
    1.3074   -0.1221   -2.3641 C   0  0  0  0  0  0  0  0  0  0  0  0
    2.5578   -0.7310   -2.3723 C   0  0  0  0  0  0  0  0  0  0  0  0
    2.8965   -1.3029   -0.8241 S   0  0  0  0  0  0  0  0  0  0  0  0
    1.4626   -0.7696   -0.1229 C   0  0  0  0  0  0  0  0  0  0  0  0
    1.4144   -2.8386    2.8774 C   0  0  0  0  0  0  0  0  0  0  0  0
    2.4187   -3.2798    3.7281 C   0  0  0  0  0  0  0  0  0  0  0  0
    2.5580   -4.5535    4.8049 S   0  0  0  0  0  0  0  0  0  0  0  0
    3.5916   -3.1682    9.5267 H   0  0  0  0  0  0  0  0  0  0  0  0
    3.0023   -3.2735    7.8261 H   0  0  0  0  0  0  0  0  0  0  0  0
    3.1281   -4.7694    8.8443 H   0  0  0  0  0  0  0  0  0  0  0  0
    5.6128   -4.5089    8.9343 H   0  0  0  0  0  0  0  0  0  0  0  0
    5.5009   -3.0011    7.9480 H   0  0  0  0  0  0  0  0  0  0  0  0
    3.2832   -6.5729    7.1222 H   0  0  0  0  0  0  0  0  0  0  0  0
    4.8423   -7.1187    7.8391 H   0  0  0  0  0  0  0  0  0  0  0  0
    5.6255   -7.9536    5.6714 H   0  0  0  0  0  0  0  0  0  0  0  0
    3.9790   -8.6057    5.9735 H   0  0  0  0  0  0  0  0  0  0  0  0
    4.1890   -7.2382    4.8207 H   0  0  0  0  0  0  0  0  0  0  0  0
    7.3804   -5.9990    6.6840 H   0  0  0  0  0  0  0  0  0  0  0  0
    7.4524   -4.2280    6.3689 H   0  0  0  0  0  0  0  0  0  0  0  0
    8.2274   -5.5755    4.4070 H   0  0  0  0  0  0  0  0  0  0  0  0
    6.8019   -4.5624    4.0057 H   0  0  0  0  0  0  0  0  0  0  0  0
    6.6018   -6.3389    4.2760 H   0  0  0  0  0  0  0  0  0  0  0  0
    5.5149   -2.4927    4.7172 H   0  0  0  0  0  0  0  0  0  0  0  0
   -0.4359   -0.9236    3.6596 H   0  0  0  0  0  0  0  0  0  0  0  0
   -2.7755    0.2042    3.6510 H   0  0  0  0  0  0  0  0  0  0  0  0
   -3.3374   -0.0728   -1.5958 H   0  0  0  0  0  0  0  0  0  0  0  0
   -7.2270    2.2922   -6.3750 H   0  0  0  0  0  0  0  0  0  0  0  0
   -6.8030    3.1545   -7.9008 H   0  0  0  0  0  0  0  0  0  0  0  0
   -6.2678    0.7193   -8.0130 H   0  0  0  0  0  0  0  0  0  0  0  0
   -4.7717    1.7001   -8.1500 H   0  0  0  0  0  0  0  0  0  0  0  0
   -5.1703    0.8662   -6.5987 H   0  0  0  0  0  0  0  0  0  0  0  0
   -5.9197    5.6400   -4.4034 H   0  0  0  0  0  0  0  0  0  0  0  0
   -7.0710    4.2539   -4.2942 H   0  0  0  0  0  0  0  0  0  0  0  0
   -8.2058    6.2497   -5.2153 H   0  0  0  0  0  0  0  0  0  0  0  0
   -6.9875    6.3859   -6.5318 H   0  0  0  0  0  0  0  0  0  0  0  0
   -8.1178    4.9676   -6.4772 H   0  0  0  0  0  0  0  0  0  0  0  0
   -3.7664    5.6875   -6.4889 H   0  0  0  0  0  0  0  0  0  0  0  0
   -5.0396    5.6047   -7.7559 H   0  0  0  0  0  0  0  0  0  0  0  0
   -2.6989    4.9566   -8.5325 H   0  0  0  0  0  0  0  0  0  0  0  0
   -3.9663    3.7266   -8.8533 H   0  0  0  0  0  0  0  0  0  0  0  0
   -2.7981    3.4979   -7.4805 H   0  0  0  0  0  0  0  0  0  0  0  0
   -2.3759    4.1256   -4.9949 H   0  0  0  0  0  0  0  0  0  0  0  0
    0.8627    0.2861   -3.2597 H   0  0  0  0  0  0  0  0  0  0  0  0
    3.1963   -0.8374   -3.2382 H   0  0  0  0  0  0  0  0  0  0  0  0
    0.4494   -3.3157    2.7654 H   0  0  0  0  0  0  0  0  0  0  0  0
  1  2  1  0
  2  3  1  0
  3  4  1  0
  4  5  1  0
  3  6  1  0
  6  7  1  0
  3  8  1  0
  8  9  2  0
  9 10  1  0
 10 11  1  0
 11 12  1  0
 12 13  1  0
 13 14  2  0
 14 15  1  0
 15 16  2  0
 16 17  1  0
 17 18  1  0
 18 19  2  0
 19 20  1  0
 20 21  2  0
 21 22  1  0
 22 23  1  0
 23 24  1  0
 24 25  1  0
 25 26  1  0
 26 27  1  0
 25 28  1  0
 28 29  1  0
 25 30  1  0
 30 31  1  0
 24 32  2  0
 32 33  1  0
 33 34  1  0
 19 35  1  0
 35 36  1  0
 36 37  2  0
 37 38  1  0
 38 39  1  0
 12 40  2  0
 40 41  1  0
 41 42  1  0
 42  8  1  0
 41 10  2  0
 39 13  1  0
 18 14  1  0
 34 20  1  0
 39 35  2  0
 33 22  2  0
  1 43  1  0
  1 44  1  0
  1 45  1  0
  2 46  1  0
  2 47  1  0
  4 48  1  0
  4 49  1  0
  5 50  1  0
  5 51  1  0
  5 52  1  0
  6 53  1  0
  6 54  1  0
  7 55  1  0
  7 56  1  0
  7 57  1  0
  9 58  1  0
 15 59  1  0
 16 60  1  0
 21 61  1  0
 26 62  1  0
 26 63  1  0
 27 64  1  0
 27 65  1  0
 27 66  1  0
 28 67  1  0
 28 68  1  0
 29 69  1  0
 29 70  1  0
 29 71  1  0
 30 72  1  0
 30 73  1  0
 31 74  1  0
 31 75  1  0
 31 76  1  0
 32 77  1  0
 36 78  1  0
 37 79  1  0
 40 80  1  0
M  END

