
     RDKit          3D

 48 53  0  0  0  0  0  0  0  0999 V2000
    3.7142    0.7233    6.8992 C   0  0  0  0  0  0  0  0  0  0  0  0
    5.0829    0.6359    6.2365 C   0  0  0  0  0  0  0  0  0  0  0  0
    5.3860   -1.0401    5.5749 S   0  0  0  0  0  0  0  0  0  0  0  0
    4.4764   -0.7791    4.0533 C   0  0  0  0  0  0  0  0  0  0  0  0
    4.9922   -0.2275    2.8901 C   0  0  0  0  0  0  0  0  0  0  0  0
    4.0574   -0.1702    1.8504 C   0  0  0  0  0  0  0  0  0  0  0  0
    2.8121   -0.6845    2.2008 C   0  0  0  0  0  0  0  0  0  0  0  0
    1.6309   -0.7625    1.3181 C   0  0  0  0  0  0  0  0  0  0  0  0
    1.1286    0.3674    0.6359 C   0  0  0  0  0  0  0  0  0  0  0  0
    1.6192    1.6827    0.7173 C   0  0  0  0  0  0  0  0  0  0  0  0
    0.9146    2.5832   -0.0757 C   0  0  0  0  0  0  0  0  0  0  0  0
   -0.3245    1.7610   -0.8690 S   0  0  0  0  0  0  0  0  0  0  0  0
    0.0186    0.2523   -0.2077 C   0  0  0  0  0  0  0  0  0  0  0  0
   -0.6481   -0.9662   -0.4272 C   0  0  0  0  0  0  0  0  0  0  0  0
   -1.8080   -1.0509   -1.3405 C   0  0  0  0  0  0  0  0  0  0  0  0
   -1.7394   -1.8445   -2.4955 C   0  0  0  0  0  0  0  0  0  0  0  0
   -2.8294   -1.9240   -3.3658 C   0  0  0  0  0  0  0  0  0  0  0  0
   -4.0033   -1.2071   -3.0932 C   0  0  0  0  0  0  0  0  0  0  0  0
   -5.1040   -1.2787   -3.9611 C   0  0  0  0  0  0  0  0  0  0  0  0
   -6.2683   -0.5586   -3.6783 C   0  0  0  0  0  0  0  0  0  0  0  0
   -6.3429    0.2359   -2.5311 C   0  0  0  0  0  0  0  0  0  0  0  0
   -5.2539    0.3159   -1.6584 C   0  0  0  0  0  0  0  0  0  0  0  0
   -4.0788   -0.4020   -1.9305 C   0  0  0  0  0  0  0  0  0  0  0  0
   -2.9794   -0.3299   -1.0622 C   0  0  0  0  0  0  0  0  0  0  0  0
   -0.1514   -2.0938    0.2593 C   0  0  0  0  0  0  0  0  0  0  0  0
   -0.6681   -3.3997    0.2001 C   0  0  0  0  0  0  0  0  0  0  0  0
    0.0422   -4.3076    0.9789 C   0  0  0  0  0  0  0  0  0  0  0  0
    1.3033   -3.4961    1.7484 S   0  0  0  0  0  0  0  0  0  0  0  0
    0.9552   -1.9792    1.1078 C   0  0  0  0  0  0  0  0  0  0  0  0
    2.8736   -1.2141    3.7994 S   0  0  0  0  0  0  0  0  0  0  0  0
    3.5911    1.7233    7.3657 H   0  0  0  0  0  0  0  0  0  0  0  0
    2.9094    0.5846    6.1488 H   0  0  0  0  0  0  0  0  0  0  0  0
    3.6199   -0.0528    7.6879 H   0  0  0  0  0  0  0  0  0  0  0  0
    5.8622    0.8519    6.9973 H   0  0  0  0  0  0  0  0  0  0  0  0
    5.1686    1.3991    5.4334 H   0  0  0  0  0  0  0  0  0  0  0  0
    6.0117    0.1215    2.7946 H   0  0  0  0  0  0  0  0  0  0  0  0
    4.2883    0.2241    0.8694 H   0  0  0  0  0  0  0  0  0  0  0  0
    2.4520    1.9867    1.3361 H   0  0  0  0  0  0  0  0  0  0  0  0
    1.1254    3.6404   -0.1619 H   0  0  0  0  0  0  0  0  0  0  0  0
   -0.8373   -2.3990   -2.7239 H   0  0  0  0  0  0  0  0  0  0  0  0
   -2.7540   -2.5433   -4.2517 H   0  0  0  0  0  0  0  0  0  0  0  0
   -5.0639   -1.8895   -4.8552 H   0  0  0  0  0  0  0  0  0  0  0  0
   -7.1150   -0.6164   -4.3501 H   0  0  0  0  0  0  0  0  0  0  0  0
   -7.2472    0.7911   -2.3177 H   0  0  0  0  0  0  0  0  0  0  0  0
   -5.3297    0.9370   -0.7738 H   0  0  0  0  0  0  0  0  0  0  0  0
   -3.0328    0.2805   -0.1675 H   0  0  0  0  0  0  0  0  0  0  0  0
   -1.5312   -3.6866   -0.3853 H   0  0  0  0  0  0  0  0  0  0  0  0
   -0.1812   -5.3614    1.0745 H   0  0  0  0  0  0  0  0  0  0  0  0
  1  2  1  0
  2  3  1  0
  3  4  1  0
  4  5  2  0
  5  6  1  0
  6  7  2  0
  7  8  1  0
  8  9  2  0
  9 10  1  0
 10 11  2  0
 11 12  1  0
 12 13  1  0
 13 14  2  0
 14 15  1  0
 15 16  2  0
 16 17  1  0
 17 18  2  0
 18 19  1  0
 19 20  2  0
 20 21  1  0
 21 22  2  0
 22 23  1  0
 23 24  2  0
 14 25  1  0
 25 26  1  0
 26 27  2  0
 27 28  1  0
 28 29  1  0
  7 30  1  0
 30  4  1  0
 29  8  1  0
 13  9  1  0
 24 15  1  0
 29 25  2  0
 23 18  1  0
  1 31  1  0
  1 32  1  0
  1 33  1  0
  2 34  1  0
  2 35  1  0
  5 36  1  0
  6 37  1  0
 10 38  1  0
 11 39  1  0
 16 40  1  0
 17 41  1  0
 19 42  1  0
 20 43  1  0
 21 44  1  0
 22 45  1  0
 24 46  1  0
 26 47  1  0
 27 48  1  0
M  END

