
     RDKit          3D

 14 14  0  0  0  0  0  0  0  0999 V2000
   -0.5187    0.2456    1.3852 C   0  0  0  0  0  0  0  0  0  0  0  0
    0.3513   -0.7554    0.6336 C   0  0  0  0  0  0  0  0  0  0  0  0
    1.7784   -0.3001    0.6062 C   0  0  0  0  0  0  0  0  0  0  0  0
    2.2868    0.5466   -0.3750 C   0  0  0  0  0  0  0  0  0  0  0  0
    3.8963    0.8478    0.0015 S   0  0  0  0  0  0  0  0  0  0  0  0
    3.8778   -0.0962    1.3914 C   0  0  0  0  0  0  0  0  0  0  0  0
    2.6591   -0.6447    1.5853 N   0  0  0  0  0  0  0  0  0  0  0  0
   -0.1652    0.3533    2.4331 H   0  0  0  0  0  0  0  0  0  0  0  0
   -0.4872    1.2367    0.8837 H   0  0  0  0  0  0  0  0  0  0  0  0
   -1.5696   -0.1123    1.3993 H   0  0  0  0  0  0  0  0  0  0  0  0
    0.2876   -1.7459    1.1335 H   0  0  0  0  0  0  0  0  0  0  0  0
   -0.0291   -0.8701   -0.4046 H   0  0  0  0  0  0  0  0  0  0  0  0
    1.7438    0.9442   -1.2222 H   0  0  0  0  0  0  0  0  0  0  0  0
    4.7166   -0.2502    2.0563 H   0  0  0  0  0  0  0  0  0  0  0  0
  1  2  1  0
  2  3  1  0
  3  4  2  0
  4  5  1  0
  5  6  1  0
  6  7  2  0
  7  3  1  0
  1  8  1  0
  1  9  1  0
  1 10  1  0
  2 11  1  0
  2 12  1  0
  4 13  1  0
  6 14  1  0
M  END

