
     RDKit          3D

 26 27  0  0  0  0  0  0  0  0999 V2000
    0.3625    1.7867    3.8506 C   0  0  0  0  0  0  0  0  0  0  0  0
    0.5114    0.8524    2.9066 C   0  0  0  0  0  0  0  0  0  0  0  0
    1.7853    0.2007    2.6190 C   0  0  0  0  0  0  0  0  0  0  0  0
    2.8373    0.2899    3.3071 O   0  0  0  0  0  0  0  0  0  0  0  0
    1.6520   -0.5229    1.3742 C   0  0  0  0  0  0  0  0  0  0  0  0
    2.6363   -1.2191    0.6764 C   0  0  0  0  0  0  0  0  0  0  0  0
    2.3052   -1.7823   -0.5615 C   0  0  0  0  0  0  0  0  0  0  0  0
    1.0145   -1.6257   -1.1000 C   0  0  0  0  0  0  0  0  0  0  0  0
    0.7502   -2.1916   -2.3565 O   0  0  0  0  0  0  0  0  0  0  0  0
   -0.5055   -2.1203   -3.0241 C   0  0  0  0  0  0  0  0  0  0  0  0
    0.0355   -0.9067   -0.3735 C   0  0  0  0  0  0  0  0  0  0  0  0
    0.3629   -0.3788    0.8871 C   0  0  0  0  0  0  0  0  0  0  0  0
   -0.4558    0.4139    1.8544 C   0  0  0  0  0  0  0  0  0  0  0  0
   -1.8092    0.5355    1.8801 C   0  0  0  0  0  0  0  0  0  0  0  0
   -2.6620   -0.0454    0.8768 C   0  0  0  0  0  0  0  0  0  0  0  0
   -3.3632   -0.5086    0.0804 N   0  0  0  0  0  0  0  0  0  0  0  0
   -2.5101    1.1524    2.9760 C   0  0  0  0  0  0  0  0  0  0  0  0
   -3.0864    1.6421    3.8525 N   0  0  0  0  0  0  0  0  0  0  0  0
    1.1868    2.0325    4.5080 H   0  0  0  0  0  0  0  0  0  0  0  0
   -0.5376    2.3664    3.9606 H   0  0  0  0  0  0  0  0  0  0  0  0
    3.6384   -1.3147    1.0744 H   0  0  0  0  0  0  0  0  0  0  0  0
    3.0580   -2.3276   -1.1164 H   0  0  0  0  0  0  0  0  0  0  0  0
   -0.4340   -2.6620   -3.9894 H   0  0  0  0  0  0  0  0  0  0  0  0
   -0.7690   -1.0613   -3.2299 H   0  0  0  0  0  0  0  0  0  0  0  0
   -1.2948   -2.5979   -2.4058 H   0  0  0  0  0  0  0  0  0  0  0  0
   -0.9326   -0.7444   -0.8087 H   0  0  0  0  0  0  0  0  0  0  0  0
  1  2  2  3
  2  3  1  0
  3  4  2  0
  3  5  1  0
  5  6  2  0
  6  7  1  0
  7  8  2  0
  8  9  1  0
  9 10  1  0
  8 11  1  0
 11 12  2  0
 12 13  1  0
 13 14  2  3
 14 15  1  0
 15 16  3  0
 14 17  1  0
 17 18  3  0
 13  2  1  0
 12  5  1  0
  1 19  1  0
  1 20  1  0
  6 21  1  0
  7 22  1  0
 10 23  1  0
 10 24  1  0
 10 25  1  0
 11 26  1  0
M  END

