
     RDKit          3D

 26 27  0  0  0  0  0  0  0  0999 V2000
    1.0810   -3.5563    2.6327 C   0  0  0  0  0  0  0  0  0  0  0  0
    0.2716   -2.7016    2.0014 C   0  0  0  0  0  0  0  0  0  0  0  0
   -1.0750   -3.0373    1.5522 C   0  0  0  0  0  0  0  0  0  0  0  0
   -1.7242   -4.0729    1.8589 O   0  0  0  0  0  0  0  0  0  0  0  0
   -1.5082   -2.0111    0.6272 C   0  0  0  0  0  0  0  0  0  0  0  0
   -2.6620   -1.9958   -0.1533 C   0  0  0  0  0  0  0  0  0  0  0  0
   -2.8004   -0.9911   -1.1163 C   0  0  0  0  0  0  0  0  0  0  0  0
   -1.7636   -0.0677   -1.3314 C   0  0  0  0  0  0  0  0  0  0  0  0
   -0.5777   -0.1188   -0.5600 C   0  0  0  0  0  0  0  0  0  0  0  0
    0.5331    0.6803   -0.8644 O   0  0  0  0  0  0  0  0  0  0  0  0
    0.5776    1.6357   -1.9191 C   0  0  0  0  0  0  0  0  0  0  0  0
   -0.5116   -1.0540    0.4943 C   0  0  0  0  0  0  0  0  0  0  0  0
    0.5873   -1.3486    1.4614 C   0  0  0  0  0  0  0  0  0  0  0  0
    1.4383   -0.4495    2.0201 C   0  0  0  0  0  0  0  0  0  0  0  0
    2.3370   -0.8015    3.0892 C   0  0  0  0  0  0  0  0  0  0  0  0
    3.0615   -1.0726    3.9505 N   0  0  0  0  0  0  0  0  0  0  0  0
    1.3652    0.9598    1.7349 C   0  0  0  0  0  0  0  0  0  0  0  0
    1.3116    2.0966    1.5225 N   0  0  0  0  0  0  0  0  0  0  0  0
    0.7230   -4.5372    2.9184 H   0  0  0  0  0  0  0  0  0  0  0  0
    2.1184   -3.3323    2.8221 H   0  0  0  0  0  0  0  0  0  0  0  0
   -3.4248   -2.7546   -0.0350 H   0  0  0  0  0  0  0  0  0  0  0  0
   -3.6901   -0.9551   -1.7316 H   0  0  0  0  0  0  0  0  0  0  0  0
   -1.8790    0.6552   -2.1270 H   0  0  0  0  0  0  0  0  0  0  0  0
   -0.1957    2.4165   -1.7595 H   0  0  0  0  0  0  0  0  0  0  0  0
    1.5750    2.1208   -1.9257 H   0  0  0  0  0  0  0  0  0  0  0  0
    0.4200    1.1333   -2.8968 H   0  0  0  0  0  0  0  0  0  0  0  0
  1  2  2  3
  2  3  1  0
  3  4  2  0
  3  5  1  0
  5  6  2  0
  6  7  1  0
  7  8  2  0
  8  9  1  0
  9 10  1  0
 10 11  1  0
  9 12  2  0
 12 13  1  0
 13 14  2  3
 14 15  1  0
 15 16  3  0
 14 17  1  0
 17 18  3  0
 13  2  1  0
 12  5  1  0
  1 19  1  0
  1 20  1  0
  6 21  1  0
  7 22  1  0
  8 23  1  0
 11 24  1  0
 11 25  1  0
 11 26  1  0
M  END

