
     RDKit          3D

 26 27  0  0  0  0  0  0  0  0999 V2000
   -2.6702   -2.7852    0.3406 C   0  0  0  0  0  0  0  0  0  0  0  0
   -1.7546   -1.8195    0.4658 C   0  0  0  0  0  0  0  0  0  0  0  0
   -0.9107   -1.6657    1.6466 C   0  0  0  0  0  0  0  0  0  0  0  0
   -1.0407   -2.2828    2.7377 O   0  0  0  0  0  0  0  0  0  0  0  0
    0.1386   -0.7210    1.3336 C   0  0  0  0  0  0  0  0  0  0  0  0
    1.2122   -0.3339    2.1354 C   0  0  0  0  0  0  0  0  0  0  0  0
    2.1715    0.5513    1.6002 C   0  0  0  0  0  0  0  0  0  0  0  0
    3.2774    0.9953    2.3398 O   0  0  0  0  0  0  0  0  0  0  0  0
    3.5465    0.6179    3.6861 C   0  0  0  0  0  0  0  0  0  0  0  0
    2.0295    1.0032    0.2751 C   0  0  0  0  0  0  0  0  0  0  0  0
    0.9440    0.5951   -0.5161 C   0  0  0  0  0  0  0  0  0  0  0  0
   -0.0221   -0.2608    0.0363 C   0  0  0  0  0  0  0  0  0  0  0  0
   -1.2585   -0.8519   -0.5603 C   0  0  0  0  0  0  0  0  0  0  0  0
   -1.8931   -0.4583   -1.6958 C   0  0  0  0  0  0  0  0  0  0  0  0
   -1.3772    0.5712   -2.5587 C   0  0  0  0  0  0  0  0  0  0  0  0
   -0.9793    1.3990   -3.2635 N   0  0  0  0  0  0  0  0  0  0  0  0
   -3.1901   -0.9581   -2.0709 C   0  0  0  0  0  0  0  0  0  0  0  0
   -4.2346   -1.3484   -2.3823 N   0  0  0  0  0  0  0  0  0  0  0  0
   -3.1864   -2.9844   -0.5824 H   0  0  0  0  0  0  0  0  0  0  0  0
   -2.8789   -3.4482    1.1707 H   0  0  0  0  0  0  0  0  0  0  0  0
    1.2976   -0.7232    3.1409 H   0  0  0  0  0  0  0  0  0  0  0  0
    2.7123    0.9371    4.3461 H   0  0  0  0  0  0  0  0  0  0  0  0
    3.6880   -0.4815    3.7534 H   0  0  0  0  0  0  0  0  0  0  0  0
    4.4777    1.1173    4.0235 H   0  0  0  0  0  0  0  0  0  0  0  0
    2.7736    1.6669   -0.1468 H   0  0  0  0  0  0  0  0  0  0  0  0
    0.9034    0.9317   -1.5369 H   0  0  0  0  0  0  0  0  0  0  0  0
  1  2  2  3
  2  3  1  0
  3  4  2  0
  3  5  1  0
  5  6  2  0
  6  7  1  0
  7  8  1  0
  8  9  1  0
  7 10  2  0
 10 11  1  0
 11 12  2  0
 12 13  1  0
 13 14  2  3
 14 15  1  0
 15 16  3  0
 14 17  1  0
 17 18  3  0
 13  2  1  0
 12  5  1  0
  1 19  1  0
  1 20  1  0
  6 21  1  0
  9 22  1  0
  9 23  1  0
  9 24  1  0
 10 25  1  0
 11 26  1  0
M  END

