
     RDKit          3D

 32 34  0  0  0  0  0  0  0  0999 V2000
    0.6647   -5.9644    4.4449 C   0  0  0  0  0  0  0  0  0  0  0  0
   -0.5701   -5.6855    3.6031 C   0  0  0  0  0  0  0  0  0  0  0  0
   -0.3805   -4.4848    2.8621 O   0  0  0  0  0  0  0  0  0  0  0  0
   -1.3503   -3.9721    1.9955 C   0  0  0  0  0  0  0  0  0  0  0  0
   -2.4496   -4.5702    1.8384 O   0  0  0  0  0  0  0  0  0  0  0  0
   -1.0857   -2.7282    1.2636 C   0  0  0  0  0  0  0  0  0  0  0  0
    0.0868   -1.9750    1.3507 C   0  0  0  0  0  0  0  0  0  0  0  0
    0.0521   -0.8381    0.5370 C   0  0  0  0  0  0  0  0  0  0  0  0
    1.0786    0.1170    0.4081 C   0  0  0  0  0  0  0  0  0  0  0  0
    0.8261    1.1778   -0.4671 C   0  0  0  0  0  0  0  0  0  0  0  0
    1.6130    2.2198   -0.7728 N   0  0  0  0  0  0  0  0  0  0  0  0
    0.9061    2.9330   -1.6483 N   0  0  0  0  0  0  0  0  0  0  0  0
    1.3692    4.1950   -2.2117 C   0  0  0  0  0  0  0  0  0  0  0  0
    0.9538    5.3536   -1.3149 C   0  0  0  0  0  0  0  0  0  0  0  0
   -0.2931    2.4132   -1.9062 N   0  0  0  0  0  0  0  0  0  0  0  0
   -0.3475    1.2970   -1.1650 C   0  0  0  0  0  0  0  0  0  0  0  0
   -1.3845    0.3678   -1.0572 C   0  0  0  0  0  0  0  0  0  0  0  0
   -1.1459   -0.7046   -0.1838 C   0  0  0  0  0  0  0  0  0  0  0  0
   -2.1616   -1.9889    0.1832 S   0  0  0  0  0  0  0  0  0  0  0  0
    0.8394   -5.1256    5.1516 H   0  0  0  0  0  0  0  0  0  0  0  0
    1.5531   -6.0796    3.7884 H   0  0  0  0  0  0  0  0  0  0  0  0
    0.5201   -6.9006    5.0243 H   0  0  0  0  0  0  0  0  0  0  0  0
   -0.7386   -6.5346    2.9056 H   0  0  0  0  0  0  0  0  0  0  0  0
   -1.4531   -5.5797    4.2701 H   0  0  0  0  0  0  0  0  0  0  0  0
    0.9293   -2.2394    1.9773 H   0  0  0  0  0  0  0  0  0  0  0  0
    2.0101    0.0382    0.9541 H   0  0  0  0  0  0  0  0  0  0  0  0
    2.4764    4.1785   -2.3081 H   0  0  0  0  0  0  0  0  0  0  0  0
    0.9341    4.3351   -3.2249 H   0  0  0  0  0  0  0  0  0  0  0  0
    1.3103    6.3104   -1.7512 H   0  0  0  0  0  0  0  0  0  0  0  0
    1.3979    5.2321   -0.3041 H   0  0  0  0  0  0  0  0  0  0  0  0
   -0.1529    5.3896   -1.2260 H   0  0  0  0  0  0  0  0  0  0  0  0
   -2.3097    0.4689   -1.6093 H   0  0  0  0  0  0  0  0  0  0  0  0
  1  2  1  0
  2  3  1  0
  3  4  1  0
  4  5  2  0
  4  6  1  0
  6  7  2  0
  7  8  1  0
  8  9  2  0
  9 10  1  0
 10 11  2  0
 11 12  1  0
 12 13  1  0
 13 14  1  0
 12 15  1  0
 15 16  2  0
 16 17  1  0
 17 18  2  0
 18 19  1  0
 19  6  1  0
 18  8  1  0
 16 10  1  0
  1 20  1  0
  1 21  1  0
  1 22  1  0
  2 23  1  0
  2 24  1  0
  7 25  1  0
  9 26  1  0
 13 27  1  0
 13 28  1  0
 14 29  1  0
 14 30  1  0
 14 31  1  0
 17 32  1  0
M  END

