
     RDKit          3D

 77 86  0  0  0  0  0  0  0  0999 V2000
    1.2878    2.3042   -8.8557 C   0  0  0  0  0  0  0  0  0  0  0  0
    0.4213    3.2135   -7.9903 C   0  0  0  0  0  0  0  0  0  0  0  0
    1.2728    4.0409   -7.0646 C   0  0  0  0  0  0  0  0  0  0  0  0
    1.7559    5.2918   -7.4759 C   0  0  0  0  0  0  0  0  0  0  0  0
    2.5725    6.0423   -6.6282 C   0  0  0  0  0  0  0  0  0  0  0  0
    2.9166    5.5510   -5.3663 C   0  0  0  0  0  0  0  0  0  0  0  0
    2.4452    4.2983   -4.9376 C   0  0  0  0  0  0  0  0  0  0  0  0
    2.8259    3.7770   -3.6039 C   0  0  0  0  0  0  0  0  0  0  0  0
    4.0967    3.9560   -3.0296 C   0  0  0  0  0  0  0  0  0  0  0  0
    4.1745    3.1725   -1.5178 S   0  0  0  0  0  0  0  0  0  0  0  0
    2.5907    2.6330   -1.5831 C   0  0  0  0  0  0  0  0  0  0  0  0
    1.9982    3.0322   -2.7544 C   0  0  0  0  0  0  0  0  0  0  0  0
    0.4029    2.4321   -2.8707 S   0  0  0  0  0  0  0  0  0  0  0  0
    0.5364    1.6935   -1.3496 C   0  0  0  0  0  0  0  0  0  0  0  0
   -0.0864    0.6967   -0.6577 C   0  0  0  0  0  0  0  0  0  0  0  0
   -1.2213   -0.0610   -0.9613 C   0  0  0  0  0  0  0  0  0  0  0  0
   -2.0576    0.1971   -1.9968 N   0  0  0  0  0  0  0  0  0  0  0  0
   -3.1523   -1.0275   -1.7808 S   0  0  0  0  0  0  0  0  0  0  0  0
   -2.6469   -1.8873   -0.4581 N   0  0  0  0  0  0  0  0  0  0  0  0
   -1.5283   -1.1878   -0.1449 C   0  0  0  0  0  0  0  0  0  0  0  0
   -0.6926   -1.4819    0.9399 C   0  0  0  0  0  0  0  0  0  0  0  0
   -0.8955   -2.3028    2.0094 C   0  0  0  0  0  0  0  0  0  0  0  0
   -2.1898   -3.2177    2.6113 S   0  0  0  0  0  0  0  0  0  0  0  0
   -1.5255   -3.1873    4.1804 C   0  0  0  0  0  0  0  0  0  0  0  0
   -2.0015   -3.6098    5.4277 C   0  0  0  0  0  0  0  0  0  0  0  0
   -3.2274   -4.4125    5.6444 C   0  0  0  0  0  0  0  0  0  0  0  0
   -4.0426   -4.1752    6.7645 C   0  0  0  0  0  0  0  0  0  0  0  0
   -5.1946   -4.9369    6.9743 C   0  0  0  0  0  0  0  0  0  0  0  0
   -5.5471   -5.9409    6.0707 C   0  0  0  0  0  0  0  0  0  0  0  0
   -4.7491   -6.1893    4.9444 C   0  0  0  0  0  0  0  0  0  0  0  0
   -5.1076   -7.2964    3.9899 C   0  0  0  0  0  0  0  0  0  0  0  0
   -4.4622   -8.6098    4.4189 C   0  0  0  0  0  0  0  0  0  0  0  0
   -3.5820   -5.4343    4.7457 C   0  0  0  0  0  0  0  0  0  0  0  0
   -1.1815   -3.1326    6.4631 C   0  0  0  0  0  0  0  0  0  0  0  0
    0.0843   -2.1983    5.8135 S   0  0  0  0  0  0  0  0  0  0  0  0
   -0.3830   -2.4250    4.2204 C   0  0  0  0  0  0  0  0  0  0  0  0
   -0.0072   -1.9380    2.9707 C   0  0  0  0  0  0  0  0  0  0  0  0
    0.8152   -0.9321    2.5689 N   0  0  0  0  0  0  0  0  0  0  0  0
    1.5167   -0.0158    3.4790 C   0  0  0  0  0  0  0  0  0  0  0  0
    2.7649   -0.6718    4.0797 C   0  0  0  0  0  0  0  0  0  0  0  0
    0.4210   -0.6913    1.2725 C   0  0  0  0  0  0  0  0  0  0  0  0
    0.7858    0.3625    0.3917 C   0  0  0  0  0  0  0  0  0  0  0  0
    1.9751    1.0385    0.2675 N   0  0  0  0  0  0  0  0  0  0  0  0
    3.3090    0.5443    0.6294 C   0  0  0  0  0  0  0  0  0  0  0  0
    3.8427   -0.4140   -0.4335 C   0  0  0  0  0  0  0  0  0  0  0  0
    1.7521    1.8742   -0.7792 C   0  0  0  0  0  0  0  0  0  0  0  0
    1.6366    3.5411   -5.8039 C   0  0  0  0  0  0  0  0  0  0  0  0
    0.6382    1.6971   -9.5214 H   0  0  0  0  0  0  0  0  0  0  0  0
    1.8849    1.6168   -8.2184 H   0  0  0  0  0  0  0  0  0  0  0  0
    1.9762    2.9104   -9.4834 H   0  0  0  0  0  0  0  0  0  0  0  0
   -0.2899    2.5915   -7.4024 H   0  0  0  0  0  0  0  0  0  0  0  0
   -0.1852    3.8750   -8.6471 H   0  0  0  0  0  0  0  0  0  0  0  0
    1.5033    5.6822   -8.4540 H   0  0  0  0  0  0  0  0  0  0  0  0
    2.9399    7.0079   -6.9491 H   0  0  0  0  0  0  0  0  0  0  0  0
    3.5425    6.1549   -4.7213 H   0  0  0  0  0  0  0  0  0  0  0  0
    4.9213    4.4845   -3.4895 H   0  0  0  0  0  0  0  0  0  0  0  0
   -3.7958   -3.3931    7.4712 H   0  0  0  0  0  0  0  0  0  0  0  0
   -5.8161   -4.7486    7.8396 H   0  0  0  0  0  0  0  0  0  0  0  0
   -6.4386   -6.5285    6.2503 H   0  0  0  0  0  0  0  0  0  0  0  0
   -6.2110   -7.4254    3.9501 H   0  0  0  0  0  0  0  0  0  0  0  0
   -4.7686   -7.0396    2.9626 H   0  0  0  0  0  0  0  0  0  0  0  0
   -4.7398   -9.4126    3.7034 H   0  0  0  0  0  0  0  0  0  0  0  0
   -4.8146   -8.9000    5.4320 H   0  0  0  0  0  0  0  0  0  0  0  0
   -3.3556   -8.5094    4.4288 H   0  0  0  0  0  0  0  0  0  0  0  0
   -2.9418   -5.6614    3.9022 H   0  0  0  0  0  0  0  0  0  0  0  0
   -1.3320   -3.3169    7.5187 H   0  0  0  0  0  0  0  0  0  0  0  0
    1.7958    0.9204    2.9554 H   0  0  0  0  0  0  0  0  0  0  0  0
    0.8323    0.2960    4.2967 H   0  0  0  0  0  0  0  0  0  0  0  0
    3.2681   -1.3357    3.3468 H   0  0  0  0  0  0  0  0  0  0  0  0
    3.4782    0.1143    4.4061 H   0  0  0  0  0  0  0  0  0  0  0  0
    2.5083   -1.2841    4.9637 H   0  0  0  0  0  0  0  0  0  0  0  0
    3.2868   -0.0024    1.5743 H   0  0  0  0  0  0  0  0  0  0  0  0
    4.0071    1.3964    0.7584 H   0  0  0  0  0  0  0  0  0  0  0  0
    4.8434   -0.7872   -0.1300 H   0  0  0  0  0  0  0  0  0  0  0  0
    3.1566   -1.2802   -0.5436 H   0  0  0  0  0  0  0  0  0  0  0  0
    3.9389    0.0984   -1.4128 H   0  0  0  0  0  0  0  0  0  0  0  0
    1.3098    2.5508   -5.5161 H   0  0  0  0  0  0  0  0  0  0  0  0
  1  2  1  0
  2  3  1  0
  3  4  2  0
  4  5  1  0
  5  6  2  0
  6  7  1  0
  7  8  1  0
  8  9  2  0
  9 10  1  0
 10 11  1  0
 11 12  2  0
 12 13  1  0
 13 14  1  0
 14 15  1  0
 15 16  1  0
 16 17  2  0
 17 18  1  0
 18 19  1  0
 19 20  2  0
 20 21  1  0
 21 22  1  0
 22 23  1  0
 23 24  1  0
 24 25  1  0
 25 26  1  0
 26 27  2  0
 27 28  1  0
 28 29  2  0
 29 30  1  0
 30 31  1  0
 31 32  1  0
 30 33  2  0
 25 34  2  0
 34 35  1  0
 35 36  1  0
 36 37  1  0
 37 38  1  0
 38 39  1  0
 39 40  1  0
 38 41  1  0
 41 42  1  0
 42 43  1  0
 43 44  1  0
 44 45  1  0
 43 46  1  0
  7 47  2  0
 47  3  1  0
 12  8  1  0
 46 14  2  0
 46 11  1  0
 42 15  2  0
 20 16  1  0
 41 21  2  0
 37 22  2  0
 36 24  2  0
 33 26  1  0
  1 48  1  0
  1 49  1  0
  1 50  1  0
  2 51  1  0
  2 52  1  0
  4 53  1  0
  5 54  1  0
  6 55  1  0
  9 56  1  0
 27 57  1  0
 28 58  1  0
 29 59  1  0
 31 60  1  0
 31 61  1  0
 32 62  1  0
 32 63  1  0
 32 64  1  0
 33 65  1  0
 34 66  1  0
 39 67  1  0
 39 68  1  0
 40 69  1  0
 40 70  1  0
 40 71  1  0
 44 72  1  0
 44 73  1  0
 45 74  1  0
 45 75  1  0
 45 76  1  0
 47 77  1  0
M  END

