
     RDKit          3D

178195  0  0  0  0  0  0  0  0999 V2000
   -1.9790    4.8932    2.2599 C   0  0  0  0  0  0  0  0  0  0  0  0
   -3.0333    4.6841    3.3438 C   0  0  0  0  0  0  0  0  0  0  0  0
   -2.3862    4.4455    4.6819 C   0  0  0  0  0  0  0  0  0  0  0  0
   -2.1185    5.5183    5.5451 C   0  0  0  0  0  0  0  0  0  0  0  0
   -1.5388    5.2863    6.7918 C   0  0  0  0  0  0  0  0  0  0  0  0
   -1.1893    3.9889    7.1745 C   0  0  0  0  0  0  0  0  0  0  0  0
   -1.3688    2.9023    6.2916 C   0  0  0  0  0  0  0  0  0  0  0  0
   -0.9880    1.4789    6.7252 C   0  0  0  0  0  0  0  0  0  0  0  0
    0.2592    1.4114    7.6198 C   0  0  0  0  0  0  0  0  0  0  0  0
    1.4025    2.1680    7.2904 C   0  0  0  0  0  0  0  0  0  0  0  0
    2.5571    2.0982    8.0747 C   0  0  0  0  0  0  0  0  0  0  0  0
    2.6069    1.2438    9.1779 C   0  0  0  0  0  0  0  0  0  0  0  0
    1.5076    0.4348    9.4906 C   0  0  0  0  0  0  0  0  0  0  0  0
    1.5581   -0.4928   10.6746 C   0  0  0  0  0  0  0  0  0  0  0  0
    1.0115    0.1946   11.9240 C   0  0  0  0  0  0  0  0  0  0  0  0
    0.3414    0.5222    8.7150 C   0  0  0  0  0  0  0  0  0  0  0  0
   -0.7832    0.5162    5.5526 C   0  0  0  0  0  0  0  0  0  0  0  0
    0.0477    0.6921    4.4376 C   0  0  0  0  0  0  0  0  0  0  0  0
   -0.0532   -0.2542    3.4115 C   0  0  0  0  0  0  0  0  0  0  0  0
   -0.9293   -1.3493    3.4723 C   0  0  0  0  0  0  0  0  0  0  0  0
   -1.7874   -1.4990    4.5763 C   0  0  0  0  0  0  0  0  0  0  0  0
   -1.6837   -0.5532    5.5980 C   0  0  0  0  0  0  0  0  0  0  0  0
   -2.5418   -0.3273    6.7257 C   0  0  0  0  0  0  0  0  0  0  0  0
   -3.9110   -1.0051    7.3991 S   0  0  0  0  0  0  0  0  0  0  0  0
   -4.0551    0.2178    8.5802 C   0  0  0  0  0  0  0  0  0  0  0  0
   -3.0356    1.1623    8.4147 C   0  0  0  0  0  0  0  0  0  0  0  0
   -2.1992    0.8244    7.3536 C   0  0  0  0  0  0  0  0  0  0  0  0
   -1.0034   -2.0955    2.1333 C   0  0  0  0  0  0  0  0  0  0  0  0
   -2.4322   -2.1641    1.5865 C   0  0  0  0  0  0  0  0  0  0  0  0
   -3.3016   -1.0594    1.7253 C   0  0  0  0  0  0  0  0  0  0  0  0
   -4.6031   -1.1050    1.2184 C   0  0  0  0  0  0  0  0  0  0  0  0
   -5.0494   -2.2319    0.5304 C   0  0  0  0  0  0  0  0  0  0  0  0
   -4.1873   -3.3172    0.3215 C   0  0  0  0  0  0  0  0  0  0  0  0
   -4.6751   -4.5391   -0.4060 C   0  0  0  0  0  0  0  0  0  0  0  0
   -5.2446   -5.5579    0.5771 C   0  0  0  0  0  0  0  0  0  0  0  0
   -2.8855   -3.2795    0.8481 C   0  0  0  0  0  0  0  0  0  0  0  0
   -0.3191   -3.4687    2.2587 C   0  0  0  0  0  0  0  0  0  0  0  0
    0.7473   -3.8587    1.4134 C   0  0  0  0  0  0  0  0  0  0  0  0
    1.3452   -5.1128    1.5460 C   0  0  0  0  0  0  0  0  0  0  0  0
    0.8991   -6.0057    2.5205 C   0  0  0  0  0  0  0  0  0  0  0  0
   -0.1659   -5.6544    3.3618 C   0  0  0  0  0  0  0  0  0  0  0  0
   -0.6807   -6.6358    4.3810 C   0  0  0  0  0  0  0  0  0  0  0  0
   -1.7355   -7.5497    3.7661 C   0  0  0  0  0  0  0  0  0  0  0  0
   -0.7833   -4.4012    3.2097 C   0  0  0  0  0  0  0  0  0  0  0  0
   -0.1878   -1.1316    1.3061 C   0  0  0  0  0  0  0  0  0  0  0  0
    0.4078   -0.1542    2.0549 C   0  0  0  0  0  0  0  0  0  0  0  0
    1.0651    1.0942    1.1056 S   0  0  0  0  0  0  0  0  0  0  0  0
    0.5989    0.2933   -0.3157 C   0  0  0  0  0  0  0  0  0  0  0  0
    0.6986    0.5568   -1.6689 C   0  0  0  0  0  0  0  0  0  0  0  0
    0.0662   -0.4026   -2.4084 C   0  0  0  0  0  0  0  0  0  0  0  0
   -0.6113   -1.6433   -1.4646 S   0  0  0  0  0  0  0  0  0  0  0  0
   -0.0840   -0.8675   -0.0480 C   0  0  0  0  0  0  0  0  0  0  0  0
    0.3901   -0.2254   -3.7926 C   0  0  0  0  0  0  0  0  0  0  0  0
    0.0314   -1.0025   -4.8965 C   0  0  0  0  0  0  0  0  0  0  0  0
    0.6094   -0.6567   -6.1274 C   0  0  0  0  0  0  0  0  0  0  0  0
    1.5142    0.4084   -6.2078 C   0  0  0  0  0  0  0  0  0  0  0  0
    1.8605    1.1952   -5.1059 C   0  0  0  0  0  0  0  0  0  0  0  0
    1.2603    0.8700   -3.8789 C   0  0  0  0  0  0  0  0  0  0  0  0
    1.4895    1.5261   -2.5144 C   0  0  0  0  0  0  0  0  0  0  0  0
    2.9546    1.4768   -2.0618 C   0  0  0  0  0  0  0  0  0  0  0  0
    3.4787    2.4486   -1.1804 C   0  0  0  0  0  0  0  0  0  0  0  0
    4.7781    2.3370   -0.6848 C   0  0  0  0  0  0  0  0  0  0  0  0
    5.5629    1.2321   -1.0115 C   0  0  0  0  0  0  0  0  0  0  0  0
    5.0568    0.2333   -1.8516 C   0  0  0  0  0  0  0  0  0  0  0  0
    5.8679   -1.0021   -2.1384 C   0  0  0  0  0  0  0  0  0  0  0  0
    5.3734   -2.1808   -1.3042 C   0  0  0  0  0  0  0  0  0  0  0  0
    3.7575    0.3572   -2.3691 C   0  0  0  0  0  0  0  0  0  0  0  0
    0.8832    2.9359   -2.5390 C   0  0  0  0  0  0  0  0  0  0  0  0
   -0.3846    3.2241   -1.9831 C   0  0  0  0  0  0  0  0  0  0  0  0
   -0.9172    4.5129   -2.0544 C   0  0  0  0  0  0  0  0  0  0  0  0
   -0.2124    5.5330   -2.6941 C   0  0  0  0  0  0  0  0  0  0  0  0
    1.0295    5.2643   -3.2855 C   0  0  0  0  0  0  0  0  0  0  0  0
    1.8089    6.3644   -3.9511 C   0  0  0  0  0  0  0  0  0  0  0  0
    2.8389    6.9481   -2.9902 C   0  0  0  0  0  0  0  0  0  0  0  0
    1.5689    3.9707   -3.2049 C   0  0  0  0  0  0  0  0  0  0  0  0
    1.9910    0.4442   -7.5613 C   0  0  0  0  0  0  0  0  0  0  0  0
    3.1192    1.2951   -8.4571 S   0  0  0  0  0  0  0  0  0  0  0  0
    2.8292    0.3743   -9.8648 C   0  0  0  0  0  0  0  0  0  0  0  0
    1.8594   -0.6024   -9.6092 C   0  0  0  0  0  0  0  0  0  0  0  0
    1.4104   -0.5391   -8.2923 C   0  0  0  0  0  0  0  0  0  0  0  0
    0.4090   -1.3358   -7.4841 C   0  0  0  0  0  0  0  0  0  0  0  0
    0.8103   -2.8179   -7.5093 C   0  0  0  0  0  0  0  0  0  0  0  0
    0.4194   -3.6251   -8.5973 C   0  0  0  0  0  0  0  0  0  0  0  0
    0.7439   -4.9820   -8.6322 C   0  0  0  0  0  0  0  0  0  0  0  0
    1.4812   -5.5562   -7.5956 C   0  0  0  0  0  0  0  0  0  0  0  0
    1.9310   -4.7642   -6.5303 C   0  0  0  0  0  0  0  0  0  0  0  0
    2.6996   -5.3835   -5.3940 C   0  0  0  0  0  0  0  0  0  0  0  0
    1.7678   -5.7262   -4.2364 C   0  0  0  0  0  0  0  0  0  0  0  0
    1.6088   -3.3970   -6.4980 C   0  0  0  0  0  0  0  0  0  0  0  0
   -1.0452   -1.1126   -7.9195 C   0  0  0  0  0  0  0  0  0  0  0  0
   -1.4242   -0.0351   -8.7509 C   0  0  0  0  0  0  0  0  0  0  0  0
   -2.7669    0.1745   -9.0766 C   0  0  0  0  0  0  0  0  0  0  0  0
   -3.7543   -0.6683   -8.5678 C   0  0  0  0  0  0  0  0  0  0  0  0
   -3.4065   -1.7330   -7.7259 C   0  0  0  0  0  0  0  0  0  0  0  0
   -4.4790   -2.6010   -7.1223 C   0  0  0  0  0  0  0  0  0  0  0  0
   -4.9310   -2.0356   -5.7801 C   0  0  0  0  0  0  0  0  0  0  0  0
   -2.0593   -1.9395   -7.3952 C   0  0  0  0  0  0  0  0  0  0  0  0
   -2.0158    3.1457    5.0604 C   0  0  0  0  0  0  0  0  0  0  0  0
   -1.3981    5.8189    2.4638 H   0  0  0  0  0  0  0  0  0  0  0  0
   -1.2895    4.0236    2.2207 H   0  0  0  0  0  0  0  0  0  0  0  0
   -2.4750    4.9959    1.2737 H   0  0  0  0  0  0  0  0  0  0  0  0
   -3.6716    3.8162    3.0689 H   0  0  0  0  0  0  0  0  0  0  0  0
   -3.6933    5.5802    3.3909 H   0  0  0  0  0  0  0  0  0  0  0  0
   -2.3816    6.5295    5.2614 H   0  0  0  0  0  0  0  0  0  0  0  0
   -1.3661    6.1133    7.4665 H   0  0  0  0  0  0  0  0  0  0  0  0
   -0.7649    3.8368    8.1590 H   0  0  0  0  0  0  0  0  0  0  0  0
    1.3971    2.8273    6.4314 H   0  0  0  0  0  0  0  0  0  0  0  0
    3.4098    2.7166    7.8373 H   0  0  0  0  0  0  0  0  0  0  0  0
    3.5041    1.2060    9.7821 H   0  0  0  0  0  0  0  0  0  0  0  0
    2.6038   -0.8223   10.8639 H   0  0  0  0  0  0  0  0  0  0  0  0
    0.9543   -1.4070   10.4738 H   0  0  0  0  0  0  0  0  0  0  0  0
    1.5728    1.1307   12.1278 H   0  0  0  0  0  0  0  0  0  0  0  0
   -0.0676    0.4268   11.7934 H   0  0  0  0  0  0  0  0  0  0  0  0
    1.1210   -0.4817   12.7978 H   0  0  0  0  0  0  0  0  0  0  0  0
   -0.4872   -0.1216    8.9713 H   0  0  0  0  0  0  0  0  0  0  0  0
    0.6664    1.5758    4.3319 H   0  0  0  0  0  0  0  0  0  0  0  0
   -2.5662   -2.2510    4.5946 H   0  0  0  0  0  0  0  0  0  0  0  0
   -4.8279    0.2650    9.3336 H   0  0  0  0  0  0  0  0  0  0  0  0
   -2.9200    2.0484    9.0266 H   0  0  0  0  0  0  0  0  0  0  0  0
   -2.9769   -0.1582    2.2317 H   0  0  0  0  0  0  0  0  0  0  0  0
   -5.2674   -0.2629    1.3599 H   0  0  0  0  0  0  0  0  0  0  0  0
   -6.0637   -2.2572    0.1500 H   0  0  0  0  0  0  0  0  0  0  0  0
   -3.8406   -5.0008   -0.9793 H   0  0  0  0  0  0  0  0  0  0  0  0
   -5.4616   -4.2586   -1.1375 H   0  0  0  0  0  0  0  0  0  0  0  0
   -4.4533   -5.9041    1.2764 H   0  0  0  0  0  0  0  0  0  0  0  0
   -5.6369   -6.4326    0.0193 H   0  0  0  0  0  0  0  0  0  0  0  0
   -6.0763   -5.1061    1.1601 H   0  0  0  0  0  0  0  0  0  0  0  0
   -2.2371   -4.1258    0.6718 H   0  0  0  0  0  0  0  0  0  0  0  0
    1.1283   -3.2091    0.6390 H   0  0  0  0  0  0  0  0  0  0  0  0
    2.1613   -5.3940    0.8926 H   0  0  0  0  0  0  0  0  0  0  0  0
    1.3786   -6.9739    2.6141 H   0  0  0  0  0  0  0  0  0  0  0  0
    0.1581   -7.2501    4.7758 H   0  0  0  0  0  0  0  0  0  0  0  0
   -1.1233   -6.0924    5.2428 H   0  0  0  0  0  0  0  0  0  0  0  0
   -1.2991   -8.1326    2.9251 H   0  0  0  0  0  0  0  0  0  0  0  0
   -2.1046   -8.2594    4.5340 H   0  0  0  0  0  0  0  0  0  0  0  0
   -2.5921   -6.9492    3.3919 H   0  0  0  0  0  0  0  0  0  0  0  0
   -1.6336   -4.1657    3.8302 H   0  0  0  0  0  0  0  0  0  0  0  0
   -0.6300   -1.8508   -4.7977 H   0  0  0  0  0  0  0  0  0  0  0  0
    2.5810    1.9947   -5.1950 H   0  0  0  0  0  0  0  0  0  0  0  0
    2.8812    3.2889   -0.8564 H   0  0  0  0  0  0  0  0  0  0  0  0
    5.1682    3.0975   -0.0203 H   0  0  0  0  0  0  0  0  0  0  0  0
    6.5590    1.1507   -0.5942 H   0  0  0  0  0  0  0  0  0  0  0  0
    5.7912   -1.2566   -3.2186 H   0  0  0  0  0  0  0  0  0  0  0  0
    6.9424   -0.8263   -1.9139 H   0  0  0  0  0  0  0  0  0  0  0  0
    4.3281   -2.4368   -1.5783 H   0  0  0  0  0  0  0  0  0  0  0  0
    6.0172   -3.0693   -1.4932 H   0  0  0  0  0  0  0  0  0  0  0  0
    5.4211   -1.9339   -0.2224 H   0  0  0  0  0  0  0  0  0  0  0  0
    3.3625   -0.4435   -2.9815 H   0  0  0  0  0  0  0  0  0  0  0  0
   -0.9746    2.4623   -1.4927 H   0  0  0  0  0  0  0  0  0  0  0  0
   -1.8828    4.7221   -1.6134 H   0  0  0  0  0  0  0  0  0  0  0  0
   -0.6348    6.5290   -2.7323 H   0  0  0  0  0  0  0  0  0  0  0  0
    1.1280    7.1762   -4.2899 H   0  0  0  0  0  0  0  0  0  0  0  0
    2.3275    5.9695   -4.8499 H   0  0  0  0  0  0  0  0  0  0  0  0
    2.3325    7.4021   -2.1104 H   0  0  0  0  0  0  0  0  0  0  0  0
    3.4289    7.7366   -3.5086 H   0  0  0  0  0  0  0  0  0  0  0  0
    3.5382    6.1542   -2.6464 H   0  0  0  0  0  0  0  0  0  0  0  0
    2.5377    3.7781   -3.6458 H   0  0  0  0  0  0  0  0  0  0  0  0
    3.3221    0.5222  -10.8119 H   0  0  0  0  0  0  0  0  0  0  0  0
    1.5023   -1.3159  -10.3416 H   0  0  0  0  0  0  0  0  0  0  0  0
   -0.1580   -3.2063   -9.4127 H   0  0  0  0  0  0  0  0  0  0  0  0
    0.4153   -5.5923   -9.4623 H   0  0  0  0  0  0  0  0  0  0  0  0
    1.7038   -6.6150   -7.6275 H   0  0  0  0  0  0  0  0  0  0  0  0
    3.4848   -4.6795   -5.0414 H   0  0  0  0  0  0  0  0  0  0  0  0
    3.2121   -6.3106   -5.7343 H   0  0  0  0  0  0  0  0  0  0  0  0
    2.3518   -6.2008   -3.4193 H   0  0  0  0  0  0  0  0  0  0  0  0
    1.2892   -4.8048   -3.8419 H   0  0  0  0  0  0  0  0  0  0  0  0
    0.9808   -6.4343   -4.5681 H   0  0  0  0  0  0  0  0  0  0  0  0
    1.9774   -2.8025   -5.6717 H   0  0  0  0  0  0  0  0  0  0  0  0
   -0.6950    0.6609   -9.1449 H   0  0  0  0  0  0  0  0  0  0  0  0
   -3.0448    1.0031   -9.7145 H   0  0  0  0  0  0  0  0  0  0  0  0
   -4.7926   -0.4820   -8.8174 H   0  0  0  0  0  0  0  0  0  0  0  0
   -5.3521   -2.6634   -7.8063 H   0  0  0  0  0  0  0  0  0  0  0  0
   -4.0977   -3.6350   -6.9756 H   0  0  0  0  0  0  0  0  0  0  0  0
   -5.7448   -2.6672   -5.3621 H   0  0  0  0  0  0  0  0  0  0  0  0
   -5.3183   -1.0016   -5.9071 H   0  0  0  0  0  0  0  0  0  0  0  0
   -4.0864   -2.0233   -5.0586 H   0  0  0  0  0  0  0  0  0  0  0  0
   -1.8016   -2.7490   -6.7223 H   0  0  0  0  0  0  0  0  0  0  0  0
   -2.2413    2.3302    4.3877 H   0  0  0  0  0  0  0  0  0  0  0  0
  1  2  1  0
  2  3  1  0
  3  4  2  0
  4  5  1  0
  5  6  2  0
  6  7  1  0
  7  8  1  0
  8  9  1  0
  9 10  2  0
 10 11  1  0
 11 12  2  0
 12 13  1  0
 13 14  1  0
 14 15  1  0
 13 16  2  0
  8 17  1  0
 17 18  2  0
 18 19  1  0
 19 20  2  0
 20 21  1  0
 21 22  2  0
 22 23  1  0
 23 24  1  0
 24 25  1  0
 25 26  2  0
 26 27  1  0
 20 28  1  0
 28 29  1  0
 29 30  2  0
 30 31  1  0
 31 32  2  0
 32 33  1  0
 33 34  1  0
 34 35  1  0
 33 36  2  0
 28 37  1  0
 37 38  2  0
 38 39  1  0
 39 40  2  0
 40 41  1  0
 41 42  1  0
 42 43  1  0
 41 44  2  0
 28 45  1  0
 45 46  2  0
 46 47  1  0
 47 48  1  0
 48 49  1  0
 49 50  2  0
 50 51  1  0
 51 52  1  0
 50 53  1  0
 53 54  2  0
 54 55  1  0
 55 56  2  0
 56 57  1  0
 57 58  2  0
 58 59  1  0
 59 60  1  0
 60 61  2  0
 61 62  1  0
 62 63  2  0
 63 64  1  0
 64 65  1  0
 65 66  1  0
 64 67  2  0
 59 68  1  0
 68 69  2  0
 69 70  1  0
 70 71  2  0
 71 72  1  0
 72 73  1  0
 73 74  1  0
 72 75  2  0
 56 76  1  0
 76 77  1  0
 77 78  1  0
 78 79  2  0
 79 80  1  0
 80 81  1  0
 81 82  1  0
 82 83  2  0
 83 84  1  0
 84 85  2  0
 85 86  1  0
 86 87  1  0
 87 88  1  0
 86 89  2  0
 81 90  1  0
 90 91  2  0
 91 92  1  0
 92 93  2  0
 93 94  1  0
 94 95  1  0
 95 96  1  0
 94 97  2  0
  7 98  2  0
 98  3  1  0
 27  8  1  0
 36 29  1  0
 44 37  1  0
 52 45  1  0
 58 53  1  0
 67 60  1  0
 75 68  1  0
 80 76  2  0
 89 82  1  0
 97 90  1  0
 16  9  1  0
 22 17  1  0
 27 23  2  0
 52 48  2  0
 81 55  1  0
 46 19  1  0
 59 49  1  0
  1 99  1  0
  1100  1  0
  1101  1  0
  2102  1  0
  2103  1  0
  4104  1  0
  5105  1  0
  6106  1  0
 10107  1  0
 11108  1  0
 12109  1  0
 14110  1  0
 14111  1  0
 15112  1  0
 15113  1  0
 15114  1  0
 16115  1  0
 18116  1  0
 21117  1  0
 25118  1  0
 26119  1  0
 30120  1  0
 31121  1  0
 32122  1  0
 34123  1  0
 34124  1  0
 35125  1  0
 35126  1  0
 35127  1  0
 36128  1  0
 38129  1  0
 39130  1  0
 40131  1  0
 42132  1  0
 42133  1  0
 43134  1  0
 43135  1  0
 43136  1  0
 44137  1  0
 54138  1  0
 57139  1  0
 61140  1  0
 62141  1  0
 63142  1  0
 65143  1  0
 65144  1  0
 66145  1  0
 66146  1  0
 66147  1  0
 67148  1  0
 69149  1  0
 70150  1  0
 71151  1  0
 73152  1  0
 73153  1  0
 74154  1  0
 74155  1  0
 74156  1  0
 75157  1  0
 78158  1  0
 79159  1  0
 83160  1  0
 84161  1  0
 85162  1  0
 87163  1  0
 87164  1  0
 88165  1  0
 88166  1  0
 88167  1  0
 89168  1  0
 91169  1  0
 92170  1  0
 93171  1  0
 95172  1  0
 95173  1  0
 96174  1  0
 96175  1  0
 96176  1  0
 97177  1  0
 98178  1  0
M  END

