
     RDKit          3D

 98108  0  0  0  0  0  0  0  0999 V2000
    6.9333   -0.0057    3.6832 C   0  0  0  0  0  0  0  0  0  0  0  0
    5.5928    0.4388    4.2579 C   0  0  0  0  0  0  0  0  0  0  0  0
    4.6110    0.7290    3.1552 C   0  0  0  0  0  0  0  0  0  0  0  0
    4.5232    2.0151    2.6117 C   0  0  0  0  0  0  0  0  0  0  0  0
    3.6385    2.2723    1.5655 C   0  0  0  0  0  0  0  0  0  0  0  0
    2.8341    1.2515    1.0528 C   0  0  0  0  0  0  0  0  0  0  0  0
    2.8899   -0.0551    1.5896 C   0  0  0  0  0  0  0  0  0  0  0  0
    2.0390   -1.2113    1.0254 C   0  0  0  0  0  0  0  0  0  0  0  0
    2.7793   -2.1152    0.0325 C   0  0  0  0  0  0  0  0  0  0  0  0
    2.1244   -3.2431   -0.5052 C   0  0  0  0  0  0  0  0  0  0  0  0
    2.7735   -4.0865   -1.4078 C   0  0  0  0  0  0  0  0  0  0  0  0
    4.0873   -3.8258   -1.7893 C   0  0  0  0  0  0  0  0  0  0  0  0
    4.7666   -2.7183   -1.2654 C   0  0  0  0  0  0  0  0  0  0  0  0
    6.1755   -2.4220   -1.7017 C   0  0  0  0  0  0  0  0  0  0  0  0
    6.1827   -1.5238   -2.9331 C   0  0  0  0  0  0  0  0  0  0  0  0
    4.1045   -1.8562   -0.3767 C   0  0  0  0  0  0  0  0  0  0  0  0
    0.7208   -0.7163    0.4229 C   0  0  0  0  0  0  0  0  0  0  0  0
    0.5216   -0.1248   -0.8372 C   0  0  0  0  0  0  0  0  0  0  0  0
   -0.7939    0.1800   -1.1938 C   0  0  0  0  0  0  0  0  0  0  0  0
   -1.8899   -0.1234   -0.3771 C   0  0  0  0  0  0  0  0  0  0  0  0
   -1.6970   -0.7704    0.8532 C   0  0  0  0  0  0  0  0  0  0  0  0
   -0.3777   -1.0458    1.2261 C   0  0  0  0  0  0  0  0  0  0  0  0
    0.1065   -1.8388    2.3221 C   0  0  0  0  0  0  0  0  0  0  0  0
   -0.6112   -3.0762    3.2432 S   0  0  0  0  0  0  0  0  0  0  0  0
    0.8912   -3.8045    3.5243 C   0  0  0  0  0  0  0  0  0  0  0  0
    1.2625   -5.0128    4.1025 C   0  0  0  0  0  0  0  0  0  0  0  0
    2.6159   -5.2830    3.8742 C   0  0  0  0  0  0  0  0  0  0  0  0
    3.3022   -4.0435    2.9260 S   0  0  0  0  0  0  0  0  0  0  0  0
    1.8888   -3.1432    2.8675 C   0  0  0  0  0  0  0  0  0  0  0  0
    1.4591   -2.0166    2.1754 C   0  0  0  0  0  0  0  0  0  0  0  0
   -3.2117    0.3212   -1.0068 C   0  0  0  0  0  0  0  0  0  0  0  0
   -3.9010    1.4482   -0.2302 C   0  0  0  0  0  0  0  0  0  0  0  0
   -5.2671    1.7235   -0.4466 C   0  0  0  0  0  0  0  0  0  0  0  0
   -5.8960    2.7799    0.2116 C   0  0  0  0  0  0  0  0  0  0  0  0
   -5.1693    3.6047    1.0698 C   0  0  0  0  0  0  0  0  0  0  0  0
   -3.7985    3.3892    1.2629 C   0  0  0  0  0  0  0  0  0  0  0  0
   -3.0090    4.2862    2.1785 C   0  0  0  0  0  0  0  0  0  0  0  0
   -2.7713    3.6180    3.5279 C   0  0  0  0  0  0  0  0  0  0  0  0
   -3.1698    2.3177    0.6096 C   0  0  0  0  0  0  0  0  0  0  0  0
   -4.0975   -0.9148   -1.2263 C   0  0  0  0  0  0  0  0  0  0  0  0
   -4.8781   -1.4125   -0.1634 C   0  0  0  0  0  0  0  0  0  0  0  0
   -5.6827   -2.5403   -0.3320 C   0  0  0  0  0  0  0  0  0  0  0  0
   -5.7093   -3.2080   -1.5549 C   0  0  0  0  0  0  0  0  0  0  0  0
   -4.9058   -2.7691   -2.6140 C   0  0  0  0  0  0  0  0  0  0  0  0
   -4.9613   -3.4693   -3.9454 C   0  0  0  0  0  0  0  0  0  0  0  0
   -5.9324   -2.7591   -4.8841 C   0  0  0  0  0  0  0  0  0  0  0  0
   -4.0992   -1.6305   -2.4454 C   0  0  0  0  0  0  0  0  0  0  0  0
   -2.6658    0.9049   -2.2874 C   0  0  0  0  0  0  0  0  0  0  0  0
   -1.3084    0.8144   -2.3741 C   0  0  0  0  0  0  0  0  0  0  0  0
   -0.6912    1.4414   -3.8279 S   0  0  0  0  0  0  0  0  0  0  0  0
   -2.2596    1.8450   -4.3458 C   0  0  0  0  0  0  0  0  0  0  0  0
   -2.7680    2.4209   -5.5036 C   0  0  0  0  0  0  0  0  0  0  0  0
   -4.1646    2.5109   -5.4454 C   0  0  0  0  0  0  0  0  0  0  0  0
   -4.7334    1.8754   -3.9673 S   0  0  0  0  0  0  0  0  0  0  0  0
   -3.1989    1.4983   -3.4174 C   0  0  0  0  0  0  0  0  0  0  0  0
    3.8184   -0.3009    2.6254 C   0  0  0  0  0  0  0  0  0  0  0  0
    6.8042   -0.9304    3.0792 H   0  0  0  0  0  0  0  0  0  0  0  0
    7.6419   -0.2183    4.5117 H   0  0  0  0  0  0  0  0  0  0  0  0
    7.3641    0.7943    3.0430 H   0  0  0  0  0  0  0  0  0  0  0  0
    5.1957   -0.3614    4.9207 H   0  0  0  0  0  0  0  0  0  0  0  0
    5.7439    1.3454    4.8851 H   0  0  0  0  0  0  0  0  0  0  0  0
    5.1401    2.8177    2.9949 H   0  0  0  0  0  0  0  0  0  0  0  0
    3.5770    3.2682    1.1454 H   0  0  0  0  0  0  0  0  0  0  0  0
    2.1815    1.5050    0.2348 H   0  0  0  0  0  0  0  0  0  0  0  0
    1.1033   -3.4703   -0.2251 H   0  0  0  0  0  0  0  0  0  0  0  0
    2.2550   -4.9453   -1.8129 H   0  0  0  0  0  0  0  0  0  0  0  0
    4.5778   -4.4851   -2.4936 H   0  0  0  0  0  0  0  0  0  0  0  0
    6.7339   -1.9211   -0.8818 H   0  0  0  0  0  0  0  0  0  0  0  0
    6.7124   -3.3672   -1.9334 H   0  0  0  0  0  0  0  0  0  0  0  0
    5.6747   -2.0272   -3.7822 H   0  0  0  0  0  0  0  0  0  0  0  0
    7.2294   -1.3052   -3.2277 H   0  0  0  0  0  0  0  0  0  0  0  0
    5.6648   -0.5661   -2.7149 H   0  0  0  0  0  0  0  0  0  0  0  0
    4.6406   -0.9909   -0.0121 H   0  0  0  0  0  0  0  0  0  0  0  0
    1.3484    0.0865   -1.5027 H   0  0  0  0  0  0  0  0  0  0  0  0
   -2.5267   -1.0518    1.4856 H   0  0  0  0  0  0  0  0  0  0  0  0
    0.5857   -5.6811    4.6166 H   0  0  0  0  0  0  0  0  0  0  0  0
    3.1324   -6.1724    4.2079 H   0  0  0  0  0  0  0  0  0  0  0  0
   -5.8505    1.1204   -1.1302 H   0  0  0  0  0  0  0  0  0  0  0  0
   -6.9506    2.9638    0.0495 H   0  0  0  0  0  0  0  0  0  0  0  0
   -5.6745    4.4198    1.5720 H   0  0  0  0  0  0  0  0  0  0  0  0
   -2.0318    4.5295    1.7104 H   0  0  0  0  0  0  0  0  0  0  0  0
   -3.5430    5.2463    2.3391 H   0  0  0  0  0  0  0  0  0  0  0  0
   -2.1693    2.6957    3.3972 H   0  0  0  0  0  0  0  0  0  0  0  0
   -2.2164    4.3101    4.1928 H   0  0  0  0  0  0  0  0  0  0  0  0
   -3.7380    3.3612    4.0092 H   0  0  0  0  0  0  0  0  0  0  0  0
   -2.1046    2.1815    0.7497 H   0  0  0  0  0  0  0  0  0  0  0  0
   -4.8796   -0.9142    0.7974 H   0  0  0  0  0  0  0  0  0  0  0  0
   -6.2921   -2.8943    0.4884 H   0  0  0  0  0  0  0  0  0  0  0  0
   -6.3508   -4.0726   -1.6740 H   0  0  0  0  0  0  0  0  0  0  0  0
   -5.2865   -4.5244   -3.8146 H   0  0  0  0  0  0  0  0  0  0  0  0
   -3.9512   -3.4898   -4.4073 H   0  0  0  0  0  0  0  0  0  0  0  0
   -6.9531   -2.7456   -4.4427 H   0  0  0  0  0  0  0  0  0  0  0  0
   -5.9715   -3.2976   -5.8550 H   0  0  0  0  0  0  0  0  0  0  0  0
   -5.5960   -1.7145   -5.0653 H   0  0  0  0  0  0  0  0  0  0  0  0
   -3.4829   -1.3118   -3.2753 H   0  0  0  0  0  0  0  0  0  0  0  0
   -2.1689    2.7482   -6.3416 H   0  0  0  0  0  0  0  0  0  0  0  0
   -4.7889    2.9176   -6.2286 H   0  0  0  0  0  0  0  0  0  0  0  0
    3.9378   -1.2958    3.0242 H   0  0  0  0  0  0  0  0  0  0  0  0
  1  2  1  0
  2  3  1  0
  3  4  2  0
  4  5  1  0
  5  6  2  0
  6  7  1  0
  7  8  1  0
  8  9  1  0
  9 10  2  0
 10 11  1  0
 11 12  2  0
 12 13  1  0
 13 14  1  0
 14 15  1  0
 13 16  2  0
  8 17  1  0
 17 18  2  0
 18 19  1  0
 19 20  2  0
 20 21  1  0
 21 22  2  0
 22 23  1  0
 23 24  1  0
 24 25  1  0
 25 26  1  0
 26 27  2  0
 27 28  1  0
 28 29  1  0
 29 30  1  0
 20 31  1  0
 31 32  1  0
 32 33  2  0
 33 34  1  0
 34 35  2  0
 35 36  1  0
 36 37  1  0
 37 38  1  0
 36 39  2  0
 31 40  1  0
 40 41  2  0
 41 42  1  0
 42 43  2  0
 43 44  1  0
 44 45  1  0
 45 46  1  0
 44 47  2  0
 31 48  1  0
 48 49  2  0
 49 50  1  0
 50 51  1  0
 51 52  1  0
 52 53  2  0
 53 54  1  0
 54 55  1  0
  7 56  2  0
 56  3  1  0
 30  8  1  0
 39 32  1  0
 47 40  1  0
 55 48  1  0
 16  9  1  0
 22 17  1  0
 30 23  2  0
 55 51  2  0
 49 19  1  0
 29 25  2  0
  1 57  1  0
  1 58  1  0
  1 59  1  0
  2 60  1  0
  2 61  1  0
  4 62  1  0
  5 63  1  0
  6 64  1  0
 10 65  1  0
 11 66  1  0
 12 67  1  0
 14 68  1  0
 14 69  1  0
 15 70  1  0
 15 71  1  0
 15 72  1  0
 16 73  1  0
 18 74  1  0
 21 75  1  0
 26 76  1  0
 27 77  1  0
 33 78  1  0
 34 79  1  0
 35 80  1  0
 37 81  1  0
 37 82  1  0
 38 83  1  0
 38 84  1  0
 38 85  1  0
 39 86  1  0
 41 87  1  0
 42 88  1  0
 43 89  1  0
 45 90  1  0
 45 91  1  0
 46 92  1  0
 46 93  1  0
 46 94  1  0
 47 95  1  0
 52 96  1  0
 53 97  1  0
 56 98  1  0
M  END

