
     RDKit          3D

 30 31  0  0  0  0  0  0  0  0999 V2000
    0.7259   -5.0238    4.3349 C   0  0  0  0  0  0  0  0  0  0  0  0
    1.9249   -4.6070    3.4912 C   0  0  0  0  0  0  0  0  0  0  0  0
    1.5807   -3.5247    2.6288 O   0  0  0  0  0  0  0  0  0  0  0  0
    0.8212   -3.6773    1.4630 C   0  0  0  0  0  0  0  0  0  0  0  0
    0.4496   -4.8234    1.0890 O   0  0  0  0  0  0  0  0  0  0  0  0
    0.4592   -2.4950    0.6633 C   0  0  0  0  0  0  0  0  0  0  0  0
   -0.2858   -2.5465   -0.5244 C   0  0  0  0  0  0  0  0  0  0  0  0
   -0.4913   -0.9707   -1.1381 S   0  0  0  0  0  0  0  0  0  0  0  0
    0.3641   -0.2329    0.1031 C   0  0  0  0  0  0  0  0  0  0  0  0
    0.7040    1.0848    0.4183 C   0  0  0  0  0  0  0  0  0  0  0  0
    0.3372    2.2676   -0.3784 C   0  0  0  0  0  0  0  0  0  0  0  0
    0.6911    3.4157    0.0066 O   0  0  0  0  0  0  0  0  0  0  0  0
   -0.3951    2.1120   -1.5611 O   0  0  0  0  0  0  0  0  0  0  0  0
   -0.8410    3.2056   -2.3603 C   0  0  0  0  0  0  0  0  0  0  0  0
   -2.0412    3.8884   -1.7150 C   0  0  0  0  0  0  0  0  0  0  0  0
    1.4460    1.1366    1.6079 C   0  0  0  0  0  0  0  0  0  0  0  0
    1.6525   -0.4393    2.2210 S   0  0  0  0  0  0  0  0  0  0  0  0
    0.8017   -1.1776    0.9769 C   0  0  0  0  0  0  0  0  0  0  0  0
   -0.0905   -5.4048    3.6865 H   0  0  0  0  0  0  0  0  0  0  0  0
    1.0265   -5.8279    5.0391 H   0  0  0  0  0  0  0  0  0  0  0  0
    0.3530   -4.1552    4.9178 H   0  0  0  0  0  0  0  0  0  0  0  0
    2.7387   -4.2733    4.1688 H   0  0  0  0  0  0  0  0  0  0  0  0
    2.3007   -5.4701    2.8998 H   0  0  0  0  0  0  0  0  0  0  0  0
   -0.6736   -3.4457   -0.9845 H   0  0  0  0  0  0  0  0  0  0  0  0
   -1.1451    2.8154   -3.3544 H   0  0  0  0  0  0  0  0  0  0  0  0
   -0.0168    3.9357   -2.5138 H   0  0  0  0  0  0  0  0  0  0  0  0
   -1.7568    4.3283   -0.7364 H   0  0  0  0  0  0  0  0  0  0  0  0
   -2.4096    4.7000   -2.3771 H   0  0  0  0  0  0  0  0  0  0  0  0
   -2.8575    3.1516   -1.5597 H   0  0  0  0  0  0  0  0  0  0  0  0
    1.8301    2.0362    2.0702 H   0  0  0  0  0  0  0  0  0  0  0  0
  1  2  1  0
  2  3  1  0
  3  4  1  0
  4  5  2  0
  4  6  1  0
  6  7  2  0
  7  8  1  0
  8  9  1  0
  9 10  1  0
 10 11  1  0
 11 12  2  0
 11 13  1  0
 13 14  1  0
 14 15  1  0
 10 16  2  0
 16 17  1  0
 17 18  1  0
 18  6  1  0
 18  9  2  0
  1 19  1  0
  1 20  1  0
  1 21  1  0
  2 22  1  0
  2 23  1  0
  7 24  1  0
 14 25  1  0
 14 26  1  0
 15 27  1  0
 15 28  1  0
 15 29  1  0
 16 30  1  0
M  END

