
     RDKit          3D

 44 48  0  0  0  0  0  0  0  0999 V2000
   -2.0509   -6.0798   -3.2561 C   0  0  0  0  0  0  0  0  0  0  0  0
   -0.7333   -5.4628   -3.7107 C   0  0  0  0  0  0  0  0  0  0  0  0
   -0.5664   -4.0902   -3.1370 C   0  0  0  0  0  0  0  0  0  0  0  0
    0.1578   -3.7369   -1.6615 S   0  0  0  0  0  0  0  0  0  0  0  0
   -0.1271   -2.0748   -1.7082 C   0  0  0  0  0  0  0  0  0  0  0  0
    0.2305   -1.1067   -0.6487 C   0  0  0  0  0  0  0  0  0  0  0  0
    1.4280   -1.1807    0.0932 C   0  0  0  0  0  0  0  0  0  0  0  0
    2.4993   -2.0482    0.0181 C   0  0  0  0  0  0  0  0  0  0  0  0
    3.3857   -1.6158    0.9948 C   0  0  0  0  0  0  0  0  0  0  0  0
    2.9051   -0.5580    1.6179 O   0  0  0  0  0  0  0  0  0  0  0  0
    1.7392   -0.2704    1.0910 C   0  0  0  0  0  0  0  0  0  0  0  0
    0.8811    0.7885    1.4442 C   0  0  0  0  0  0  0  0  0  0  0  0
    1.2226    1.7356    2.5277 C   0  0  0  0  0  0  0  0  0  0  0  0
    2.5014    2.1951    2.8385 C   0  0  0  0  0  0  0  0  0  0  0  0
    2.5289    3.0422    3.9519 C   0  0  0  0  0  0  0  0  0  0  0  0
    3.6727    3.5878    4.4337 F   0  0  0  0  0  0  0  0  0  0  0  0
    1.2801    3.2589    4.5208 C   0  0  0  0  0  0  0  0  0  0  0  0
    0.9980    4.0526    5.7584 C   0  0  0  0  0  0  0  0  0  0  0  0
    1.1638    3.1874    7.0023 C   0  0  0  0  0  0  0  0  0  0  0  0
    0.1426    2.3730    3.6561 S   0  0  0  0  0  0  0  0  0  0  0  0
   -0.3142    0.8652    0.6991 C   0  0  0  0  0  0  0  0  0  0  0  0
   -1.3591    1.7668    0.7351 C   0  0  0  0  0  0  0  0  0  0  0  0
   -2.2456    1.3343   -0.2415 C   0  0  0  0  0  0  0  0  0  0  0  0
   -1.7806    0.2563   -0.8414 O   0  0  0  0  0  0  0  0  0  0  0  0
   -0.6214   -0.0399   -0.3046 C   0  0  0  0  0  0  0  0  0  0  0  0
   -0.8233   -1.7833   -2.8802 C   0  0  0  0  0  0  0  0  0  0  0  0
   -1.0679   -2.9104   -3.6725 C   0  0  0  0  0  0  0  0  0  0  0  0
   -1.7432   -2.8523   -4.8467 F   0  0  0  0  0  0  0  0  0  0  0  0
   -2.9062   -5.4594   -3.5998 H   0  0  0  0  0  0  0  0  0  0  0  0
   -2.0773   -6.1593   -2.1481 H   0  0  0  0  0  0  0  0  0  0  0  0
   -2.1534   -7.0974   -3.6883 H   0  0  0  0  0  0  0  0  0  0  0  0
   -0.7118   -5.4105   -4.8205 H   0  0  0  0  0  0  0  0  0  0  0  0
    0.1090   -6.1070   -3.3795 H   0  0  0  0  0  0  0  0  0  0  0  0
    2.6433   -2.8787   -0.6578 H   0  0  0  0  0  0  0  0  0  0  0  0
    4.3409   -2.0701    1.2210 H   0  0  0  0  0  0  0  0  0  0  0  0
    3.3892    1.9333    2.2785 H   0  0  0  0  0  0  0  0  0  0  0  0
   -0.0409    4.4443    5.7177 H   0  0  0  0  0  0  0  0  0  0  0  0
    1.6914    4.9191    5.8143 H   0  0  0  0  0  0  0  0  0  0  0  0
    0.9467    3.7926    7.9075 H   0  0  0  0  0  0  0  0  0  0  0  0
    2.2052    2.8059    7.0707 H   0  0  0  0  0  0  0  0  0  0  0  0
    0.4598    2.3284    6.9711 H   0  0  0  0  0  0  0  0  0  0  0  0
   -1.4733    2.6358    1.3668 H   0  0  0  0  0  0  0  0  0  0  0  0
   -3.1863    1.8072   -0.4891 H   0  0  0  0  0  0  0  0  0  0  0  0
   -1.1424   -0.7884   -3.1608 H   0  0  0  0  0  0  0  0  0  0  0  0
  1  2  1  0
  2  3  1  0
  3  4  1  0
  4  5  1  0
  5  6  1  0
  6  7  2  0
  7  8  1  0
  8  9  2  0
  9 10  1  0
 10 11  1  0
 11 12  2  0
 12 13  1  0
 13 14  2  0
 14 15  1  0
 15 16  1  0
 15 17  2  0
 17 18  1  0
 18 19  1  0
 17 20  1  0
 12 21  1  0
 21 22  1  0
 22 23  2  0
 23 24  1  0
 24 25  1  0
  5 26  2  0
 26 27  1  0
 27 28  1  0
 27  3  2  0
 25  6  1  0
 11  7  1  0
 20 13  1  0
 25 21  2  0
  1 29  1  0
  1 30  1  0
  1 31  1  0
  2 32  1  0
  2 33  1  0
  8 34  1  0
  9 35  1  0
 14 36  1  0
 18 37  1  0
 18 38  1  0
 19 39  1  0
 19 40  1  0
 19 41  1  0
 22 42  1  0
 23 43  1  0
 26 44  1  0
M  END

