
     RDKit          3D

 21 22  0  0  0  0  0  0  0  0999 V2000
    0.3775   -0.5108    4.6300 C   0  0  0  0  0  0  0  0  0  0  0  0
    0.8225   -1.5576    3.6153 C   0  0  0  0  0  0  0  0  0  0  0  0
    0.6190   -1.0869    2.2845 O   0  0  0  0  0  0  0  0  0  0  0  0
    1.4461   -0.1421    1.6656 C   0  0  0  0  0  0  0  0  0  0  0  0
    2.4648    0.3064    2.2586 O   0  0  0  0  0  0  0  0  0  0  0  0
    1.1278    0.3244    0.3115 C   0  0  0  0  0  0  0  0  0  0  0  0
    0.0286   -0.0986   -0.4473 C   0  0  0  0  0  0  0  0  0  0  0  0
    0.0030    0.5300   -1.6903 C   0  0  0  0  0  0  0  0  0  0  0  0
   -0.8873    0.4163   -2.7442 C   0  0  0  0  0  0  0  0  0  0  0  0
   -0.3063    1.4714   -3.9382 S   0  0  0  0  0  0  0  0  0  0  0  0
    1.0561    2.0607   -3.1221 C   0  0  0  0  0  0  0  0  0  0  0  0
    1.0387    1.4121   -1.9028 C   0  0  0  0  0  0  0  0  0  0  0  0
    2.0452    1.4643   -0.5642 S   0  0  0  0  0  0  0  0  0  0  0  0
    0.9967    0.4057    4.5384 H   0  0  0  0  0  0  0  0  0  0  0  0
    0.4903   -0.9157    5.6577 H   0  0  0  0  0  0  0  0  0  0  0  0
   -0.6884   -0.2488    4.4612 H   0  0  0  0  0  0  0  0  0  0  0  0
    1.8908   -1.8208    3.7745 H   0  0  0  0  0  0  0  0  0  0  0  0
    0.2160   -2.4761    3.7616 H   0  0  0  0  0  0  0  0  0  0  0  0
   -0.7076   -0.8193   -0.1152 H   0  0  0  0  0  0  0  0  0  0  0  0
   -1.7661   -0.2126   -2.7929 H   0  0  0  0  0  0  0  0  0  0  0  0
    1.7803    2.7831   -3.4731 H   0  0  0  0  0  0  0  0  0  0  0  0
  1  2  1  0
  2  3  1  0
  3  4  1  0
  4  5  2  0
  4  6  1  0
  6  7  2  0
  7  8  1  0
  8  9  2  0
  9 10  1  0
 10 11  1  0
 11 12  2  0
 12 13  1  0
 13  6  1  0
 12  8  1  0
  1 14  1  0
  1 15  1  0
  1 16  1  0
  2 17  1  0
  2 18  1  0
  7 19  1  0
  9 20  1  0
 11 21  1  0
M  END

