
     RDKit          3D

 27 28  0  0  0  0  0  0  0  0999 V2000
   -0.9100   -3.3667    3.1555 C   0  0  0  0  0  0  0  0  0  0  0  0
    0.2403   -2.4044    2.9077 C   0  0  0  0  0  0  0  0  0  0  0  0
   -0.0384   -1.6180    1.7525 O   0  0  0  0  0  0  0  0  0  0  0  0
    0.8155   -0.6289    1.2409 C   0  0  0  0  0  0  0  0  0  0  0  0
    2.0598   -0.3257    1.8522 C   0  0  0  0  0  0  0  0  0  0  0  0
    2.8355    0.6695    1.2722 C   0  0  0  0  0  0  0  0  0  0  0  0
    4.0329    1.1358    1.6524 N   0  0  0  0  0  0  0  0  0  0  0  0
    4.3153    2.0620    0.7690 O   0  0  0  0  0  0  0  0  0  0  0  0
    3.3959    2.2301   -0.1502 N   0  0  0  0  0  0  0  0  0  0  0  0
    2.4447    1.3408    0.1664 C   0  0  0  0  0  0  0  0  0  0  0  0
    1.2384    1.0856   -0.4725 C   0  0  0  0  0  0  0  0  0  0  0  0
    0.4043    0.0776    0.0772 C   0  0  0  0  0  0  0  0  0  0  0  0
   -0.8330   -0.2527   -0.4964 O   0  0  0  0  0  0  0  0  0  0  0  0
   -1.3736    0.3685   -1.6595 C   0  0  0  0  0  0  0  0  0  0  0  0
   -2.7253   -0.2478   -1.9816 C   0  0  0  0  0  0  0  0  0  0  0  0
   -1.8505   -2.7993    3.3201 H   0  0  0  0  0  0  0  0  0  0  0  0
   -1.0377   -4.0386    2.2804 H   0  0  0  0  0  0  0  0  0  0  0  0
   -0.6974   -3.9819    4.0551 H   0  0  0  0  0  0  0  0  0  0  0  0
    0.3589   -1.7435    3.7936 H   0  0  0  0  0  0  0  0  0  0  0  0
    1.1741   -2.9865    2.7508 H   0  0  0  0  0  0  0  0  0  0  0  0
    2.4099   -0.8387    2.7376 H   0  0  0  0  0  0  0  0  0  0  0  0
    0.9637    1.6462   -1.3556 H   0  0  0  0  0  0  0  0  0  0  0  0
   -0.6889    0.2144   -2.5215 H   0  0  0  0  0  0  0  0  0  0  0  0
   -1.5041    1.4575   -1.4788 H   0  0  0  0  0  0  0  0  0  0  0  0
   -3.4234   -0.0969   -1.1310 H   0  0  0  0  0  0  0  0  0  0  0  0
   -3.1507    0.2332   -2.8875 H   0  0  0  0  0  0  0  0  0  0  0  0
   -2.6106   -1.3362   -2.1707 H   0  0  0  0  0  0  0  0  0  0  0  0
  1  2  1  0
  2  3  1  0
  3  4  1  0
  4  5  2  0
  5  6  1  0
  6  7  2  0
  7  8  1  0
  8  9  1  0
  9 10  2  0
 10 11  1  0
 11 12  2  0
 12 13  1  0
 13 14  1  0
 14 15  1  0
 12  4  1  0
 10  6  1  0
  1 16  1  0
  1 17  1  0
  1 18  1  0
  2 19  1  0
  2 20  1  0
  5 21  1  0
 11 22  1  0
 14 23  1  0
 14 24  1  0
 15 25  1  0
 15 26  1  0
 15 27  1  0
M  END

