
     RDKit          3D

 38 41  0  0  0  0  0  0  0  0999 V2000
   -0.2651    1.2587    6.1060 C   0  0  0  0  0  0  0  0  0  0  0  0
    0.2666    2.2030    5.0338 C   0  0  0  0  0  0  0  0  0  0  0  0
    0.2908    1.5314    3.7260 N   0  0  0  0  0  0  0  0  0  0  0  0
    1.4378    0.7610    3.3227 C   0  0  0  0  0  0  0  0  0  0  0  0
    2.4425    0.6787    4.0823 O   0  0  0  0  0  0  0  0  0  0  0  0
    1.4385    0.0613    2.0167 C   0  0  0  0  0  0  0  0  0  0  0  0
    2.5653   -0.6661    1.6065 C   0  0  0  0  0  0  0  0  0  0  0  0
    2.5770   -1.3273    0.3813 C   0  0  0  0  0  0  0  0  0  0  0  0
    1.4622   -1.2799   -0.4685 C   0  0  0  0  0  0  0  0  0  0  0  0
    0.3154   -0.5544   -0.0750 C   0  0  0  0  0  0  0  0  0  0  0  0
   -0.8213   -0.4981   -0.9123 C   0  0  0  0  0  0  0  0  0  0  0  0
   -1.9510    0.2229   -0.4987 C   0  0  0  0  0  0  0  0  0  0  0  0
   -1.9627    0.8841    0.7265 C   0  0  0  0  0  0  0  0  0  0  0  0
   -0.8451    0.8431    1.5729 C   0  0  0  0  0  0  0  0  0  0  0  0
    0.3034    0.1215    1.1773 C   0  0  0  0  0  0  0  0  0  0  0  0
   -0.8693    1.5509    2.8743 C   0  0  0  0  0  0  0  0  0  0  0  0
   -1.9088    2.1685    3.2366 O   0  0  0  0  0  0  0  0  0  0  0  0
   -0.8206   -1.1978   -2.2184 C   0  0  0  0  0  0  0  0  0  0  0  0
   -1.8497   -1.1699   -2.9488 O   0  0  0  0  0  0  0  0  0  0  0  0
    0.3518   -1.9111   -2.6522 N   0  0  0  0  0  0  0  0  0  0  0  0
    0.3523   -2.6358   -3.9315 C   0  0  0  0  0  0  0  0  0  0  0  0
   -0.1709   -4.0545   -3.7384 C   0  0  0  0  0  0  0  0  0  0  0  0
    1.4865   -1.9876   -1.7700 C   0  0  0  0  0  0  0  0  0  0  0  0
    2.5017   -2.6596   -2.1031 O   0  0  0  0  0  0  0  0  0  0  0  0
   -0.2782    1.7774    7.0876 H   0  0  0  0  0  0  0  0  0  0  0  0
   -1.2986    0.9388    5.8557 H   0  0  0  0  0  0  0  0  0  0  0  0
    0.3857    0.3621    6.1830 H   0  0  0  0  0  0  0  0  0  0  0  0
    1.2861    2.5453    5.3146 H   0  0  0  0  0  0  0  0  0  0  0  0
   -0.3709    3.1126    4.9926 H   0  0  0  0  0  0  0  0  0  0  0  0
    3.4451   -0.7248    2.2352 H   0  0  0  0  0  0  0  0  0  0  0  0
    3.4655   -1.8780    0.0984 H   0  0  0  0  0  0  0  0  0  0  0  0
   -2.8323    0.2781   -1.1255 H   0  0  0  0  0  0  0  0  0  0  0  0
   -2.8528    1.4314    1.0112 H   0  0  0  0  0  0  0  0  0  0  0  0
   -0.2784   -2.1072   -4.6787 H   0  0  0  0  0  0  0  0  0  0  0  0
    1.3786   -2.6745   -4.3566 H   0  0  0  0  0  0  0  0  0  0  0  0
   -0.1654   -4.5904   -4.7108 H   0  0  0  0  0  0  0  0  0  0  0  0
    0.4737   -4.6059   -3.0216 H   0  0  0  0  0  0  0  0  0  0  0  0
   -1.2106   -4.0292   -3.3490 H   0  0  0  0  0  0  0  0  0  0  0  0
  1  2  1  0
  2  3  1  0
  3  4  1  0
  4  5  2  0
  4  6  1  0
  6  7  1  0
  7  8  2  0
  8  9  1  0
  9 10  2  0
 10 11  1  0
 11 12  2  0
 12 13  1  0
 13 14  2  0
 14 15  1  0
 14 16  1  0
 16 17  2  0
 11 18  1  0
 18 19  2  0
 18 20  1  0
 20 21  1  0
 21 22  1  0
 20 23  1  0
 23 24  2  0
 16  3  1  0
 15  6  2  0
 23  9  1  0
 15 10  1  0
  1 25  1  0
  1 26  1  0
  1 27  1  0
  2 28  1  0
  2 29  1  0
  7 30  1  0
  8 31  1  0
 12 32  1  0
 13 33  1  0
 21 34  1  0
 21 35  1  0
 22 36  1  0
 22 37  1  0
 22 38  1  0
M  END

