
     RDKit          3D

 54 58  0  0  0  0  0  0  0  0999 V2000
    0.6896   -0.4607    5.6143 C   0  0  0  0  0  0  0  0  0  0  0  0
    1.0085    0.7308    4.7064 C   0  0  0  0  0  0  0  0  0  0  0  0
    1.9982    0.4064    3.5574 C   0  0  0  0  0  0  0  0  0  0  0  0
    3.3959    0.0306    4.1157 C   0  0  0  0  0  0  0  0  0  0  0  0
    4.4269   -0.2397    3.0157 C   0  0  0  0  0  0  0  0  0  0  0  0
    1.4910   -0.7275    2.8223 O   0  0  0  0  0  0  0  0  0  0  0  0
    0.7870   -0.6561    1.6083 C   0  0  0  0  0  0  0  0  0  0  0  0
    0.1460   -1.7963    1.1134 C   0  0  0  0  0  0  0  0  0  0  0  0
   -0.5513   -1.7338   -0.1016 C   0  0  0  0  0  0  0  0  0  0  0  0
   -0.6015   -0.5330   -0.8259 C   0  0  0  0  0  0  0  0  0  0  0  0
    0.0568    0.6016   -0.3423 C   0  0  0  0  0  0  0  0  0  0  0  0
    0.7473    0.5415    0.8774 C   0  0  0  0  0  0  0  0  0  0  0  0
    1.4672    1.6871    1.4333 C   0  0  0  0  0  0  0  0  0  0  0  0
    1.6774    3.2137    0.7597 S   0  0  0  0  0  0  0  0  0  0  0  0
    2.5603    3.8452    2.0474 C   0  0  0  0  0  0  0  0  0  0  0  0
    2.6927    2.8612    3.0207 C   0  0  0  0  0  0  0  0  0  0  0  0
    2.0909    1.6406    2.6673 C   0  0  0  0  0  0  0  0  0  0  0  0
   -1.2862   -0.4762   -2.0521 O   0  0  0  0  0  0  0  0  0  0  0  0
   -2.2621   -1.4464   -2.4861 C   0  0  0  0  0  0  0  0  0  0  0  0
   -3.6428   -0.9206   -2.0062 C   0  0  0  0  0  0  0  0  0  0  0  0
   -4.8518   -1.7911   -2.3642 C   0  0  0  0  0  0  0  0  0  0  0  0
   -2.1965   -1.5075   -4.0349 C   0  0  0  0  0  0  0  0  0  0  0  0
   -0.8002   -1.8571   -4.5578 C   0  0  0  0  0  0  0  0  0  0  0  0
   -1.9655   -2.8057   -1.8547 C   0  0  0  0  0  0  0  0  0  0  0  0
   -2.4564   -4.0531   -2.2821 C   0  0  0  0  0  0  0  0  0  0  0  0
   -2.0721   -5.1093   -1.4636 C   0  0  0  0  0  0  0  0  0  0  0  0
   -1.1288   -4.5037   -0.2071 S   0  0  0  0  0  0  0  0  0  0  0  0
   -1.2094   -2.8977   -0.6980 C   0  0  0  0  0  0  0  0  0  0  0  0
    1.5783   -0.7547    6.2093 H   0  0  0  0  0  0  0  0  0  0  0  0
    0.3330   -1.3286    5.0209 H   0  0  0  0  0  0  0  0  0  0  0  0
   -0.1136   -0.1737    6.3253 H   0  0  0  0  0  0  0  0  0  0  0  0
    1.4092    1.5572    5.3339 H   0  0  0  0  0  0  0  0  0  0  0  0
    0.0492    1.0840    4.2663 H   0  0  0  0  0  0  0  0  0  0  0  0
    3.7794    0.8339    4.7811 H   0  0  0  0  0  0  0  0  0  0  0  0
    3.3172   -0.8948    4.7242 H   0  0  0  0  0  0  0  0  0  0  0  0
    4.6277    0.6797    2.4271 H   0  0  0  0  0  0  0  0  0  0  0  0
    4.0701   -1.0406    2.3343 H   0  0  0  0  0  0  0  0  0  0  0  0
    5.3812   -0.5702    3.4773 H   0  0  0  0  0  0  0  0  0  0  0  0
    0.1948   -2.7203    1.6755 H   0  0  0  0  0  0  0  0  0  0  0  0
    0.0242    1.5196   -0.9150 H   0  0  0  0  0  0  0  0  0  0  0  0
    2.9472    4.8528    2.1154 H   0  0  0  0  0  0  0  0  0  0  0  0
    3.1998    3.0321    3.9606 H   0  0  0  0  0  0  0  0  0  0  0  0
   -3.6195   -0.8038   -0.9001 H   0  0  0  0  0  0  0  0  0  0  0  0
   -3.8092    0.0941   -2.4301 H   0  0  0  0  0  0  0  0  0  0  0  0
   -5.7765   -1.2872   -2.0121 H   0  0  0  0  0  0  0  0  0  0  0  0
   -4.7961   -2.7762   -1.8590 H   0  0  0  0  0  0  0  0  0  0  0  0
   -4.9405   -1.9304   -3.4602 H   0  0  0  0  0  0  0  0  0  0  0  0
   -2.4814   -0.5170   -4.4525 H   0  0  0  0  0  0  0  0  0  0  0  0
   -2.9125   -2.2518   -4.4388 H   0  0  0  0  0  0  0  0  0  0  0  0
   -0.4826   -2.8566   -4.1937 H   0  0  0  0  0  0  0  0  0  0  0  0
   -0.0582   -1.0967   -4.2353 H   0  0  0  0  0  0  0  0  0  0  0  0
   -0.8168   -1.8792   -5.6678 H   0  0  0  0  0  0  0  0  0  0  0  0
   -3.0841   -4.1914   -3.1515 H   0  0  0  0  0  0  0  0  0  0  0  0
   -2.3406   -6.1467   -1.6090 H   0  0  0  0  0  0  0  0  0  0  0  0
  1  2  1  0
  2  3  1  0
  3  4  1  0
  4  5  1  0
  3  6  1  0
  6  7  1  0
  7  8  2  0
  8  9  1  0
  9 10  2  0
 10 11  1  0
 11 12  2  0
 12 13  1  0
 13 14  1  0
 14 15  1  0
 15 16  2  0
 16 17  1  0
 10 18  1  0
 18 19  1  0
 19 20  1  0
 20 21  1  0
 19 22  1  0
 22 23  1  0
 19 24  1  0
 24 25  1  0
 25 26  2  0
 26 27  1  0
 27 28  1  0
 17  3  1  0
 28 24  2  0
 12  7  1  0
 17 13  2  0
 28  9  1  0
  1 29  1  0
  1 30  1  0
  1 31  1  0
  2 32  1  0
  2 33  1  0
  4 34  1  0
  4 35  1  0
  5 36  1  0
  5 37  1  0
  5 38  1  0
  8 39  1  0
 11 40  1  0
 15 41  1  0
 16 42  1  0
 20 43  1  0
 20 44  1  0
 21 45  1  0
 21 46  1  0
 21 47  1  0
 22 48  1  0
 22 49  1  0
 23 50  1  0
 23 51  1  0
 23 52  1  0
 25 53  1  0
 26 54  1  0
M  END

