
     RDKit          3D

110120  0  0  0  0  0  0  0  0999 V2000
    7.7332   -2.8085   -1.9020 C   0  0  0  0  0  0  0  0  0  0  0  0
    6.8910   -1.8553   -2.7442 C   0  0  0  0  0  0  0  0  0  0  0  0
    5.9910   -1.0237   -1.8699 C   0  0  0  0  0  0  0  0  0  0  0  0
    4.6985   -1.4612   -1.5620 C   0  0  0  0  0  0  0  0  0  0  0  0
    3.8736   -0.7019   -0.7296 C   0  0  0  0  0  0  0  0  0  0  0  0
    4.3168    0.5289   -0.1890 C   0  0  0  0  0  0  0  0  0  0  0  0
    3.4579    1.3607    0.7900 C   0  0  0  0  0  0  0  0  0  0  0  0
    3.3167    2.8610    0.4735 C   0  0  0  0  0  0  0  0  0  0  0  0
    3.8048    3.4441   -0.7195 C   0  0  0  0  0  0  0  0  0  0  0  0
    3.6690    4.8135   -0.9586 C   0  0  0  0  0  0  0  0  0  0  0  0
    3.0469    5.6409   -0.0154 C   0  0  0  0  0  0  0  0  0  0  0  0
    2.8580    7.1061   -0.3032 C   0  0  0  0  0  0  0  0  0  0  0  0
    1.4488    7.3767   -0.8219 C   0  0  0  0  0  0  0  0  0  0  0  0
    2.5456    5.0783    1.1673 C   0  0  0  0  0  0  0  0  0  0  0  0
    2.6765    3.7078    1.4073 C   0  0  0  0  0  0  0  0  0  0  0  0
    4.0990    1.2075    2.1657 C   0  0  0  0  0  0  0  0  0  0  0  0
    5.2699    1.6921    2.7540 C   0  0  0  0  0  0  0  0  0  0  0  0
    5.3424    1.3532    4.1114 C   0  0  0  0  0  0  0  0  0  0  0  0
    3.9481    0.4917    4.5756 S   0  0  0  0  0  0  0  0  0  0  0  0
    3.3084    0.5379    3.0318 C   0  0  0  0  0  0  0  0  0  0  0  0
    2.0679    0.2535    2.3963 C   0  0  0  0  0  0  0  0  0  0  0  0
    0.7883   -0.7544    2.7375 S   0  0  0  0  0  0  0  0  0  0  0  0
    0.1299   -0.5773    1.1790 C   0  0  0  0  0  0  0  0  0  0  0  0
   -0.9941   -1.2704    0.6827 C   0  0  0  0  0  0  0  0  0  0  0  0
   -1.5215   -2.4539    1.4641 C   0  0  0  0  0  0  0  0  0  0  0  0
   -0.5702   -3.6506    1.3808 C   0  0  0  0  0  0  0  0  0  0  0  0
   -1.4309   -0.9348   -0.6250 C   0  0  0  0  0  0  0  0  0  0  0  0
   -2.6103   -1.3269   -1.3186 C   0  0  0  0  0  0  0  0  0  0  0  0
   -2.6766   -0.7916   -2.5821 C   0  0  0  0  0  0  0  0  0  0  0  0
   -1.4166    0.2495   -2.8982 S   0  0  0  0  0  0  0  0  0  0  0  0
   -0.6578   -0.0490   -1.4095 C   0  0  0  0  0  0  0  0  0  0  0  0
    0.5332    0.5563   -0.9535 C   0  0  0  0  0  0  0  0  0  0  0  0
    1.2490    1.5334   -1.8500 C   0  0  0  0  0  0  0  0  0  0  0  0
    0.6723    2.9384   -1.6908 C   0  0  0  0  0  0  0  0  0  0  0  0
    0.9211    0.2922    0.3855 C   0  0  0  0  0  0  0  0  0  0  0  0
    2.0768    0.7197    1.1045 C   0  0  0  0  0  0  0  0  0  0  0  0
   -4.0157   -0.8733   -3.0719 C   0  0  0  0  0  0  0  0  0  0  0  0
   -4.9373   -0.0569   -4.2040 S   0  0  0  0  0  0  0  0  0  0  0  0
   -6.4092   -0.5489   -3.5085 C   0  0  0  0  0  0  0  0  0  0  0  0
   -6.1613   -1.2896   -2.3473 C   0  0  0  0  0  0  0  0  0  0  0  0
   -4.7912   -1.4551   -2.1253 C   0  0  0  0  0  0  0  0  0  0  0  0
   -3.9861   -1.9014   -0.9128 C   0  0  0  0  0  0  0  0  0  0  0  0
   -4.5130   -1.1942    0.3518 C   0  0  0  0  0  0  0  0  0  0  0  0
   -4.6284    0.2128    0.3622 C   0  0  0  0  0  0  0  0  0  0  0  0
   -5.0832    0.8939    1.4946 C   0  0  0  0  0  0  0  0  0  0  0  0
   -5.4249    0.1887    2.6543 C   0  0  0  0  0  0  0  0  0  0  0  0
   -5.9402    0.9227    3.8648 C   0  0  0  0  0  0  0  0  0  0  0  0
   -7.4135    1.2759    3.7026 C   0  0  0  0  0  0  0  0  0  0  0  0
   -5.3247   -1.2078    2.6587 C   0  0  0  0  0  0  0  0  0  0  0  0
   -4.8726   -1.8910    1.5267 C   0  0  0  0  0  0  0  0  0  0  0  0
   -4.0228   -3.4420   -0.9001 C   0  0  0  0  0  0  0  0  0  0  0  0
   -5.2395   -4.1162   -0.6606 C   0  0  0  0  0  0  0  0  0  0  0  0
   -5.3011   -5.5111   -0.6600 C   0  0  0  0  0  0  0  0  0  0  0  0
   -4.1503   -6.2746   -0.9061 C   0  0  0  0  0  0  0  0  0  0  0  0
   -4.2073   -7.7783   -0.8850 C   0  0  0  0  0  0  0  0  0  0  0  0
   -4.3448   -8.3410   -2.2940 C   0  0  0  0  0  0  0  0  0  0  0  0
   -2.9508   -5.6185   -1.2134 C   0  0  0  0  0  0  0  0  0  0  0  0
   -2.8895   -4.2220   -1.2276 C   0  0  0  0  0  0  0  0  0  0  0  0
    5.6435    0.9258   -0.4707 C   0  0  0  0  0  0  0  0  0  0  0  0
    6.4630    0.1680   -1.3095 C   0  0  0  0  0  0  0  0  0  0  0  0
    7.0764   -3.4797   -1.3086 H   0  0  0  0  0  0  0  0  0  0  0  0
    8.3680   -3.4338   -2.5642 H   0  0  0  0  0  0  0  0  0  0  0  0
    8.3900   -2.2360   -1.2154 H   0  0  0  0  0  0  0  0  0  0  0  0
    7.5613   -1.1967   -3.3394 H   0  0  0  0  0  0  0  0  0  0  0  0
    6.2862   -2.4488   -3.4648 H   0  0  0  0  0  0  0  0  0  0  0  0
    4.3301   -2.3992   -1.9580 H   0  0  0  0  0  0  0  0  0  0  0  0
    2.9007   -1.1099   -0.5062 H   0  0  0  0  0  0  0  0  0  0  0  0
    4.2644    2.8525   -1.4939 H   0  0  0  0  0  0  0  0  0  0  0  0
    4.0353    5.2290   -1.8903 H   0  0  0  0  0  0  0  0  0  0  0  0
    3.5939    7.4545   -1.0613 H   0  0  0  0  0  0  0  0  0  0  0  0
    3.0321    7.6994    0.6214 H   0  0  0  0  0  0  0  0  0  0  0  0
    1.2531    6.7768   -1.7378 H   0  0  0  0  0  0  0  0  0  0  0  0
    0.6928    7.1156   -0.0499 H   0  0  0  0  0  0  0  0  0  0  0  0
    1.3462    8.4574   -1.0664 H   0  0  0  0  0  0  0  0  0  0  0  0
    2.0466    5.7011    1.9014 H   0  0  0  0  0  0  0  0  0  0  0  0
    2.2713    3.3096    2.3278 H   0  0  0  0  0  0  0  0  0  0  0  0
    6.0109    2.2877    2.2433 H   0  0  0  0  0  0  0  0  0  0  0  0
    6.1479    1.6344    4.7777 H   0  0  0  0  0  0  0  0  0  0  0  0
   -1.6845   -2.1709    2.5264 H   0  0  0  0  0  0  0  0  0  0  0  0
   -2.4875   -2.7919    1.0819 H   0  0  0  0  0  0  0  0  0  0  0  0
   -0.4183   -3.9491    0.3215 H   0  0  0  0  0  0  0  0  0  0  0  0
    0.4155   -3.4132    1.8262 H   0  0  0  0  0  0  0  0  0  0  0  0
   -1.0084   -4.5093    1.9322 H   0  0  0  0  0  0  0  0  0  0  0  0
    2.3287    1.5200   -1.6569 H   0  0  0  0  0  0  0  0  0  0  0  0
    1.1598    1.2276   -2.9131 H   0  0  0  0  0  0  0  0  0  0  0  0
    0.7505    3.2737   -0.6394 H   0  0  0  0  0  0  0  0  0  0  0  0
    1.2226    3.6487   -2.3420 H   0  0  0  0  0  0  0  0  0  0  0  0
   -0.3960    2.9560   -1.9807 H   0  0  0  0  0  0  0  0  0  0  0  0
   -7.3895   -0.2646   -3.8638 H   0  0  0  0  0  0  0  0  0  0  0  0
   -6.9372   -1.6212   -1.6694 H   0  0  0  0  0  0  0  0  0  0  0  0
   -4.3650    0.7924   -0.5126 H   0  0  0  0  0  0  0  0  0  0  0  0
   -5.1676    1.9748    1.4689 H   0  0  0  0  0  0  0  0  0  0  0  0
   -5.3551    1.8545    4.0110 H   0  0  0  0  0  0  0  0  0  0  0  0
   -5.8109    0.3056    4.7789 H   0  0  0  0  0  0  0  0  0  0  0  0
   -8.0141    0.3552    3.5374 H   0  0  0  0  0  0  0  0  0  0  0  0
   -7.7770    1.7800    4.6252 H   0  0  0  0  0  0  0  0  0  0  0  0
   -7.5464    1.9697    2.8450 H   0  0  0  0  0  0  0  0  0  0  0  0
   -5.5899   -1.7696    3.5459 H   0  0  0  0  0  0  0  0  0  0  0  0
   -4.7815   -2.9653    1.6013 H   0  0  0  0  0  0  0  0  0  0  0  0
   -6.1441   -3.5606   -0.4587 H   0  0  0  0  0  0  0  0  0  0  0  0
   -6.2454   -5.9999   -0.4466 H   0  0  0  0  0  0  0  0  0  0  0  0
   -3.2800   -8.1808   -0.4229 H   0  0  0  0  0  0  0  0  0  0  0  0
   -5.0667   -8.1257   -0.2652 H   0  0  0  0  0  0  0  0  0  0  0  0
   -3.4684   -8.0489   -2.9126 H   0  0  0  0  0  0  0  0  0  0  0  0
   -4.4007   -9.4488   -2.2475 H   0  0  0  0  0  0  0  0  0  0  0  0
   -5.2711   -7.9608   -2.7715 H   0  0  0  0  0  0  0  0  0  0  0  0
   -2.0590   -6.1877   -1.4503 H   0  0  0  0  0  0  0  0  0  0  0  0
   -1.9461   -3.7661   -1.4884 H   0  0  0  0  0  0  0  0  0  0  0  0
    6.0430    1.8383   -0.0518 H   0  0  0  0  0  0  0  0  0  0  0  0
    7.4718    0.5019   -1.5108 H   0  0  0  0  0  0  0  0  0  0  0  0
  1  2  1  0
  2  3  1  0
  3  4  2  0
  4  5  1  0
  5  6  2  0
  6  7  1  0
  7  8  1  0
  8  9  2  0
  9 10  1  0
 10 11  2  0
 11 12  1  0
 12 13  1  0
 11 14  1  0
 14 15  2  0
  7 16  1  0
 16 17  1  0
 17 18  2  0
 18 19  1  0
 19 20  1  0
 20 21  1  0
 21 22  1  0
 22 23  1  0
 23 24  2  0
 24 25  1  0
 25 26  1  0
 24 27  1  0
 27 28  1  0
 28 29  2  0
 29 30  1  0
 30 31  1  0
 31 32  1  0
 32 33  1  0
 33 34  1  0
 32 35  2  0
 35 36  1  0
 29 37  1  0
 37 38  1  0
 38 39  1  0
 39 40  2  0
 40 41  1  0
 41 42  1  0
 42 43  1  0
 43 44  2  0
 44 45  1  0
 45 46  2  0
 46 47  1  0
 47 48  1  0
 46 49  1  0
 49 50  2  0
 42 51  1  0
 51 52  2  0
 52 53  1  0
 53 54  2  0
 54 55  1  0
 55 56  1  0
 54 57  1  0
 57 58  2  0
  6 59  1  0
 59 60  2  0
 60  3  1  0
 36  7  1  0
 41 37  2  0
 50 43  1  0
 58 51  1  0
 15  8  1  0
 20 16  2  0
 36 21  2  0
 35 23  1  0
 31 27  2  0
 42 28  1  0
  1 61  1  0
  1 62  1  0
  1 63  1  0
  2 64  1  0
  2 65  1  0
  4 66  1  0
  5 67  1  0
  9 68  1  0
 10 69  1  0
 12 70  1  0
 12 71  1  0
 13 72  1  0
 13 73  1  0
 13 74  1  0
 14 75  1  0
 15 76  1  0
 17 77  1  0
 18 78  1  0
 25 79  1  0
 25 80  1  0
 26 81  1  0
 26 82  1  0
 26 83  1  0
 33 84  1  0
 33 85  1  0
 34 86  1  0
 34 87  1  0
 34 88  1  0
 39 89  1  0
 40 90  1  0
 44 91  1  0
 45 92  1  0
 47 93  1  0
 47 94  1  0
 48 95  1  0
 48 96  1  0
 48 97  1  0
 49 98  1  0
 50 99  1  0
 52100  1  0
 53101  1  0
 55102  1  0
 55103  1  0
 56104  1  0
 56105  1  0
 56106  1  0
 57107  1  0
 58108  1  0
 59109  1  0
 60110  1  0
M  END

