
     RDKit          3D

 29 31  0  0  0  0  0  0  0  0999 V2000
   -2.1467   -2.2286    1.2029 C   0  0  0  0  0  0  0  0  0  0  0  0
   -1.6636   -0.7826    1.0672 C   0  0  0  0  0  0  0  0  0  0  0  0
   -0.1240   -0.6221    0.9841 C   0  0  0  0  0  0  0  0  0  0  0  0
    0.6016   -1.1268    2.2622 C   0  0  0  0  0  0  0  0  0  0  0  0
    2.1127   -0.8633    2.2783 C   0  0  0  0  0  0  0  0  0  0  0  0
    0.4453   -1.2367   -0.2899 C   0  0  0  0  0  0  0  0  0  0  0  0
    0.7945   -2.5392   -0.6490 C   0  0  0  0  0  0  0  0  0  0  0  0
    1.5717   -2.5614   -1.8134 C   0  0  0  0  0  0  0  0  0  0  0  0
    1.8729   -0.9708   -2.3458 S   0  0  0  0  0  0  0  0  0  0  0  0
    0.9395   -0.2905   -1.1366 C   0  0  0  0  0  0  0  0  0  0  0  0
    0.7943    0.9937   -0.5217 C   0  0  0  0  0  0  0  0  0  0  0  0
    1.3350    2.5600   -0.7455 S   0  0  0  0  0  0  0  0  0  0  0  0
    0.7240    3.0810    0.7601 C   0  0  0  0  0  0  0  0  0  0  0  0
    0.1379    2.0065    1.4416 C   0  0  0  0  0  0  0  0  0  0  0  0
    0.2014    0.8345    0.6904 C   0  0  0  0  0  0  0  0  0  0  0  0
   -1.7840   -2.6844    2.1465 H   0  0  0  0  0  0  0  0  0  0  0  0
   -3.2567   -2.2404    1.2258 H   0  0  0  0  0  0  0  0  0  0  0  0
   -1.8175   -2.8391    0.3381 H   0  0  0  0  0  0  0  0  0  0  0  0
   -2.0449   -0.2036    1.9368 H   0  0  0  0  0  0  0  0  0  0  0  0
   -2.1317   -0.3493    0.1550 H   0  0  0  0  0  0  0  0  0  0  0  0
    0.1524   -0.6411    3.1557 H   0  0  0  0  0  0  0  0  0  0  0  0
    0.4540   -2.2223    2.3660 H   0  0  0  0  0  0  0  0  0  0  0  0
    2.3258    0.2257    2.2673 H   0  0  0  0  0  0  0  0  0  0  0  0
    2.5498   -1.2901    3.2054 H   0  0  0  0  0  0  0  0  0  0  0  0
    2.6071   -1.3437    1.4084 H   0  0  0  0  0  0  0  0  0  0  0  0
    0.5556   -3.4179   -0.0656 H   0  0  0  0  0  0  0  0  0  0  0  0
    1.9802   -3.4547   -2.2657 H   0  0  0  0  0  0  0  0  0  0  0  0
    0.8104    4.0858    1.1505 H   0  0  0  0  0  0  0  0  0  0  0  0
   -0.2741    2.0690    2.4397 H   0  0  0  0  0  0  0  0  0  0  0  0
  1  2  1  0
  2  3  1  0
  3  4  1  0
  4  5  1  0
  3  6  1  0
  6  7  1  0
  7  8  2  0
  8  9  1  0
  9 10  1  0
 10 11  1  0
 11 12  1  0
 12 13  1  0
 13 14  2  0
 14 15  1  0
 15  3  1  0
 10  6  2  0
 15 11  2  0
  1 16  1  0
  1 17  1  0
  1 18  1  0
  2 19  1  0
  2 20  1  0
  4 21  1  0
  4 22  1  0
  5 23  1  0
  5 24  1  0
  5 25  1  0
  7 26  1  0
  8 27  1  0
 13 28  1  0
 14 29  1  0
M  END

