
     RDKit          3D

 38 41  0  0  0  0  0  0  0  0999 V2000
    4.0341   -2.5186    4.6187 C   0  0  0  0  0  0  0  0  0  0  0  0
    3.2836   -2.5189    3.5162 C   0  0  0  0  0  0  0  0  0  0  0  0
    3.0132   -3.6240    2.6914 C   0  0  0  0  0  0  0  0  0  0  0  0
    3.4387   -4.7980    2.8619 O   0  0  0  0  0  0  0  0  0  0  0  0
    2.1960   -3.2072    1.6526 C   0  0  0  0  0  0  0  0  0  0  0  0
    1.6240   -3.8631    0.5590 C   0  0  0  0  0  0  0  0  0  0  0  0
    0.8203   -3.0990   -0.3252 C   0  0  0  0  0  0  0  0  0  0  0  0
    0.6079   -1.7062   -0.0979 C   0  0  0  0  0  0  0  0  0  0  0  0
    1.2072   -1.0957    1.0182 C   0  0  0  0  0  0  0  0  0  0  0  0
    1.0688    0.2649    1.3417 C   0  0  0  0  0  0  0  0  0  0  0  0
    1.7249    0.7723    2.5022 C   0  0  0  0  0  0  0  0  0  0  0  0
    2.5085   -0.0783    3.3232 C   0  0  0  0  0  0  0  0  0  0  0  0
    2.6169   -1.4266    2.9600 C   0  0  0  0  0  0  0  0  0  0  0  0
    1.9789   -1.8812    1.8470 C   0  0  0  0  0  0  0  0  0  0  0  0
    0.2411    1.1144    0.4599 C   0  0  0  0  0  0  0  0  0  0  0  0
    0.0963    2.3387    0.7274 O   0  0  0  0  0  0  0  0  0  0  0  0
   -0.4030    0.5354   -0.7012 N   0  0  0  0  0  0  0  0  0  0  0  0
   -1.2706    1.3554   -1.5633 C   0  0  0  0  0  0  0  0  0  0  0  0
   -2.7627    1.1235   -1.2444 C   0  0  0  0  0  0  0  0  0  0  0  0
   -3.6417    1.8678   -2.2567 C   0  0  0  0  0  0  0  0  0  0  0  0
   -3.1116    1.5666    0.1829 C   0  0  0  0  0  0  0  0  0  0  0  0
   -0.2214   -0.8712   -0.9915 C   0  0  0  0  0  0  0  0  0  0  0  0
   -0.7664   -1.3881   -2.0053 O   0  0  0  0  0  0  0  0  0  0  0  0
    4.5086   -3.4287    4.9633 H   0  0  0  0  0  0  0  0  0  0  0  0
    4.1835   -1.6113    5.1893 H   0  0  0  0  0  0  0  0  0  0  0  0
    1.7882   -4.9196    0.3914 H   0  0  0  0  0  0  0  0  0  0  0  0
    0.3683   -3.5889   -1.1780 H   0  0  0  0  0  0  0  0  0  0  0  0
    1.6311    1.8169    2.7701 H   0  0  0  0  0  0  0  0  0  0  0  0
    3.0052    0.3086    4.2029 H   0  0  0  0  0  0  0  0  0  0  0  0
   -1.0730    1.0976   -2.6272 H   0  0  0  0  0  0  0  0  0  0  0  0
   -1.0242    2.4350   -1.4628 H   0  0  0  0  0  0  0  0  0  0  0  0
   -2.9869    0.0381   -1.3353 H   0  0  0  0  0  0  0  0  0  0  0  0
   -3.4210    1.5170   -3.2875 H   0  0  0  0  0  0  0  0  0  0  0  0
   -4.7157    1.6717   -2.0507 H   0  0  0  0  0  0  0  0  0  0  0  0
   -3.4600    2.9629   -2.2033 H   0  0  0  0  0  0  0  0  0  0  0  0
   -2.8562    2.6372    0.3352 H   0  0  0  0  0  0  0  0  0  0  0  0
   -4.1970    1.4271    0.3737 H   0  0  0  0  0  0  0  0  0  0  0  0
   -2.5595    0.9524    0.9247 H   0  0  0  0  0  0  0  0  0  0  0  0
  1  2  2  3
  2  3  1  0
  3  4  2  0
  3  5  1  0
  5  6  2  0
  6  7  1  0
  7  8  2  0
  8  9  1  0
  9 10  1  0
 10 11  2  0
 11 12  1  0
 12 13  2  0
 13 14  1  0
 10 15  1  0
 15 16  2  0
 15 17  1  0
 17 18  1  0
 18 19  1  0
 19 20  1  0
 19 21  1  0
 17 22  1  0
 22 23  2  0
 13  2  1  0
 14  5  1  0
 22  8  1  0
 14  9  2  0
  1 24  1  0
  1 25  1  0
  6 26  1  0
  7 27  1  0
 11 28  1  0
 12 29  1  0
 18 30  1  0
 18 31  1  0
 19 32  1  0
 20 33  1  0
 20 34  1  0
 20 35  1  0
 21 36  1  0
 21 37  1  0
 21 38  1  0
M  END

