
     RDKit          3D

 21 21  0  0  0  0  0  0  0  0999 V2000
    2.7398    1.6297    0.5345 C   0  0  0  0  0  0  0  0  0  0  0  0
    1.4618    0.9235    1.0033 C   0  0  0  0  0  0  0  0  0  0  0  0
    1.7855   -0.0343    2.1597 C   0  0  0  0  0  0  0  0  0  0  0  0
    0.7994    0.1845   -0.1784 C   0  0  0  0  0  0  0  0  0  0  0  0
   -0.5573   -0.3530    0.1829 C   0  0  0  0  0  0  0  0  0  0  0  0
   -0.7948   -1.7012    0.4946 C   0  0  0  0  0  0  0  0  0  0  0  0
   -2.1148   -1.9685    0.8287 C   0  0  0  0  0  0  0  0  0  0  0  0
   -2.9768   -0.5286    0.7416 S   0  0  0  0  0  0  0  0  0  0  0  0
   -1.6905    0.4482    0.2788 C   0  0  0  0  0  0  0  0  0  0  0  0
    2.5029    2.3576   -0.2707 H   0  0  0  0  0  0  0  0  0  0  0  0
    3.2012    2.1888    1.3764 H   0  0  0  0  0  0  0  0  0  0  0  0
    3.4755    0.8923    0.1469 H   0  0  0  0  0  0  0  0  0  0  0  0
    0.7631    1.7039    1.3793 H   0  0  0  0  0  0  0  0  0  0  0  0
    0.8536   -0.4751    2.5717 H   0  0  0  0  0  0  0  0  0  0  0  0
    2.2904    0.5146    2.9831 H   0  0  0  0  0  0  0  0  0  0  0  0
    2.4510   -0.8547    1.8151 H   0  0  0  0  0  0  0  0  0  0  0  0
    0.6772    0.8849   -1.0337 H   0  0  0  0  0  0  0  0  0  0  0  0
    1.4561   -0.6437   -0.5256 H   0  0  0  0  0  0  0  0  0  0  0  0
   -0.0250   -2.4618    0.4835 H   0  0  0  0  0  0  0  0  0  0  0  0
   -2.5150   -2.9352    1.1025 H   0  0  0  0  0  0  0  0  0  0  0  0
   -1.7354    1.5133    0.0943 H   0  0  0  0  0  0  0  0  0  0  0  0
  1  2  1  0
  2  3  1  0
  2  4  1  0
  4  5  1  0
  5  6  1  0
  6  7  2  0
  7  8  1  0
  8  9  1  0
  9  5  2  0
  1 10  1  0
  1 11  1  0
  1 12  1  0
  2 13  1  0
  3 14  1  0
  3 15  1  0
  3 16  1  0
  4 17  1  0
  4 18  1  0
  6 19  1  0
  7 20  1  0
  9 21  1  0
M  END

