
     RDKit          3D

 35 37  0  0  0  0  0  0  0  0999 V2000
   -0.9317   -3.3761   -1.4460 C   0  0  0  0  0  0  0  0  0  0  0  0
   -0.4486   -3.1645   -0.0147 C   0  0  0  0  0  0  0  0  0  0  0  0
    0.8214   -2.3640    0.0052 C   0  0  0  0  0  0  0  0  0  0  0  0
    2.0722   -2.9153   -0.3176 C   0  0  0  0  0  0  0  0  0  0  0  0
    3.2799   -1.7163   -0.2618 S   0  0  0  0  0  0  0  0  0  0  0  0
    2.1905   -0.5176    0.1478 C   0  0  0  0  0  0  0  0  0  0  0  0
    0.9200   -0.9902    0.2754 C   0  0  0  0  0  0  0  0  0  0  0  0
   -0.0454    0.1127    0.7189 C   0  0  0  0  0  0  0  0  0  0  0  0
   -0.6959   -0.1781    2.1019 C   0  0  0  0  0  0  0  0  0  0  0  0
    0.2894   -0.6568    3.1745 C   0  0  0  0  0  0  0  0  0  0  0  0
   -1.0963    0.3578   -0.3954 C   0  0  0  0  0  0  0  0  0  0  0  0
   -1.9767    1.5918   -0.1831 C   0  0  0  0  0  0  0  0  0  0  0  0
    0.9553    1.2608    0.8123 C   0  0  0  0  0  0  0  0  0  0  0  0
    0.9083    2.5319    1.3873 C   0  0  0  0  0  0  0  0  0  0  0  0
    2.1791    3.1165    1.4498 C   0  0  0  0  0  0  0  0  0  0  0  0
    3.3518    2.0333    0.8537 S   0  0  0  0  0  0  0  0  0  0  0  0
    2.2108    0.8755    0.4624 C   0  0  0  0  0  0  0  0  0  0  0  0
   -0.1808   -3.9553   -2.0247 H   0  0  0  0  0  0  0  0  0  0  0  0
   -1.8859   -3.9435   -1.4361 H   0  0  0  0  0  0  0  0  0  0  0  0
   -1.1026   -2.4001   -1.9474 H   0  0  0  0  0  0  0  0  0  0  0  0
   -1.2435   -2.6609    0.5670 H   0  0  0  0  0  0  0  0  0  0  0  0
   -0.2664   -4.1532    0.4586 H   0  0  0  0  0  0  0  0  0  0  0  0
    2.2454   -3.9527   -0.5716 H   0  0  0  0  0  0  0  0  0  0  0  0
   -1.1804    0.7460    2.4825 H   0  0  0  0  0  0  0  0  0  0  0  0
   -1.4977   -0.9370    1.9981 H   0  0  0  0  0  0  0  0  0  0  0  0
   -0.2447   -0.7686    4.1414 H   0  0  0  0  0  0  0  0  0  0  0  0
    1.1103    0.0778    3.3119 H   0  0  0  0  0  0  0  0  0  0  0  0
    0.7186   -1.6436    2.9023 H   0  0  0  0  0  0  0  0  0  0  0  0
   -0.5817    0.4671   -1.3761 H   0  0  0  0  0  0  0  0  0  0  0  0
   -1.7634   -0.5263   -0.4722 H   0  0  0  0  0  0  0  0  0  0  0  0
   -2.5342    1.5270    0.7732 H   0  0  0  0  0  0  0  0  0  0  0  0
   -2.7187    1.6549   -1.0068 H   0  0  0  0  0  0  0  0  0  0  0  0
   -1.3693    2.5189   -0.2043 H   0  0  0  0  0  0  0  0  0  0  0  0
    0.0138    2.9881    1.7890 H   0  0  0  0  0  0  0  0  0  0  0  0
    2.3910    4.0885    1.8738 H   0  0  0  0  0  0  0  0  0  0  0  0
  1  2  1  0
  2  3  1  0
  3  4  2  0
  4  5  1  0
  5  6  1  0
  6  7  2  0
  7  8  1  0
  8  9  1  0
  9 10  1  0
  8 11  1  0
 11 12  1  0
  8 13  1  0
 13 14  1  0
 14 15  2  0
 15 16  1  0
 16 17  1  0
  7  3  1  0
 17 13  2  0
 17  6  1  0
  1 18  1  0
  1 19  1  0
  1 20  1  0
  2 21  1  0
  2 22  1  0
  4 23  1  0
  9 24  1  0
  9 25  1  0
 10 26  1  0
 10 27  1  0
 10 28  1  0
 11 29  1  0
 11 30  1  0
 12 31  1  0
 12 32  1  0
 12 33  1  0
 14 34  1  0
 15 35  1  0
M  END

