
     RDKit          3D

 33 34  0  0  0  0  0  0  0  0999 V2000
   -3.0550   -1.2427    3.5924 C   0  0  0  0  0  0  0  0  0  0  0  0
   -1.7511   -0.5133    3.8971 C   0  0  0  0  0  0  0  0  0  0  0  0
   -1.0914   -0.1307    2.6902 O   0  0  0  0  0  0  0  0  0  0  0  0
   -0.3805   -0.9873    1.8291 C   0  0  0  0  0  0  0  0  0  0  0  0
   -0.1484   -2.3385    2.1492 C   0  0  0  0  0  0  0  0  0  0  0  0
    0.5344   -3.1680    1.2621 C   0  0  0  0  0  0  0  0  0  0  0  0
    1.0029   -2.6670    0.0498 C   0  0  0  0  0  0  0  0  0  0  0  0
    0.7990   -1.3173   -0.2898 C   0  0  0  0  0  0  0  0  0  0  0  0
    1.2875   -0.7803   -1.4928 O   0  0  0  0  0  0  0  0  0  0  0  0
    1.9935   -1.5184   -2.4861 C   0  0  0  0  0  0  0  0  0  0  0  0
    2.3400   -0.5994   -3.6461 C   0  0  0  0  0  0  0  0  0  0  0  0
    0.1033   -0.4735    0.6046 C   0  0  0  0  0  0  0  0  0  0  0  0
   -0.1238    0.9492    0.2551 C   0  0  0  0  0  0  0  0  0  0  0  0
    0.1785    2.0161    1.1188 C   0  0  0  0  0  0  0  0  0  0  0  0
   -0.1135    3.2637    0.5866 C   0  0  0  0  0  0  0  0  0  0  0  0
   -0.7453    3.0393   -0.9535 S   0  0  0  0  0  0  0  0  0  0  0  0
   -0.6556    1.3620   -0.9644 C   0  0  0  0  0  0  0  0  0  0  0  0
   -2.8600   -2.1832    3.0378 H   0  0  0  0  0  0  0  0  0  0  0  0
   -3.5742   -1.4903    4.5420 H   0  0  0  0  0  0  0  0  0  0  0  0
   -3.7160   -0.5934    2.9801 H   0  0  0  0  0  0  0  0  0  0  0  0
   -1.9925    0.4083    4.4673 H   0  0  0  0  0  0  0  0  0  0  0  0
   -1.0858   -1.1312    4.5362 H   0  0  0  0  0  0  0  0  0  0  0  0
   -0.4941   -2.7647    3.0796 H   0  0  0  0  0  0  0  0  0  0  0  0
    0.7027   -4.2067    1.5167 H   0  0  0  0  0  0  0  0  0  0  0  0
    1.5319   -3.3372   -0.6136 H   0  0  0  0  0  0  0  0  0  0  0  0
    1.3585   -2.3509   -2.8593 H   0  0  0  0  0  0  0  0  0  0  0  0
    2.9317   -1.9294   -2.0544 H   0  0  0  0  0  0  0  0  0  0  0  0
    2.8890   -1.1689   -4.4253 H   0  0  0  0  0  0  0  0  0  0  0  0
    2.9801    0.2356   -3.2902 H   0  0  0  0  0  0  0  0  0  0  0  0
    1.4110   -0.1826   -4.0899 H   0  0  0  0  0  0  0  0  0  0  0  0
    0.6105    1.8866    2.1026 H   0  0  0  0  0  0  0  0  0  0  0  0
    0.0432    4.2139    1.0786 H   0  0  0  0  0  0  0  0  0  0  0  0
   -0.9695    0.7183   -1.7755 H   0  0  0  0  0  0  0  0  0  0  0  0
  1  2  1  0
  2  3  1  0
  3  4  1  0
  4  5  2  0
  5  6  1  0
  6  7  2  0
  7  8  1  0
  8  9  1  0
  9 10  1  0
 10 11  1  0
  8 12  2  0
 12 13  1  0
 13 14  1  0
 14 15  2  0
 15 16  1  0
 16 17  1  0
 12  4  1  0
 17 13  2  0
  1 18  1  0
  1 19  1  0
  1 20  1  0
  2 21  1  0
  2 22  1  0
  5 23  1  0
  6 24  1  0
  7 25  1  0
 10 26  1  0
 10 27  1  0
 11 28  1  0
 11 29  1  0
 11 30  1  0
 14 31  1  0
 15 32  1  0
 17 33  1  0
M  END

