
     RDKit          3D

 77 86  0  0  0  0  0  0  0  0999 V2000
   -1.3934    1.0997   -7.7046 C   0  0  0  0  0  0  0  0  0  0  0  0
   -0.2139    0.5016   -8.4660 C   0  0  0  0  0  0  0  0  0  0  0  0
   -0.2157   -1.0074   -8.3586 C   0  0  0  0  0  0  0  0  0  0  0  0
   -0.8415   -1.7565   -9.3715 C   0  0  0  0  0  0  0  0  0  0  0  0
   -0.9352   -3.1465   -9.2745 C   0  0  0  0  0  0  0  0  0  0  0  0
   -0.4201   -3.8061   -8.1591 C   0  0  0  0  0  0  0  0  0  0  0  0
    0.1934   -3.0788   -7.1379 C   0  0  0  0  0  0  0  0  0  0  0  0
    0.3068   -1.6820   -7.2262 C   0  0  0  0  0  0  0  0  0  0  0  0
    0.9575   -0.9578   -6.1196 C   0  0  0  0  0  0  0  0  0  0  0  0
    2.2127   -0.3420   -6.2132 C   0  0  0  0  0  0  0  0  0  0  0  0
    2.6510    0.2869   -4.6924 S   0  0  0  0  0  0  0  0  0  0  0  0
    1.2359   -0.1973   -3.9324 C   0  0  0  0  0  0  0  0  0  0  0  0
    0.4425   -0.8690   -4.8272 C   0  0  0  0  0  0  0  0  0  0  0  0
   -0.9126   -1.5654   -4.0685 S   0  0  0  0  0  0  0  0  0  0  0  0
   -0.4458   -0.9002   -2.5779 C   0  0  0  0  0  0  0  0  0  0  0  0
   -0.6683   -1.1897   -1.2639 C   0  0  0  0  0  0  0  0  0  0  0  0
   -1.5183   -2.1355   -0.6801 C   0  0  0  0  0  0  0  0  0  0  0  0
   -2.4843   -2.8105   -1.3509 N   0  0  0  0  0  0  0  0  0  0  0  0
   -3.0866   -3.7363   -0.1164 S   0  0  0  0  0  0  0  0  0  0  0  0
   -2.2030   -3.3579    1.2324 N   0  0  0  0  0  0  0  0  0  0  0  0
   -1.3581   -2.4398    0.7013 C   0  0  0  0  0  0  0  0  0  0  0  0
   -0.3666   -1.7710    1.4258 C   0  0  0  0  0  0  0  0  0  0  0  0
   -0.1412   -1.7122    2.7691 C   0  0  0  0  0  0  0  0  0  0  0  0
   -0.9282   -2.2457    4.1753 S   0  0  0  0  0  0  0  0  0  0  0  0
   -0.0873   -1.0931    5.1065 C   0  0  0  0  0  0  0  0  0  0  0  0
   -0.1635   -0.7167    6.4473 C   0  0  0  0  0  0  0  0  0  0  0  0
   -0.9746   -1.4244    7.4587 C   0  0  0  0  0  0  0  0  0  0  0  0
   -0.7091   -2.7865    7.6814 C   0  0  0  0  0  0  0  0  0  0  0  0
   -1.4538   -3.5145    8.6100 C   0  0  0  0  0  0  0  0  0  0  0  0
   -2.4778   -2.8948    9.3229 C   0  0  0  0  0  0  0  0  0  0  0  0
   -2.7638   -1.5456    9.1073 C   0  0  0  0  0  0  0  0  0  0  0  0
   -2.0263   -0.7935    8.1741 C   0  0  0  0  0  0  0  0  0  0  0  0
   -2.4159    0.6519    7.9525 C   0  0  0  0  0  0  0  0  0  0  0  0
   -1.9538    1.5314    9.1122 C   0  0  0  0  0  0  0  0  0  0  0  0
    0.6392    0.4042    6.7060 C   0  0  0  0  0  0  0  0  0  0  0  0
    1.3839    0.9190    5.2621 S   0  0  0  0  0  0  0  0  0  0  0  0
    0.7197   -0.3036    4.3278 C   0  0  0  0  0  0  0  0  0  0  0  0
    0.7046   -0.6736    2.9878 C   0  0  0  0  0  0  0  0  0  0  0  0
    1.0788   -0.0505    1.8397 N   0  0  0  0  0  0  0  0  0  0  0  0
    1.5123    1.3490    1.7677 C   0  0  0  0  0  0  0  0  0  0  0  0
    2.9881    1.5082    2.1477 C   0  0  0  0  0  0  0  0  0  0  0  0
    0.4527   -0.7809    0.8552 C   0  0  0  0  0  0  0  0  0  0  0  0
    0.3595   -0.5485   -0.5486 C   0  0  0  0  0  0  0  0  0  0  0  0
    1.2576    0.0323   -1.4164 N   0  0  0  0  0  0  0  0  0  0  0  0
    2.6800    0.3053   -1.1834 C   0  0  0  0  0  0  0  0  0  0  0  0
    3.0331    1.7659   -1.4777 C   0  0  0  0  0  0  0  0  0  0  0  0
    0.7154   -0.1983   -2.6419 C   0  0  0  0  0  0  0  0  0  0  0  0
   -1.3322    0.8428   -6.6258 H   0  0  0  0  0  0  0  0  0  0  0  0
   -2.3507    0.7159   -8.1167 H   0  0  0  0  0  0  0  0  0  0  0  0
   -1.3799    2.2056   -7.8066 H   0  0  0  0  0  0  0  0  0  0  0  0
   -0.2799    0.8124   -9.5320 H   0  0  0  0  0  0  0  0  0  0  0  0
    0.7326    0.9277   -8.0758 H   0  0  0  0  0  0  0  0  0  0  0  0
   -1.2682   -1.2618  -10.2353 H   0  0  0  0  0  0  0  0  0  0  0  0
   -1.4173   -3.7118  -10.0619 H   0  0  0  0  0  0  0  0  0  0  0  0
   -0.4993   -4.8832   -8.0829 H   0  0  0  0  0  0  0  0  0  0  0  0
    0.5846   -3.6064   -6.2762 H   0  0  0  0  0  0  0  0  0  0  0  0
    2.8254   -0.3028   -7.1041 H   0  0  0  0  0  0  0  0  0  0  0  0
    0.0830   -3.2859    7.1360 H   0  0  0  0  0  0  0  0  0  0  0  0
   -1.2384   -4.5624    8.7745 H   0  0  0  0  0  0  0  0  0  0  0  0
   -3.0566   -3.4621   10.0404 H   0  0  0  0  0  0  0  0  0  0  0  0
   -3.5732   -1.0865    9.6623 H   0  0  0  0  0  0  0  0  0  0  0  0
   -3.5226    0.7248    7.8676 H   0  0  0  0  0  0  0  0  0  0  0  0
   -2.0062    1.0493    7.0014 H   0  0  0  0  0  0  0  0  0  0  0  0
   -0.8588    1.4379    9.2658 H   0  0  0  0  0  0  0  0  0  0  0  0
   -2.1929    2.5943    8.8917 H   0  0  0  0  0  0  0  0  0  0  0  0
   -2.4761    1.2403   10.0491 H   0  0  0  0  0  0  0  0  0  0  0  0
    0.7694    0.8751    7.6699 H   0  0  0  0  0  0  0  0  0  0  0  0
    1.3240    1.7490    0.7589 H   0  0  0  0  0  0  0  0  0  0  0  0
    0.8889    1.9699    2.4466 H   0  0  0  0  0  0  0  0  0  0  0  0
    3.5753    0.5991    1.9082 H   0  0  0  0  0  0  0  0  0  0  0  0
    3.0954    1.7037    3.2316 H   0  0  0  0  0  0  0  0  0  0  0  0
    3.4230    2.3740    1.6050 H   0  0  0  0  0  0  0  0  0  0  0  0
    3.2969   -0.3571   -1.8280 H   0  0  0  0  0  0  0  0  0  0  0  0
    2.9554    0.0438   -0.1503 H   0  0  0  0  0  0  0  0  0  0  0  0
    4.0329    1.9985   -1.0529 H   0  0  0  0  0  0  0  0  0  0  0  0
    3.0703    1.9531   -2.5666 H   0  0  0  0  0  0  0  0  0  0  0  0
    2.2910    2.4664   -1.0499 H   0  0  0  0  0  0  0  0  0  0  0  0
  1  2  1  0
  2  3  1  0
  3  4  2  0
  4  5  1  0
  5  6  2  0
  6  7  1  0
  7  8  2  0
  8  9  1  0
  9 10  2  0
 10 11  1  0
 11 12  1  0
 12 13  2  0
 13 14  1  0
 14 15  1  0
 15 16  1  0
 16 17  1  0
 17 18  2  0
 18 19  1  0
 19 20  1  0
 20 21  2  0
 21 22  1  0
 22 23  1  0
 23 24  1  0
 24 25  1  0
 25 26  1  0
 26 27  1  0
 27 28  2  0
 28 29  1  0
 29 30  2  0
 30 31  1  0
 31 32  2  0
 32 33  1  0
 33 34  1  0
 26 35  2  0
 35 36  1  0
 36 37  1  0
 37 38  1  0
 38 39  1  0
 39 40  1  0
 40 41  1  0
 39 42  1  0
 42 43  1  0
 43 44  1  0
 44 45  1  0
 45 46  1  0
 44 47  1  0
  8  3  1  0
 13  9  1  0
 47 15  2  0
 47 12  1  0
 43 16  2  0
 21 17  1  0
 42 22  2  0
 38 23  2  0
 37 25  2  0
 32 27  1  0
  1 48  1  0
  1 49  1  0
  1 50  1  0
  2 51  1  0
  2 52  1  0
  4 53  1  0
  5 54  1  0
  6 55  1  0
  7 56  1  0
 10 57  1  0
 28 58  1  0
 29 59  1  0
 30 60  1  0
 31 61  1  0
 33 62  1  0
 33 63  1  0
 34 64  1  0
 34 65  1  0
 34 66  1  0
 35 67  1  0
 40 68  1  0
 40 69  1  0
 41 70  1  0
 41 71  1  0
 41 72  1  0
 45 73  1  0
 45 74  1  0
 46 75  1  0
 46 76  1  0
 46 77  1  0
M  END

