
     RDKit          3D

 26 26  0  0  0  0  0  0  0  0999 V2000
    0.8316    1.9337    3.2599 C   0  0  0  0  0  0  0  0  0  0  0  0
    1.9639    1.3267    2.4386 C   0  0  0  0  0  0  0  0  0  0  0  0
    1.4526    0.6727    1.2769 O   0  0  0  0  0  0  0  0  0  0  0  0
    0.8007   -0.5729    1.2556 C   0  0  0  0  0  0  0  0  0  0  0  0
    0.6877   -1.3861    2.4015 C   0  0  0  0  0  0  0  0  0  0  0  0
    0.0329   -2.6171    2.3310 C   0  0  0  0  0  0  0  0  0  0  0  0
   -0.5103   -3.0525    1.1231 C   0  0  0  0  0  0  0  0  0  0  0  0
   -0.4015   -2.2591   -0.0205 C   0  0  0  0  0  0  0  0  0  0  0  0
    0.2530   -1.0119    0.0376 C   0  0  0  0  0  0  0  0  0  0  0  0
    0.3894   -0.1795   -1.0872 O   0  0  0  0  0  0  0  0  0  0  0  0
   -0.1980   -0.4061   -2.3687 C   0  0  0  0  0  0  0  0  0  0  0  0
   -1.6888   -0.0863   -2.3444 C   0  0  0  0  0  0  0  0  0  0  0  0
    0.1452    1.1441    3.6283 H   0  0  0  0  0  0  0  0  0  0  0  0
    0.2558    2.6503    2.6368 H   0  0  0  0  0  0  0  0  0  0  0  0
    1.2530    2.4749    4.1330 H   0  0  0  0  0  0  0  0  0  0  0  0
    2.5734    0.6297    3.0516 H   0  0  0  0  0  0  0  0  0  0  0  0
    2.6341    2.1479    2.1083 H   0  0  0  0  0  0  0  0  0  0  0  0
    1.1032   -1.0821    3.3512 H   0  0  0  0  0  0  0  0  0  0  0  0
   -0.0510   -3.2363    3.2149 H   0  0  0  0  0  0  0  0  0  0  0  0
   -1.0148   -4.0088    1.0717 H   0  0  0  0  0  0  0  0  0  0  0  0
   -0.8274   -2.6295   -0.9416 H   0  0  0  0  0  0  0  0  0  0  0  0
    0.2919    0.2706   -3.1000 H   0  0  0  0  0  0  0  0  0  0  0  0
   -0.0178   -1.4472   -2.7104 H   0  0  0  0  0  0  0  0  0  0  0  0
   -2.1164   -0.2258   -3.3595 H   0  0  0  0  0  0  0  0  0  0  0  0
   -2.2233   -0.7543   -1.6384 H   0  0  0  0  0  0  0  0  0  0  0  0
   -1.8434    0.9678   -2.0311 H   0  0  0  0  0  0  0  0  0  0  0  0
  1  2  1  0
  2  3  1  0
  3  4  1  0
  4  5  2  0
  5  6  1  0
  6  7  2  0
  7  8  1  0
  8  9  2  0
  9 10  1  0
 10 11  1  0
 11 12  1  0
  9  4  1  0
  1 13  1  0
  1 14  1  0
  1 15  1  0
  2 16  1  0
  2 17  1  0
  5 18  1  0
  6 19  1  0
  7 20  1  0
  8 21  1  0
 11 22  1  0
 11 23  1  0
 12 24  1  0
 12 25  1  0
 12 26  1  0
M  END

