
     RDKit          3D

 52 56  0  0  0  0  0  0  0  0999 V2000
   -2.8197   -4.2145    4.6119 C   0  0  0  0  0  0  0  0  0  0  0  0
   -1.3089   -4.0262    4.5232 C   0  0  0  0  0  0  0  0  0  0  0  0
   -0.9400   -3.2513    3.2868 C   0  0  0  0  0  0  0  0  0  0  0  0
   -0.8939   -1.8513    3.3169 C   0  0  0  0  0  0  0  0  0  0  0  0
   -0.5853   -1.1297    2.1616 C   0  0  0  0  0  0  0  0  0  0  0  0
   -0.2984   -1.7909    0.9494 C   0  0  0  0  0  0  0  0  0  0  0  0
   -0.0213   -0.9743   -0.3195 C   0  0  0  0  0  0  0  0  0  0  0  0
    0.8489    0.2626   -0.0650 C   0  0  0  0  0  0  0  0  0  0  0  0
    1.9995    0.1479    0.7416 C   0  0  0  0  0  0  0  0  0  0  0  0
    2.8372    1.2445    0.9567 C   0  0  0  0  0  0  0  0  0  0  0  0
    2.5649    2.4746    0.3438 C   0  0  0  0  0  0  0  0  0  0  0  0
    3.4485    3.6652    0.6029 C   0  0  0  0  0  0  0  0  0  0  0  0
    2.9580    4.4467    1.8170 C   0  0  0  0  0  0  0  0  0  0  0  0
    1.4368    2.5959   -0.4789 C   0  0  0  0  0  0  0  0  0  0  0  0
    0.5971    1.5003   -0.6957 C   0  0  0  0  0  0  0  0  0  0  0  0
   -1.3555   -0.6671   -1.0036 C   0  0  0  0  0  0  0  0  0  0  0  0
   -2.4418    0.0559   -0.4971 C   0  0  0  0  0  0  0  0  0  0  0  0
   -3.5841    0.2126   -1.3009 C   0  0  0  0  0  0  0  0  0  0  0  0
   -3.6341   -0.3517   -2.5916 C   0  0  0  0  0  0  0  0  0  0  0  0
   -2.5424   -1.0784   -3.0920 C   0  0  0  0  0  0  0  0  0  0  0  0
   -1.4227   -1.2172   -2.2771 C   0  0  0  0  0  0  0  0  0  0  0  0
   -0.1802   -1.8980   -2.5059 C   0  0  0  0  0  0  0  0  0  0  0  0
    0.5377   -2.8038   -3.7155 S   0  0  0  0  0  0  0  0  0  0  0  0
    1.9592   -3.0581   -2.8089 C   0  0  0  0  0  0  0  0  0  0  0  0
    1.8521   -2.4297   -1.5624 C   0  0  0  0  0  0  0  0  0  0  0  0
    0.6247   -1.7821   -1.4245 C   0  0  0  0  0  0  0  0  0  0  0  0
   -0.3991   -3.1990    0.9193 C   0  0  0  0  0  0  0  0  0  0  0  0
   -0.7080   -3.9185    2.0766 C   0  0  0  0  0  0  0  0  0  0  0  0
   -3.0699   -4.7874    5.5295 H   0  0  0  0  0  0  0  0  0  0  0  0
   -3.3291   -3.2282    4.6583 H   0  0  0  0  0  0  0  0  0  0  0  0
   -3.1905   -4.7775    3.7287 H   0  0  0  0  0  0  0  0  0  0  0  0
   -0.9522   -3.4912    5.4302 H   0  0  0  0  0  0  0  0  0  0  0  0
   -0.8152   -5.0223    4.5115 H   0  0  0  0  0  0  0  0  0  0  0  0
   -1.1061   -1.3167    4.2346 H   0  0  0  0  0  0  0  0  0  0  0  0
   -0.5751   -0.0485    2.2149 H   0  0  0  0  0  0  0  0  0  0  0  0
    2.2487   -0.7956    1.2108 H   0  0  0  0  0  0  0  0  0  0  0  0
    3.7023    1.1325    1.5986 H   0  0  0  0  0  0  0  0  0  0  0  0
    3.4586    4.3349   -0.2846 H   0  0  0  0  0  0  0  0  0  0  0  0
    4.4953    3.3340    0.7784 H   0  0  0  0  0  0  0  0  0  0  0  0
    1.9239    4.8152    1.6461 H   0  0  0  0  0  0  0  0  0  0  0  0
    2.9728    3.8022    2.7219 H   0  0  0  0  0  0  0  0  0  0  0  0
    3.6223    5.3192    1.9910 H   0  0  0  0  0  0  0  0  0  0  0  0
    1.2102    3.5398   -0.9593 H   0  0  0  0  0  0  0  0  0  0  0  0
   -0.2434    1.6311   -1.3630 H   0  0  0  0  0  0  0  0  0  0  0  0
   -2.4042    0.4933    0.4915 H   0  0  0  0  0  0  0  0  0  0  0  0
   -4.4316    0.7711   -0.9256 H   0  0  0  0  0  0  0  0  0  0  0  0
   -4.5197   -0.2247   -3.2004 H   0  0  0  0  0  0  0  0  0  0  0  0
   -2.5715   -1.5176   -4.0807 H   0  0  0  0  0  0  0  0  0  0  0  0
    2.8173   -3.6245   -3.1439 H   0  0  0  0  0  0  0  0  0  0  0  0
    2.6208   -2.4503   -0.8020 H   0  0  0  0  0  0  0  0  0  0  0  0
   -0.2519   -3.7520    0.0017 H   0  0  0  0  0  0  0  0  0  0  0  0
   -0.7768   -4.9982    2.0262 H   0  0  0  0  0  0  0  0  0  0  0  0
  1  2  1  0
  2  3  1  0
  3  4  2  0
  4  5  1  0
  5  6  2  0
  6  7  1  0
  7  8  1  0
  8  9  2  0
  9 10  1  0
 10 11  2  0
 11 12  1  0
 12 13  1  0
 11 14  1  0
 14 15  2  0
  7 16  1  0
 16 17  2  0
 17 18  1  0
 18 19  2  0
 19 20  1  0
 20 21  2  0
 21 22  1  0
 22 23  1  0
 23 24  1  0
 24 25  2  0
 25 26  1  0
  6 27  1  0
 27 28  2  0
 28  3  1  0
 26  7  1  0
 15  8  1  0
 21 16  1  0
 26 22  2  0
  1 29  1  0
  1 30  1  0
  1 31  1  0
  2 32  1  0
  2 33  1  0
  4 34  1  0
  5 35  1  0
  9 36  1  0
 10 37  1  0
 12 38  1  0
 12 39  1  0
 13 40  1  0
 13 41  1  0
 13 42  1  0
 14 43  1  0
 15 44  1  0
 17 45  1  0
 18 46  1  0
 19 47  1  0
 20 48  1  0
 24 49  1  0
 25 50  1  0
 27 51  1  0
 28 52  1  0
M  END

