
     RDKit          3D

 36 39  0  0  0  0  0  0  0  0999 V2000
   -0.1781   -3.2339    3.9550 C   0  0  0  0  0  0  0  0  0  0  0  0
   -1.0326   -3.1643    2.8517 C   0  0  0  0  0  0  0  0  0  0  0  0
   -0.6741   -2.4042    1.7344 C   0  0  0  0  0  0  0  0  0  0  0  0
    0.5396   -1.6930    1.7200 C   0  0  0  0  0  0  0  0  0  0  0  0
    0.9405   -0.8949    0.5396 C   0  0  0  0  0  0  0  0  0  0  0  0
    2.1856   -1.0934    0.0250 N   0  0  0  0  0  0  0  0  0  0  0  0
    2.6075   -0.4559   -1.0960 C   0  0  0  0  0  0  0  0  0  0  0  0
    3.8903   -0.6827   -1.6068 C   0  0  0  0  0  0  0  0  0  0  0  0
    4.3012   -0.0256   -2.7721 C   0  0  0  0  0  0  0  0  0  0  0  0
    3.4323    0.8556   -3.4267 C   0  0  0  0  0  0  0  0  0  0  0  0
    2.1487    1.0848   -2.9184 C   0  0  0  0  0  0  0  0  0  0  0  0
    1.7347    0.4298   -1.7534 C   0  0  0  0  0  0  0  0  0  0  0  0
    0.4991    0.6489   -1.2373 N   0  0  0  0  0  0  0  0  0  0  0  0
    0.0737    0.0287   -0.1020 C   0  0  0  0  0  0  0  0  0  0  0  0
   -1.2596    0.3890    0.4305 C   0  0  0  0  0  0  0  0  0  0  0  0
   -1.4263    0.7517    1.7794 C   0  0  0  0  0  0  0  0  0  0  0  0
   -2.6899    1.1023    2.2642 C   0  0  0  0  0  0  0  0  0  0  0  0
   -3.7923    1.1094    1.4057 C   0  0  0  0  0  0  0  0  0  0  0  0
   -3.6316    0.7724    0.0592 C   0  0  0  0  0  0  0  0  0  0  0  0
   -2.3698    0.4201   -0.4298 C   0  0  0  0  0  0  0  0  0  0  0  0
    1.4019   -1.7867    2.8251 C   0  0  0  0  0  0  0  0  0  0  0  0
    1.0396   -2.5489    3.9401 C   0  0  0  0  0  0  0  0  0  0  0  0
   -0.4567   -3.8237    4.8187 H   0  0  0  0  0  0  0  0  0  0  0  0
   -1.9707   -3.7040    2.8597 H   0  0  0  0  0  0  0  0  0  0  0  0
   -1.3384   -2.3780    0.8797 H   0  0  0  0  0  0  0  0  0  0  0  0
    4.5662   -1.3653   -1.1067 H   0  0  0  0  0  0  0  0  0  0  0  0
    5.2930   -0.2000   -3.1688 H   0  0  0  0  0  0  0  0  0  0  0  0
    3.7544    1.3615   -4.3276 H   0  0  0  0  0  0  0  0  0  0  0  0
    1.4823    1.7698   -3.4278 H   0  0  0  0  0  0  0  0  0  0  0  0
   -0.5792    0.7716    2.4535 H   0  0  0  0  0  0  0  0  0  0  0  0
   -2.8133    1.3741    3.3045 H   0  0  0  0  0  0  0  0  0  0  0  0
   -4.7696    1.3822    1.7824 H   0  0  0  0  0  0  0  0  0  0  0  0
   -4.4851    0.7845   -0.6063 H   0  0  0  0  0  0  0  0  0  0  0  0
   -2.2611    0.1587   -1.4753 H   0  0  0  0  0  0  0  0  0  0  0  0
    2.3478   -1.2590    2.8289 H   0  0  0  0  0  0  0  0  0  0  0  0
    1.7037   -2.6087    4.7927 H   0  0  0  0  0  0  0  0  0  0  0  0
  1  2  2  0
  2  3  1  0
  3  4  2  0
  4  5  1  0
  5  6  2  0
  6  7  1  0
  7  8  2  0
  8  9  1  0
  9 10  2  0
 10 11  1  0
 11 12  2  0
 12 13  1  0
 13 14  2  0
 14 15  1  0
 15 16  2  0
 16 17  1  0
 17 18  2  0
 18 19  1  0
 19 20  2  0
  4 21  1  0
 21 22  2  0
 22  1  1  0
 14  5  1  0
 20 15  1  0
 12  7  1  0
  1 23  1  0
  2 24  1  0
  3 25  1  0
  8 26  1  0
  9 27  1  0
 10 28  1  0
 11 29  1  0
 16 30  1  0
 17 31  1  0
 18 32  1  0
 19 33  1  0
 20 34  1  0
 21 35  1  0
 22 36  1  0
M  END

