
     RDKit          3D

 54 60  0  0  0  0  0  0  0  0999 V2000
    5.9280   -2.2242    4.8231 C   0  0  0  0  0  0  0  0  0  0  0  0
    6.0932   -2.1901    3.3081 C   0  0  0  0  0  0  0  0  0  0  0  0
    4.8193   -2.5942    2.6277 C   0  0  0  0  0  0  0  0  0  0  0  0
    4.5187   -3.9071    2.2335 C   0  0  0  0  0  0  0  0  0  0  0  0
    2.9682   -3.9592    1.5225 S   0  0  0  0  0  0  0  0  0  0  0  0
    2.6853   -2.3226    1.7448 C   0  0  0  0  0  0  0  0  0  0  0  0
    3.7617   -1.7296    2.3498 C   0  0  0  0  0  0  0  0  0  0  0  0
    3.5416   -0.0444    2.5178 S   0  0  0  0  0  0  0  0  0  0  0  0
    1.9935   -0.1601    1.8281 C   0  0  0  0  0  0  0  0  0  0  0  0
    1.0618    0.6678    1.2708 C   0  0  0  0  0  0  0  0  0  0  0  0
    1.0289    2.0573    1.1173 C   0  0  0  0  0  0  0  0  0  0  0  0
    1.9264    2.9096    1.6704 N   0  0  0  0  0  0  0  0  0  0  0  0
    1.3204    4.3480    1.1142 S   0  0  0  0  0  0  0  0  0  0  0  0
   -0.0145    3.9813    0.2035 N   0  0  0  0  0  0  0  0  0  0  0  0
   -0.0044    2.6305    0.3186 C   0  0  0  0  0  0  0  0  0  0  0  0
   -0.9591    1.7812   -0.2573 C   0  0  0  0  0  0  0  0  0  0  0  0
   -2.1605    2.0521   -0.8337 C   0  0  0  0  0  0  0  0  0  0  0  0
   -3.0902    3.4048   -1.1354 S   0  0  0  0  0  0  0  0  0  0  0  0
   -4.4862    2.4782   -1.4330 C   0  0  0  0  0  0  0  0  0  0  0  0
   -4.2276    1.1027   -1.2432 C   0  0  0  0  0  0  0  0  0  0  0  0
   -5.2597    0.0120   -1.4116 C   0  0  0  0  0  0  0  0  0  0  0  0
   -6.6071    0.4956   -1.9485 C   0  0  0  0  0  0  0  0  0  0  0  0
   -2.8727    0.9041   -0.8991 C   0  0  0  0  0  0  0  0  0  0  0  0
   -2.1677   -0.1560   -0.3974 N   0  0  0  0  0  0  0  0  0  0  0  0
   -2.7629   -1.3493    0.2319 C   0  0  0  0  0  0  0  0  0  0  0  0
   -3.1814   -2.4090   -0.7958 C   0  0  0  0  0  0  0  0  0  0  0  0
   -0.9501    0.3948   -0.0670 C   0  0  0  0  0  0  0  0  0  0  0  0
    0.1430   -0.1793    0.6309 C   0  0  0  0  0  0  0  0  0  0  0  0
    0.5699   -1.4815    0.6683 N   0  0  0  0  0  0  0  0  0  0  0  0
    0.3684   -2.4946   -0.3746 C   0  0  0  0  0  0  0  0  0  0  0  0
    1.4157   -2.3576   -1.4793 C   0  0  0  0  0  0  0  0  0  0  0  0
    1.6702   -1.4247    1.4593 C   0  0  0  0  0  0  0  0  0  0  0  0
    6.8813   -1.9259    5.3079 H   0  0  0  0  0  0  0  0  0  0  0  0
    5.6634   -3.2499    5.1586 H   0  0  0  0  0  0  0  0  0  0  0  0
    5.1313   -1.5176    5.1403 H   0  0  0  0  0  0  0  0  0  0  0  0
    6.9129   -2.8798    3.0120 H   0  0  0  0  0  0  0  0  0  0  0  0
    6.3800   -1.1645    2.9905 H   0  0  0  0  0  0  0  0  0  0  0  0
    5.1737   -4.7594    2.3555 H   0  0  0  0  0  0  0  0  0  0  0  0
   -5.4398    2.9120   -1.6991 H   0  0  0  0  0  0  0  0  0  0  0  0
   -4.8672   -0.7328   -2.1328 H   0  0  0  0  0  0  0  0  0  0  0  0
   -5.4424   -0.4751   -0.4329 H   0  0  0  0  0  0  0  0  0  0  0  0
   -6.4774    0.9920   -2.9339 H   0  0  0  0  0  0  0  0  0  0  0  0
   -7.0814    1.1983   -1.2308 H   0  0  0  0  0  0  0  0  0  0  0  0
   -7.2848   -0.3740   -2.0817 H   0  0  0  0  0  0  0  0  0  0  0  0
   -3.6344   -1.0475    0.8498 H   0  0  0  0  0  0  0  0  0  0  0  0
   -2.0521   -1.8042    0.9526 H   0  0  0  0  0  0  0  0  0  0  0  0
   -2.8890   -2.1139   -1.8261 H   0  0  0  0  0  0  0  0  0  0  0  0
   -4.2773   -2.5772   -0.7578 H   0  0  0  0  0  0  0  0  0  0  0  0
   -2.7013   -3.3823   -0.5594 H   0  0  0  0  0  0  0  0  0  0  0  0
    0.4121   -3.5112    0.0698 H   0  0  0  0  0  0  0  0  0  0  0  0
   -0.6081   -2.3704   -0.8563 H   0  0  0  0  0  0  0  0  0  0  0  0
    2.4373   -2.5234   -1.0809 H   0  0  0  0  0  0  0  0  0  0  0  0
    1.2208   -3.1099   -2.2723 H   0  0  0  0  0  0  0  0  0  0  0  0
    1.3631   -1.3431   -1.9287 H   0  0  0  0  0  0  0  0  0  0  0  0
  1  2  1  0
  2  3  1  0
  3  4  2  0
  4  5  1  0
  5  6  1  0
  6  7  2  0
  7  8  1  0
  8  9  1  0
  9 10  1  0
 10 11  1  0
 11 12  2  0
 12 13  1  0
 13 14  1  0
 14 15  2  0
 15 16  1  0
 16 17  1  0
 17 18  1  0
 18 19  1  0
 19 20  2  0
 20 21  1  0
 21 22  1  0
 20 23  1  0
 23 24  1  0
 24 25  1  0
 25 26  1  0
 24 27  1  0
 27 28  1  0
 28 29  1  0
 29 30  1  0
 30 31  1  0
 29 32  1  0
  7  3  1  0
 32  9  2  0
 32  6  1  0
 28 10  2  0
 15 11  1  0
 27 16  2  0
 23 17  2  0
  1 33  1  0
  1 34  1  0
  1 35  1  0
  2 36  1  0
  2 37  1  0
  4 38  1  0
 19 39  1  0
 21 40  1  0
 21 41  1  0
 22 42  1  0
 22 43  1  0
 22 44  1  0
 25 45  1  0
 25 46  1  0
 26 47  1  0
 26 48  1  0
 26 49  1  0
 30 50  1  0
 30 51  1  0
 31 52  1  0
 31 53  1  0
 31 54  1  0
M  END

