
     RDKit          3D

 86 95  0  0  0  0  0  0  0  0999 V2000
    7.2186    0.7227    3.9829 C   0  0  0  0  0  0  0  0  0  0  0  0
    6.0388    1.6718    3.7944 C   0  0  0  0  0  0  0  0  0  0  0  0
    4.8363    0.9377    3.2871 C   0  0  0  0  0  0  0  0  0  0  0  0
    4.0964   -0.0029    3.9941 C   0  0  0  0  0  0  0  0  0  0  0  0
    3.0230   -0.5244    3.2624 C   0  0  0  0  0  0  0  0  0  0  0  0
    2.9304   -0.0144    1.9702 C   0  0  0  0  0  0  0  0  0  0  0  0
    1.8258   -0.2900    1.0289 C   0  0  0  0  0  0  0  0  0  0  0  0
    0.5835   -0.4857    1.5532 N   0  0  0  0  0  0  0  0  0  0  0  0
   -0.5095   -0.6311    0.7631 C   0  0  0  0  0  0  0  0  0  0  0  0
   -0.3661   -0.5334   -0.6343 C   0  0  0  0  0  0  0  0  0  0  0  0
    0.8702   -0.3759   -1.1673 N   0  0  0  0  0  0  0  0  0  0  0  0
    1.9786   -0.2749   -0.3839 C   0  0  0  0  0  0  0  0  0  0  0  0
    3.2864   -0.2268   -1.0624 C   0  0  0  0  0  0  0  0  0  0  0  0
    4.4294   -0.9446   -0.7134 C   0  0  0  0  0  0  0  0  0  0  0  0
    5.4866   -0.7766   -1.6158 C   0  0  0  0  0  0  0  0  0  0  0  0
    5.1624    0.0404   -2.6927 C   0  0  0  0  0  0  0  0  0  0  0  0
    6.0875    0.4436   -3.7982 C   0  0  0  0  0  0  0  0  0  0  0  0
    6.8940    1.6747   -3.4007 C   0  0  0  0  0  0  0  0  0  0  0  0
    3.5765    0.5711   -2.5161 S   0  0  0  0  0  0  0  0  0  0  0  0
   -1.5115   -0.6388   -1.4333 C   0  0  0  0  0  0  0  0  0  0  0  0
   -1.6427   -0.7542   -2.7866 C   0  0  0  0  0  0  0  0  0  0  0  0
   -0.6096   -0.9783   -4.1166 S   0  0  0  0  0  0  0  0  0  0  0  0
   -1.9129   -1.5514   -5.0561 C   0  0  0  0  0  0  0  0  0  0  0  0
   -2.0041   -2.0880   -6.3400 C   0  0  0  0  0  0  0  0  0  0  0  0
   -0.8450   -2.2478   -7.2781 C   0  0  0  0  0  0  0  0  0  0  0  0
   -0.1011   -3.5493   -6.9991 C   0  0  0  0  0  0  0  0  0  0  0  0
   -3.2947   -2.5739   -6.5971 C   0  0  0  0  0  0  0  0  0  0  0  0
   -4.2859   -2.3333   -5.2305 S   0  0  0  0  0  0  0  0  0  0  0  0
   -3.0737   -1.6055   -4.3297 C   0  0  0  0  0  0  0  0  0  0  0  0
   -2.9202   -1.1391   -3.0318 C   0  0  0  0  0  0  0  0  0  0  0  0
   -3.6507   -1.2945   -1.8978 N   0  0  0  0  0  0  0  0  0  0  0  0
   -4.7341   -2.2769   -1.7694 C   0  0  0  0  0  0  0  0  0  0  0  0
   -4.1796   -3.7010   -1.7648 C   0  0  0  0  0  0  0  0  0  0  0  0
   -2.7872   -0.8923   -0.9088 C   0  0  0  0  0  0  0  0  0  0  0  0
   -2.9495   -0.8896    0.4981 C   0  0  0  0  0  0  0  0  0  0  0  0
   -1.7954   -0.8210    1.2949 C   0  0  0  0  0  0  0  0  0  0  0  0
   -2.2436   -0.6880    2.5777 C   0  0  0  0  0  0  0  0  0  0  0  0
   -1.5874   -0.1497    4.0482 S   0  0  0  0  0  0  0  0  0  0  0  0
   -3.1442    0.1940    4.6453 C   0  0  0  0  0  0  0  0  0  0  0  0
   -3.5987    0.8092    5.8124 C   0  0  0  0  0  0  0  0  0  0  0  0
   -2.7126    1.2596    6.9356 C   0  0  0  0  0  0  0  0  0  0  0  0
   -2.1130    2.6293    6.6346 C   0  0  0  0  0  0  0  0  0  0  0  0
   -4.9761    1.0608    5.7511 C   0  0  0  0  0  0  0  0  0  0  0  0
   -5.5876    0.5253    4.2543 S   0  0  0  0  0  0  0  0  0  0  0  0
   -4.1117   -0.0509    3.7035 C   0  0  0  0  0  0  0  0  0  0  0  0
   -3.5968   -0.5778    2.5224 C   0  0  0  0  0  0  0  0  0  0  0  0
   -4.0782   -0.6748    1.2549 N   0  0  0  0  0  0  0  0  0  0  0  0
   -5.3689   -0.1299    0.8101 C   0  0  0  0  0  0  0  0  0  0  0  0
   -6.5308   -1.0422    1.2190 C   0  0  0  0  0  0  0  0  0  0  0  0
    4.1560    1.1270    1.7620 S   0  0  0  0  0  0  0  0  0  0  0  0
    8.1089    1.2981    4.3150 H   0  0  0  0  0  0  0  0  0  0  0  0
    7.4606    0.2079    3.0268 H   0  0  0  0  0  0  0  0  0  0  0  0
    6.9798   -0.0383    4.7573 H   0  0  0  0  0  0  0  0  0  0  0  0
    5.7912    2.1570    4.7641 H   0  0  0  0  0  0  0  0  0  0  0  0
    6.3234    2.4658    3.0711 H   0  0  0  0  0  0  0  0  0  0  0  0
    4.3167   -0.2973    5.0123 H   0  0  0  0  0  0  0  0  0  0  0  0
    2.3304   -1.2489    3.6704 H   0  0  0  0  0  0  0  0  0  0  0  0
    4.4968   -1.5835    0.1580 H   0  0  0  0  0  0  0  0  0  0  0  0
    6.4529   -1.2483   -1.4923 H   0  0  0  0  0  0  0  0  0  0  0  0
    6.7800   -0.3938   -4.0313 H   0  0  0  0  0  0  0  0  0  0  0  0
    5.4965    0.6713   -4.7109 H   0  0  0  0  0  0  0  0  0  0  0  0
    7.5177    1.4538   -2.5082 H   0  0  0  0  0  0  0  0  0  0  0  0
    6.2171    2.5266   -3.1714 H   0  0  0  0  0  0  0  0  0  0  0  0
    7.5605    1.9667   -4.2390 H   0  0  0  0  0  0  0  0  0  0  0  0
   -0.1459   -1.3918   -7.1610 H   0  0  0  0  0  0  0  0  0  0  0  0
   -1.2089   -2.2499   -8.3282 H   0  0  0  0  0  0  0  0  0  0  0  0
    0.7502   -3.6496   -7.7051 H   0  0  0  0  0  0  0  0  0  0  0  0
   -0.7800   -4.4186   -7.1338 H   0  0  0  0  0  0  0  0  0  0  0  0
    0.2962   -3.5521   -5.9615 H   0  0  0  0  0  0  0  0  0  0  0  0
   -3.6056   -3.0622   -7.5105 H   0  0  0  0  0  0  0  0  0  0  0  0
   -5.4589   -2.1542   -2.6005 H   0  0  0  0  0  0  0  0  0  0  0  0
   -5.2844   -2.1417   -0.8348 H   0  0  0  0  0  0  0  0  0  0  0  0
   -3.4820   -3.8341   -0.9119 H   0  0  0  0  0  0  0  0  0  0  0  0
   -5.0136   -4.4266   -1.6590 H   0  0  0  0  0  0  0  0  0  0  0  0
   -3.6409   -3.9192   -2.7084 H   0  0  0  0  0  0  0  0  0  0  0  0
   -1.8937    0.5234    7.0840 H   0  0  0  0  0  0  0  0  0  0  0  0
   -3.2992    1.3129    7.8780 H   0  0  0  0  0  0  0  0  0  0  0  0
   -2.9199    3.3809    6.5031 H   0  0  0  0  0  0  0  0  0  0  0  0
   -1.4666    2.9450    7.4807 H   0  0  0  0  0  0  0  0  0  0  0  0
   -1.4960    2.5885    5.7116 H   0  0  0  0  0  0  0  0  0  0  0  0
   -5.5551    1.5558    6.5195 H   0  0  0  0  0  0  0  0  0  0  0  0
   -5.3735    0.0207   -0.2885 H   0  0  0  0  0  0  0  0  0  0  0  0
   -5.5220    0.8797    1.2495 H   0  0  0  0  0  0  0  0  0  0  0  0
   -6.8652   -0.8248    2.2500 H   0  0  0  0  0  0  0  0  0  0  0  0
   -6.2432   -2.1134    1.1750 H   0  0  0  0  0  0  0  0  0  0  0  0
   -7.3937   -0.8721    0.5413 H   0  0  0  0  0  0  0  0  0  0  0  0
  1  2  1  0
  2  3  1  0
  3  4  2  0
  4  5  1  0
  5  6  2  0
  6  7  1  0
  7  8  2  0
  8  9  1  0
  9 10  2  0
 10 11  1  0
 11 12  2  0
 12 13  1  0
 13 14  2  0
 14 15  1  0
 15 16  2  0
 16 17  1  0
 17 18  1  0
 16 19  1  0
 10 20  1  0
 20 21  1  0
 21 22  1  0
 22 23  1  0
 23 24  1  0
 24 25  1  0
 25 26  1  0
 24 27  2  0
 27 28  1  0
 28 29  1  0
 29 30  1  0
 30 31  1  0
 31 32  1  0
 32 33  1  0
 31 34  1  0
 34 35  1  0
 35 36  2  0
 36 37  1  0
 37 38  1  0
 38 39  1  0
 39 40  1  0
 40 41  1  0
 41 42  1  0
 40 43  2  0
 43 44  1  0
 44 45  1  0
 45 46  1  0
 46 47  1  0
 47 48  1  0
 48 49  1  0
  6 50  1  0
 50  3  1  0
 12  7  1  0
 19 13  1  0
 34 20  2  0
 47 35  1  0
 36  9  1  0
 46 37  2  0
 30 21  2  0
 45 39  2  0
 29 23  2  0
  1 51  1  0
  1 52  1  0
  1 53  1  0
  2 54  1  0
  2 55  1  0
  4 56  1  0
  5 57  1  0
 14 58  1  0
 15 59  1  0
 17 60  1  0
 17 61  1  0
 18 62  1  0
 18 63  1  0
 18 64  1  0
 25 65  1  0
 25 66  1  0
 26 67  1  0
 26 68  1  0
 26 69  1  0
 27 70  1  0
 32 71  1  0
 32 72  1  0
 33 73  1  0
 33 74  1  0
 33 75  1  0
 41 76  1  0
 41 77  1  0
 42 78  1  0
 42 79  1  0
 42 80  1  0
 43 81  1  0
 48 82  1  0
 48 83  1  0
 49 84  1  0
 49 85  1  0
 49 86  1  0
M  END

