
     RDKit          3D

 98108  0  0  0  0  0  0  0  0999 V2000
    6.2648   -1.8638    2.5697 C   0  0  0  0  0  0  0  0  0  0  0  0
    6.2289   -0.6648    3.5106 C   0  0  0  0  0  0  0  0  0  0  0  0
    4.9979    0.1649    3.2673 C   0  0  0  0  0  0  0  0  0  0  0  0
    3.8168   -0.1011    3.9714 C   0  0  0  0  0  0  0  0  0  0  0  0
    2.6613    0.6399    3.7183 C   0  0  0  0  0  0  0  0  0  0  0  0
    2.6589    1.6758    2.7601 C   0  0  0  0  0  0  0  0  0  0  0  0
    1.3718    2.4409    2.4233 C   0  0  0  0  0  0  0  0  0  0  0  0
    0.3671    2.5167    3.5808 C   0  0  0  0  0  0  0  0  0  0  0  0
   -1.0043    2.2255    3.4121 C   0  0  0  0  0  0  0  0  0  0  0  0
   -1.8948    2.3348    4.4833 C   0  0  0  0  0  0  0  0  0  0  0  0
   -1.4432    2.7498    5.7429 C   0  0  0  0  0  0  0  0  0  0  0  0
   -2.4120    2.8993    6.8848 C   0  0  0  0  0  0  0  0  0  0  0  0
   -3.0225    4.2976    6.8970 C   0  0  0  0  0  0  0  0  0  0  0  0
   -0.0918    3.0792    5.9129 C   0  0  0  0  0  0  0  0  0  0  0  0
    0.8020    2.9644    4.8456 C   0  0  0  0  0  0  0  0  0  0  0  0
    1.6518    3.8604    1.9410 C   0  0  0  0  0  0  0  0  0  0  0  0
    2.2979    4.9623    2.5000 C   0  0  0  0  0  0  0  0  0  0  0  0
    2.3992    6.0157    1.5818 C   0  0  0  0  0  0  0  0  0  0  0  0
    1.7160    5.5644    0.0851 S   0  0  0  0  0  0  0  0  0  0  0  0
    1.2742    4.0539    0.6493 C   0  0  0  0  0  0  0  0  0  0  0  0
    0.7447    2.8311    0.1348 C   0  0  0  0  0  0  0  0  0  0  0  0
    0.1699    2.2284   -1.3268 S   0  0  0  0  0  0  0  0  0  0  0  0
   -0.0583    0.6783   -0.6623 C   0  0  0  0  0  0  0  0  0  0  0  0
   -0.5722   -0.4474   -1.3121 C   0  0  0  0  0  0  0  0  0  0  0  0
   -0.6840   -1.6237   -0.5589 C   0  0  0  0  0  0  0  0  0  0  0  0
   -1.1895   -2.8555   -0.9763 C   0  0  0  0  0  0  0  0  0  0  0  0
   -1.1840   -3.7849    0.0247 C   0  0  0  0  0  0  0  0  0  0  0  0
   -0.5710   -3.1944    1.4754 S   0  0  0  0  0  0  0  0  0  0  0  0
   -0.2994   -1.6573    0.7967 C   0  0  0  0  0  0  0  0  0  0  0  0
    0.2113   -0.5301    1.4471 C   0  0  0  0  0  0  0  0  0  0  0  0
    0.3298    0.6440    0.6917 C   0  0  0  0  0  0  0  0  0  0  0  0
    0.7885    1.8891    1.1231 C   0  0  0  0  0  0  0  0  0  0  0  0
   -1.7055   -5.0107   -0.4897 C   0  0  0  0  0  0  0  0  0  0  0  0
   -1.9298   -6.5908    0.0073 S   0  0  0  0  0  0  0  0  0  0  0  0
   -2.4815   -7.0859   -1.5292 C   0  0  0  0  0  0  0  0  0  0  0  0
   -2.4660   -6.0059   -2.4206 C   0  0  0  0  0  0  0  0  0  0  0  0
   -2.0208   -4.8388   -1.8000 C   0  0  0  0  0  0  0  0  0  0  0  0
   -1.7375   -3.4211   -2.2861 C   0  0  0  0  0  0  0  0  0  0  0  0
   -0.6349   -3.3799   -3.3537 C   0  0  0  0  0  0  0  0  0  0  0  0
    0.4288   -4.3087   -3.3293 C   0  0  0  0  0  0  0  0  0  0  0  0
    1.4642   -4.2390   -4.2646 C   0  0  0  0  0  0  0  0  0  0  0  0
    1.4850   -3.2180   -5.2238 C   0  0  0  0  0  0  0  0  0  0  0  0
    2.5852   -3.1599   -6.2495 C   0  0  0  0  0  0  0  0  0  0  0  0
    2.1769   -3.8958   -7.5215 C   0  0  0  0  0  0  0  0  0  0  0  0
    0.4474   -2.2767   -5.2458 C   0  0  0  0  0  0  0  0  0  0  0  0
   -0.5913   -2.3475   -4.3148 C   0  0  0  0  0  0  0  0  0  0  0  0
   -3.0653   -2.7965   -2.7336 C   0  0  0  0  0  0  0  0  0  0  0  0
   -3.7820   -1.8805   -1.9322 C   0  0  0  0  0  0  0  0  0  0  0  0
   -5.0014   -1.3534   -2.3664 C   0  0  0  0  0  0  0  0  0  0  0  0
   -5.5491   -1.7469   -3.5947 C   0  0  0  0  0  0  0  0  0  0  0  0
   -6.8442   -1.1494   -4.0767 C   0  0  0  0  0  0  0  0  0  0  0  0
   -6.5871    0.1256   -4.8731 C   0  0  0  0  0  0  0  0  0  0  0  0
   -4.8554   -2.6682   -4.3899 C   0  0  0  0  0  0  0  0  0  0  0  0
   -3.6372   -3.1978   -3.9578 C   0  0  0  0  0  0  0  0  0  0  0  0
    3.8438    1.9028    2.0261 C   0  0  0  0  0  0  0  0  0  0  0  0
    4.9996    1.1617    2.2830 C   0  0  0  0  0  0  0  0  0  0  0  0
    5.3689   -2.5025    2.7244 H   0  0  0  0  0  0  0  0  0  0  0  0
    6.2942   -1.5221    1.5131 H   0  0  0  0  0  0  0  0  0  0  0  0
    7.1730   -2.4703    2.7727 H   0  0  0  0  0  0  0  0  0  0  0  0
    6.2466   -1.0259    4.5621 H   0  0  0  0  0  0  0  0  0  0  0  0
    7.1410   -0.0481    3.3562 H   0  0  0  0  0  0  0  0  0  0  0  0
    3.7869   -0.8914    4.7114 H   0  0  0  0  0  0  0  0  0  0  0  0
    1.7668    0.3914    4.2724 H   0  0  0  0  0  0  0  0  0  0  0  0
   -1.4031    1.9201    2.4556 H   0  0  0  0  0  0  0  0  0  0  0  0
   -2.9408    2.1015    4.3272 H   0  0  0  0  0  0  0  0  0  0  0  0
   -1.8951    2.7154    7.8519 H   0  0  0  0  0  0  0  0  0  0  0  0
   -3.2244    2.1456    6.7975 H   0  0  0  0  0  0  0  0  0  0  0  0
   -3.5795    4.4844    5.9532 H   0  0  0  0  0  0  0  0  0  0  0  0
   -3.7284    4.3859    7.7495 H   0  0  0  0  0  0  0  0  0  0  0  0
   -2.2273    5.0652    7.0124 H   0  0  0  0  0  0  0  0  0  0  0  0
    0.2706    3.4267    6.8729 H   0  0  0  0  0  0  0  0  0  0  0  0
    1.8423    3.2181    5.0081 H   0  0  0  0  0  0  0  0  0  0  0  0
    2.7005    4.9916    3.5033 H   0  0  0  0  0  0  0  0  0  0  0  0
    2.8712    6.9668    1.7861 H   0  0  0  0  0  0  0  0  0  0  0  0
   -0.8874   -0.3960   -2.3432 H   0  0  0  0  0  0  0  0  0  0  0  0
    0.4731   -0.5653    2.4941 H   0  0  0  0  0  0  0  0  0  0  0  0
   -2.7811   -8.0931   -1.7862 H   0  0  0  0  0  0  0  0  0  0  0  0
   -2.7439   -6.0770   -3.4627 H   0  0  0  0  0  0  0  0  0  0  0  0
    0.4662   -5.0925   -2.5843 H   0  0  0  0  0  0  0  0  0  0  0  0
    2.2553   -4.9785   -4.2348 H   0  0  0  0  0  0  0  0  0  0  0  0
    2.8220   -2.1014   -6.4956 H   0  0  0  0  0  0  0  0  0  0  0  0
    3.5132   -3.6202   -5.8452 H   0  0  0  0  0  0  0  0  0  0  0  0
    1.2690   -3.4294   -7.9608 H   0  0  0  0  0  0  0  0  0  0  0  0
    3.0005   -3.8409   -8.2652 H   0  0  0  0  0  0  0  0  0  0  0  0
    1.9673   -4.9643   -7.2975 H   0  0  0  0  0  0  0  0  0  0  0  0
    0.4431   -1.4850   -5.9848 H   0  0  0  0  0  0  0  0  0  0  0  0
   -1.3608   -1.5884   -4.3527 H   0  0  0  0  0  0  0  0  0  0  0  0
   -3.4147   -1.5653   -0.9663 H   0  0  0  0  0  0  0  0  0  0  0  0
   -5.5223   -0.6395   -1.7407 H   0  0  0  0  0  0  0  0  0  0  0  0
   -7.5023   -0.9155   -3.2117 H   0  0  0  0  0  0  0  0  0  0  0  0
   -7.3875   -1.8785   -4.7166 H   0  0  0  0  0  0  0  0  0  0  0  0
   -6.0779    0.8808   -4.2364 H   0  0  0  0  0  0  0  0  0  0  0  0
   -7.5530    0.5468   -5.2220 H   0  0  0  0  0  0  0  0  0  0  0  0
   -5.9534   -0.0941   -5.7586 H   0  0  0  0  0  0  0  0  0  0  0  0
   -5.2592   -2.9796   -5.3453 H   0  0  0  0  0  0  0  0  0  0  0  0
   -3.1291   -3.9144   -4.5903 H   0  0  0  0  0  0  0  0  0  0  0  0
    3.8776    2.6457    1.2402 H   0  0  0  0  0  0  0  0  0  0  0  0
    5.8947    1.3574    1.7046 H   0  0  0  0  0  0  0  0  0  0  0  0
  1  2  1  0
  2  3  1  0
  3  4  2  0
  4  5  1  0
  5  6  2  0
  6  7  1  0
  7  8  1  0
  8  9  2  0
  9 10  1  0
 10 11  2  0
 11 12  1  0
 12 13  1  0
 11 14  1  0
 14 15  2  0
  7 16  1  0
 16 17  1  0
 17 18  2  0
 18 19  1  0
 19 20  1  0
 20 21  1  0
 21 22  1  0
 22 23  1  0
 23 24  2  0
 24 25  1  0
 25 26  1  0
 26 27  2  0
 27 28  1  0
 28 29  1  0
 29 30  1  0
 30 31  2  0
 31 32  1  0
 27 33  1  0
 33 34  1  0
 34 35  1  0
 35 36  2  0
 36 37  1  0
 37 38  1  0
 38 39  1  0
 39 40  2  0
 40 41  1  0
 41 42  2  0
 42 43  1  0
 43 44  1  0
 42 45  1  0
 45 46  2  0
 38 47  1  0
 47 48  2  0
 48 49  1  0
 49 50  2  0
 50 51  1  0
 51 52  1  0
 50 53  1  0
 53 54  2  0
  6 55  1  0
 55 56  2  0
 56  3  1  0
 32  7  1  0
 37 33  2  0
 46 39  1  0
 54 47  1  0
 15  8  1  0
 20 16  2  0
 32 21  2  0
 31 23  1  0
 29 25  2  0
 38 26  1  0
  1 57  1  0
  1 58  1  0
  1 59  1  0
  2 60  1  0
  2 61  1  0
  4 62  1  0
  5 63  1  0
  9 64  1  0
 10 65  1  0
 12 66  1  0
 12 67  1  0
 13 68  1  0
 13 69  1  0
 13 70  1  0
 14 71  1  0
 15 72  1  0
 17 73  1  0
 18 74  1  0
 24 75  1  0
 30 76  1  0
 35 77  1  0
 36 78  1  0
 40 79  1  0
 41 80  1  0
 43 81  1  0
 43 82  1  0
 44 83  1  0
 44 84  1  0
 44 85  1  0
 45 86  1  0
 46 87  1  0
 48 88  1  0
 49 89  1  0
 51 90  1  0
 51 91  1  0
 52 92  1  0
 52 93  1  0
 52 94  1  0
 53 95  1  0
 54 96  1  0
 55 97  1  0
 56 98  1  0
M  END

