
     RDKit          3D

 78 86  0  0  0  0  0  0  0  0999 V2000
    5.4850    1.2991    0.4286 C   0  0  0  0  0  0  0  0  0  0  0  0
    5.1541   -0.1816    0.5751 C   0  0  0  0  0  0  0  0  0  0  0  0
    3.7842   -0.4778    0.0337 C   0  0  0  0  0  0  0  0  0  0  0  0
    3.4951   -0.8127   -1.3032 C   0  0  0  0  0  0  0  0  0  0  0  0
    4.4874   -0.9147   -2.3894 C   0  0  0  0  0  0  0  0  0  0  0  0
    4.3633   -1.7128   -3.4649 C   0  0  0  0  0  0  0  0  0  0  0  0
    5.0276   -1.4317   -4.7360 C   0  0  0  0  0  0  0  0  0  0  0  0
    5.9910   -0.6388   -4.9099 O   0  0  0  0  0  0  0  0  0  0  0  0
    4.3208   -2.1444   -5.7805 C   0  0  0  0  0  0  0  0  0  0  0  0
    4.5087   -2.0709   -7.1611 C   0  0  0  0  0  0  0  0  0  0  0  0
    3.6329   -2.7829   -7.9925 C   0  0  0  0  0  0  0  0  0  0  0  0
    3.7932   -2.7336   -9.3384 F   0  0  0  0  0  0  0  0  0  0  0  0
    2.5784   -3.5313   -7.4350 C   0  0  0  0  0  0  0  0  0  0  0  0
    1.7183   -4.1954   -8.2471 F   0  0  0  0  0  0  0  0  0  0  0  0
    2.4019   -3.5841   -6.0417 C   0  0  0  0  0  0  0  0  0  0  0  0
    3.3050   -2.8983   -5.2162 C   0  0  0  0  0  0  0  0  0  0  0  0
    3.3693   -2.7933   -3.7349 C   0  0  0  0  0  0  0  0  0  0  0  0
    2.9746   -3.7472   -2.8548 C   0  0  0  0  0  0  0  0  0  0  0  0
    2.1355   -4.8525   -3.2367 C   0  0  0  0  0  0  0  0  0  0  0  0
    1.4624   -5.7470   -3.5308 N   0  0  0  0  0  0  0  0  0  0  0  0
    3.5113   -3.8123   -1.5177 C   0  0  0  0  0  0  0  0  0  0  0  0
    3.9444   -3.8738   -0.4454 N   0  0  0  0  0  0  0  0  0  0  0  0
    1.8024   -0.9012   -1.5194 S   0  0  0  0  0  0  0  0  0  0  0  0
    1.4524   -0.5957    0.0874 C   0  0  0  0  0  0  0  0  0  0  0  0
    2.6126   -0.3734    0.7851 C   0  0  0  0  0  0  0  0  0  0  0  0
    2.2936    0.1341    2.3813 S   0  0  0  0  0  0  0  0  0  0  0  0
    0.6238   -0.0313    2.1265 C   0  0  0  0  0  0  0  0  0  0  0  0
   -0.5163    0.4690    2.6800 C   0  0  0  0  0  0  0  0  0  0  0  0
   -0.7254    1.3029    3.7806 C   0  0  0  0  0  0  0  0  0  0  0  0
    0.1071    1.6778    4.7623 N   0  0  0  0  0  0  0  0  0  0  0  0
   -0.6161    2.5124    5.5101 N   0  0  0  0  0  0  0  0  0  0  0  0
   -0.1220    3.1129    6.7401 C   0  0  0  0  0  0  0  0  0  0  0  0
   -1.8599    2.6861    5.0623 N   0  0  0  0  0  0  0  0  0  0  0  0
   -1.9226    1.9312    3.9565 C   0  0  0  0  0  0  0  0  0  0  0  0
   -2.9646    1.7254    3.0539 C   0  0  0  0  0  0  0  0  0  0  0  0
   -4.2672    2.1135    3.0255 C   0  0  0  0  0  0  0  0  0  0  0  0
   -5.3360    3.0220    3.9289 S   0  0  0  0  0  0  0  0  0  0  0  0
   -6.6630    2.5780    2.9486 C   0  0  0  0  0  0  0  0  0  0  0  0
   -6.2595    1.6877    1.9375 C   0  0  0  0  0  0  0  0  0  0  0  0
   -7.1977    1.2027    0.8663 C   0  0  0  0  0  0  0  0  0  0  0  0
   -6.9249    1.9078   -0.4589 C   0  0  0  0  0  0  0  0  0  0  0  0
   -4.8754    1.4542    2.0151 C   0  0  0  0  0  0  0  0  0  0  0  0
   -4.0199    0.6142    1.3623 N   0  0  0  0  0  0  0  0  0  0  0  0
   -4.4089   -0.6531    0.7272 C   0  0  0  0  0  0  0  0  0  0  0  0
   -4.9884   -1.6237    1.7561 C   0  0  0  0  0  0  0  0  0  0  0  0
   -2.8121    0.8567    1.9641 C   0  0  0  0  0  0  0  0  0  0  0  0
   -1.5276    0.2864    1.7157 C   0  0  0  0  0  0  0  0  0  0  0  0
   -0.9959   -0.2017    0.5465 N   0  0  0  0  0  0  0  0  0  0  0  0
   -1.5001    0.0162   -0.8177 C   0  0  0  0  0  0  0  0  0  0  0  0
   -1.6763   -1.3078   -1.5709 C   0  0  0  0  0  0  0  0  0  0  0  0
    0.3117   -0.4115    0.8575 C   0  0  0  0  0  0  0  0  0  0  0  0
    5.4766    1.5938   -0.6423 H   0  0  0  0  0  0  0  0  0  0  0  0
    4.7457    1.9178    0.9828 H   0  0  0  0  0  0  0  0  0  0  0  0
    6.4970    1.4954    0.8406 H   0  0  0  0  0  0  0  0  0  0  0  0
    5.9153   -0.7868    0.0390 H   0  0  0  0  0  0  0  0  0  0  0  0
    5.2019   -0.4624    1.6488 H   0  0  0  0  0  0  0  0  0  0  0  0
    5.3009   -0.2003   -2.3714 H   0  0  0  0  0  0  0  0  0  0  0  0
    5.3041   -1.4696   -7.5828 H   0  0  0  0  0  0  0  0  0  0  0  0
    1.5578   -4.1224   -5.6409 H   0  0  0  0  0  0  0  0  0  0  0  0
   -0.6137    4.0948    6.9073 H   0  0  0  0  0  0  0  0  0  0  0  0
    0.9753    3.2682    6.6713 H   0  0  0  0  0  0  0  0  0  0  0  0
   -0.3438    2.4412    7.5953 H   0  0  0  0  0  0  0  0  0  0  0  0
   -7.6729    2.9424    3.0844 H   0  0  0  0  0  0  0  0  0  0  0  0
   -7.1210    0.1065    0.7403 H   0  0  0  0  0  0  0  0  0  0  0  0
   -8.2477    1.4129    1.1678 H   0  0  0  0  0  0  0  0  0  0  0  0
   -5.8787    1.7347   -0.7897 H   0  0  0  0  0  0  0  0  0  0  0  0
   -7.0935    3.0007   -0.3491 H   0  0  0  0  0  0  0  0  0  0  0  0
   -7.6147    1.5167   -1.2372 H   0  0  0  0  0  0  0  0  0  0  0  0
   -3.5356   -1.1590    0.2925 H   0  0  0  0  0  0  0  0  0  0  0  0
   -5.1248   -0.4742   -0.0981 H   0  0  0  0  0  0  0  0  0  0  0  0
   -5.8717   -1.1869    2.2659 H   0  0  0  0  0  0  0  0  0  0  0  0
   -4.2182   -1.8646    2.5199 H   0  0  0  0  0  0  0  0  0  0  0  0
   -5.2975   -2.5619    1.2495 H   0  0  0  0  0  0  0  0  0  0  0  0
   -2.4614    0.5690   -0.7967 H   0  0  0  0  0  0  0  0  0  0  0  0
   -0.7958    0.6724   -1.3749 H   0  0  0  0  0  0  0  0  0  0  0  0
   -1.7400   -2.1697   -0.8680 H   0  0  0  0  0  0  0  0  0  0  0  0
   -0.8308   -1.4784   -2.2692 H   0  0  0  0  0  0  0  0  0  0  0  0
   -2.6096   -1.2716   -2.1750 H   0  0  0  0  0  0  0  0  0  0  0  0
  1  2  1  0
  2  3  1  0
  3  4  2  0
  4  5  1  0
  5  6  2  3
  6  7  1  0
  7  8  2  0
  7  9  1  0
  9 10  2  0
 10 11  1  0
 11 12  1  0
 11 13  2  0
 13 14  1  0
 13 15  1  0
 15 16  2  0
 16 17  1  0
 17 18  2  3
 18 19  1  0
 19 20  3  0
 18 21  1  0
 21 22  3  0
  4 23  1  0
 23 24  1  0
 24 25  2  0
 25 26  1  0
 26 27  1  0
 27 28  1  0
 28 29  1  0
 29 30  2  0
 30 31  1  0
 31 32  1  0
 31 33  1  0
 33 34  2  0
 34 35  1  0
 35 36  1  0
 36 37  1  0
 37 38  1  0
 38 39  2  0
 39 40  1  0
 40 41  1  0
 39 42  1  0
 42 43  1  0
 43 44  1  0
 44 45  1  0
 43 46  1  0
 46 47  1  0
 47 48  1  0
 48 49  1  0
 49 50  1  0
 48 51  1  0
 25  3  1  0
 51 27  2  0
 17  6  1  0
 51 24  1  0
 16  9  1  0
 47 28  2  0
 34 29  1  0
 46 35  2  0
 42 36  2  0
  1 52  1  0
  1 53  1  0
  1 54  1  0
  2 55  1  0
  2 56  1  0
  5 57  1  0
 10 58  1  0
 15 59  1  0
 32 60  1  0
 32 61  1  0
 32 62  1  0
 38 63  1  0
 40 64  1  0
 40 65  1  0
 41 66  1  0
 41 67  1  0
 41 68  1  0
 44 69  1  0
 44 70  1  0
 45 71  1  0
 45 72  1  0
 45 73  1  0
 49 74  1  0
 49 75  1  0
 50 76  1  0
 50 77  1  0
 50 78  1  0
M  END

