
     RDKit          3D

 51 58  0  0  0  0  0  0  0  0999 V2000
    2.7658    3.7155    5.8724 C   0  0  0  0  0  0  0  0  0  0  0  0
    1.8314    4.2726    4.8051 C   0  0  0  0  0  0  0  0  0  0  0  0
    0.8493    3.2280    4.3647 C   0  0  0  0  0  0  0  0  0  0  0  0
   -0.4373    3.0826    4.9021 C   0  0  0  0  0  0  0  0  0  0  0  0
   -1.2356    1.7894    4.1313 S   0  0  0  0  0  0  0  0  0  0  0  0
    0.0680    1.3940    3.1541 C   0  0  0  0  0  0  0  0  0  0  0  0
    1.1044    2.2602    3.3929 C   0  0  0  0  0  0  0  0  0  0  0  0
    2.3936    2.0122    2.3072 S   0  0  0  0  0  0  0  0  0  0  0  0
    1.5677    0.7138    1.5896 C   0  0  0  0  0  0  0  0  0  0  0  0
    1.5995    0.0637    0.3906 C   0  0  0  0  0  0  0  0  0  0  0  0
    2.4746    0.1992   -0.6918 C   0  0  0  0  0  0  0  0  0  0  0  0
    3.6376    0.8948   -0.6504 N   0  0  0  0  0  0  0  0  0  0  0  0
    4.1589    0.6594   -2.2049 S   0  0  0  0  0  0  0  0  0  0  0  0
    3.0075   -0.2653   -2.9543 N   0  0  0  0  0  0  0  0  0  0  0  0
    2.1294   -0.4112   -1.9312 C   0  0  0  0  0  0  0  0  0  0  0  0
    0.9349   -1.1359   -2.0160 C   0  0  0  0  0  0  0  0  0  0  0  0
    0.4978   -2.0024   -2.9749 C   0  0  0  0  0  0  0  0  0  0  0  0
    1.1795   -2.7303   -4.3499 S   0  0  0  0  0  0  0  0  0  0  0  0
    0.0799   -4.0217   -4.2402 C   0  0  0  0  0  0  0  0  0  0  0  0
   -0.0293   -5.2211   -4.9357 C   0  0  0  0  0  0  0  0  0  0  0  0
   -0.9724   -6.0649   -4.3396 C   0  0  0  0  0  0  0  0  0  0  0  0
   -1.6206   -5.3156   -2.9533 S   0  0  0  0  0  0  0  0  0  0  0  0
   -0.7336   -3.9043   -3.1424 C   0  0  0  0  0  0  0  0  0  0  0  0
   -0.5094   -2.7317   -2.4250 C   0  0  0  0  0  0  0  0  0  0  0  0
   -0.7945   -2.3549   -1.1494 N   0  0  0  0  0  0  0  0  0  0  0  0
   -1.4168   -3.2385   -0.1564 C   0  0  0  0  0  0  0  0  0  0  0  0
   -2.9326   -3.3375   -0.3514 C   0  0  0  0  0  0  0  0  0  0  0  0
    0.0795   -1.3170   -0.9148 C   0  0  0  0  0  0  0  0  0  0  0  0
    0.3763   -0.6223    0.2936 C   0  0  0  0  0  0  0  0  0  0  0  0
   -0.4380   -0.3046    1.3560 N   0  0  0  0  0  0  0  0  0  0  0  0
   -1.9041   -0.2903    1.3737 C   0  0  0  0  0  0  0  0  0  0  0  0
   -2.4657   -1.1343    2.5227 C   0  0  0  0  0  0  0  0  0  0  0  0
    0.3419    0.4938    2.1307 C   0  0  0  0  0  0  0  0  0  0  0  0
    3.3419    2.8550    5.4701 H   0  0  0  0  0  0  0  0  0  0  0  0
    3.4798    4.5043    6.1900 H   0  0  0  0  0  0  0  0  0  0  0  0
    2.1837    3.3846    6.7589 H   0  0  0  0  0  0  0  0  0  0  0  0
    1.2882    5.1512    5.2152 H   0  0  0  0  0  0  0  0  0  0  0  0
    2.4287    4.6184    3.9343 H   0  0  0  0  0  0  0  0  0  0  0  0
   -0.8669    3.7078    5.6735 H   0  0  0  0  0  0  0  0  0  0  0  0
    0.5679   -5.4852   -5.7979 H   0  0  0  0  0  0  0  0  0  0  0  0
   -1.2232   -7.0583   -4.6866 H   0  0  0  0  0  0  0  0  0  0  0  0
   -0.9748   -4.2544   -0.2396 H   0  0  0  0  0  0  0  0  0  0  0  0
   -1.1820   -2.9008    0.8643 H   0  0  0  0  0  0  0  0  0  0  0  0
   -3.1824   -3.7208   -1.3587 H   0  0  0  0  0  0  0  0  0  0  0  0
   -3.4300   -2.3568   -0.2407 H   0  0  0  0  0  0  0  0  0  0  0  0
   -3.3559   -4.0313    0.4050 H   0  0  0  0  0  0  0  0  0  0  0  0
   -2.2680    0.7551    1.4735 H   0  0  0  0  0  0  0  0  0  0  0  0
   -2.2935   -0.6373    0.4029 H   0  0  0  0  0  0  0  0  0  0  0  0
   -1.7998   -1.9852    2.7735 H   0  0  0  0  0  0  0  0  0  0  0  0
   -2.5863   -0.5217    3.4367 H   0  0  0  0  0  0  0  0  0  0  0  0
   -3.4669   -1.5269    2.2447 H   0  0  0  0  0  0  0  0  0  0  0  0
  1  2  1  0
  2  3  1  0
  3  4  2  0
  4  5  1  0
  5  6  1  0
  6  7  2  0
  7  8  1  0
  8  9  1  0
  9 10  1  0
 10 11  1  0
 11 12  2  0
 12 13  1  0
 13 14  1  0
 14 15  2  0
 15 16  1  0
 16 17  1  0
 17 18  1  0
 18 19  1  0
 19 20  1  0
 20 21  2  0
 21 22  1  0
 22 23  1  0
 23 24  1  0
 24 25  1  0
 25 26  1  0
 26 27  1  0
 25 28  1  0
 28 29  1  0
 29 30  1  0
 30 31  1  0
 31 32  1  0
 30 33  1  0
  7  3  1  0
 33  9  2  0
 33  6  1  0
 29 10  2  0
 15 11  1  0
 28 16  2  0
 24 17  2  0
 23 19  2  0
  1 34  1  0
  1 35  1  0
  1 36  1  0
  2 37  1  0
  2 38  1  0
  4 39  1  0
 20 40  1  0
 21 41  1  0
 26 42  1  0
 26 43  1  0
 27 44  1  0
 27 45  1  0
 27 46  1  0
 31 47  1  0
 31 48  1  0
 32 49  1  0
 32 50  1  0
 32 51  1  0
M  END

