
     RDKit          3D

 44 48  0  0  0  0  0  0  0  0999 V2000
   -2.9249   -4.7604   -4.2425 C   0  0  0  0  0  0  0  0  0  0  0  0
   -1.9677   -3.6971   -4.7688 C   0  0  0  0  0  0  0  0  0  0  0  0
   -1.0604   -3.2148   -3.6781 C   0  0  0  0  0  0  0  0  0  0  0  0
   -1.3908   -1.9149   -2.6625 S   0  0  0  0  0  0  0  0  0  0  0  0
   -0.0117   -2.0776   -1.7091 C   0  0  0  0  0  0  0  0  0  0  0  0
    0.3457   -1.2166   -0.5635 C   0  0  0  0  0  0  0  0  0  0  0  0
    1.6120   -0.6026   -0.4539 C   0  0  0  0  0  0  0  0  0  0  0  0
    2.6500   -0.6506   -1.4018 C   0  0  0  0  0  0  0  0  0  0  0  0
    3.7692    0.0878   -1.0314 C   0  0  0  0  0  0  0  0  0  0  0  0
    3.4745    0.8141    0.4601 S   0  0  0  0  0  0  0  0  0  0  0  0
    1.9249    0.1875    0.6578 C   0  0  0  0  0  0  0  0  0  0  0  0
    1.0162    0.4234    1.7057 C   0  0  0  0  0  0  0  0  0  0  0  0
    1.3753    1.2906    2.8455 C   0  0  0  0  0  0  0  0  0  0  0  0
    2.5128    1.1653    3.6365 C   0  0  0  0  0  0  0  0  0  0  0  0
    2.6075    2.1501    4.6269 C   0  0  0  0  0  0  0  0  0  0  0  0
    3.9286    2.2002    5.7814 Cl  0  0  0  0  0  0  0  0  0  0  0  0
    1.5565    3.0645    4.6030 C   0  0  0  0  0  0  0  0  0  0  0  0
    1.3296    4.1917    5.5640 C   0  0  0  0  0  0  0  0  0  0  0  0
    0.5985    3.7000    6.8079 C   0  0  0  0  0  0  0  0  0  0  0  0
    0.4991    2.6309    3.3683 S   0  0  0  0  0  0  0  0  0  0  0  0
   -0.2490   -0.1927    1.5980 C   0  0  0  0  0  0  0  0  0  0  0  0
   -1.2840   -0.1498    2.5493 C   0  0  0  0  0  0  0  0  0  0  0  0
   -2.4022   -0.8907    2.1813 C   0  0  0  0  0  0  0  0  0  0  0  0
   -2.1095   -1.6140    0.6883 S   0  0  0  0  0  0  0  0  0  0  0  0
   -0.5626   -0.9826    0.4856 C   0  0  0  0  0  0  0  0  0  0  0  0
    0.7200   -3.1686   -2.1670 C   0  0  0  0  0  0  0  0  0  0  0  0
    0.1303   -3.8081   -3.2636 C   0  0  0  0  0  0  0  0  0  0  0  0
    0.8330   -5.2309   -4.0136 Cl  0  0  0  0  0  0  0  0  0  0  0  0
   -3.5923   -5.0984   -5.0630 H   0  0  0  0  0  0  0  0  0  0  0  0
   -2.3576   -5.6365   -3.8620 H   0  0  0  0  0  0  0  0  0  0  0  0
   -3.5501   -4.3447   -3.4234 H   0  0  0  0  0  0  0  0  0  0  0  0
   -2.5536   -2.8412   -5.1668 H   0  0  0  0  0  0  0  0  0  0  0  0
   -1.3669   -4.1169   -5.6035 H   0  0  0  0  0  0  0  0  0  0  0  0
    2.5948   -1.1827   -2.3413 H   0  0  0  0  0  0  0  0  0  0  0  0
    4.6736    0.1913   -1.6154 H   0  0  0  0  0  0  0  0  0  0  0  0
    3.2445    0.3778    3.5108 H   0  0  0  0  0  0  0  0  0  0  0  0
    0.7232    4.9811    5.0705 H   0  0  0  0  0  0  0  0  0  0  0  0
    2.3022    4.6416    5.8566 H   0  0  0  0  0  0  0  0  0  0  0  0
    0.4346    4.5502    7.5029 H   0  0  0  0  0  0  0  0  0  0  0  0
    1.2006    2.9256    7.3294 H   0  0  0  0  0  0  0  0  0  0  0  0
   -0.3884    3.2715    6.5305 H   0  0  0  0  0  0  0  0  0  0  0  0
   -1.2267    0.3781    3.4907 H   0  0  0  0  0  0  0  0  0  0  0  0
   -3.3039   -0.9988    2.7685 H   0  0  0  0  0  0  0  0  0  0  0  0
    1.6428   -3.5032   -1.7108 H   0  0  0  0  0  0  0  0  0  0  0  0
  1  2  1  0
  2  3  1  0
  3  4  1  0
  4  5  1  0
  5  6  1  0
  6  7  2  0
  7  8  1  0
  8  9  2  0
  9 10  1  0
 10 11  1  0
 11 12  2  0
 12 13  1  0
 13 14  2  0
 14 15  1  0
 15 16  1  0
 15 17  2  0
 17 18  1  0
 18 19  1  0
 17 20  1  0
 12 21  1  0
 21 22  1  0
 22 23  2  0
 23 24  1  0
 24 25  1  0
  5 26  2  0
 26 27  1  0
 27 28  1  0
 27  3  2  0
 25  6  1  0
 11  7  1  0
 20 13  1  0
 25 21  2  0
  1 29  1  0
  1 30  1  0
  1 31  1  0
  2 32  1  0
  2 33  1  0
  8 34  1  0
  9 35  1  0
 14 36  1  0
 18 37  1  0
 18 38  1  0
 19 39  1  0
 19 40  1  0
 19 41  1  0
 22 42  1  0
 23 43  1  0
 26 44  1  0
M  END

