
     RDKit          3D

 50 53  0  0  0  0  0  0  0  0999 V2000
    4.1592   -4.0030    2.3949 C   0  0  0  0  0  0  0  0  0  0  0  0
    4.5631   -2.8505    3.3097 C   0  0  0  0  0  0  0  0  0  0  0  0
    3.4482   -2.0014    3.5820 O   0  0  0  0  0  0  0  0  0  0  0  0
    2.8068   -1.1318    2.6802 C   0  0  0  0  0  0  0  0  0  0  0  0
    3.3418   -0.7641    1.4240 C   0  0  0  0  0  0  0  0  0  0  0  0
    4.5500   -1.2094    1.0027 F   0  0  0  0  0  0  0  0  0  0  0  0
    2.6303    0.0984    0.5821 C   0  0  0  0  0  0  0  0  0  0  0  0
    3.1548    0.4273   -0.6266 F   0  0  0  0  0  0  0  0  0  0  0  0
    1.3776    0.5997    0.9688 C   0  0  0  0  0  0  0  0  0  0  0  0
    0.6299    1.4972    0.0612 C   0  0  0  0  0  0  0  0  0  0  0  0
    1.2285    2.6489   -0.3491 N   0  0  0  0  0  0  0  0  0  0  0  0
    0.5863    3.5432   -1.1429 C   0  0  0  0  0  0  0  0  0  0  0  0
    1.2204    4.7228   -1.5473 C   0  0  0  0  0  0  0  0  0  0  0  0
    0.5380    5.6383   -2.3570 C   0  0  0  0  0  0  0  0  0  0  0  0
    1.1527    6.7820   -2.7480 F   0  0  0  0  0  0  0  0  0  0  0  0
   -0.7775    5.3754   -2.7618 C   0  0  0  0  0  0  0  0  0  0  0  0
   -1.4366    6.2639   -3.5459 F   0  0  0  0  0  0  0  0  0  0  0  0
   -1.4142    4.1956   -2.3591 C   0  0  0  0  0  0  0  0  0  0  0  0
   -0.7345    3.2788   -1.5501 C   0  0  0  0  0  0  0  0  0  0  0  0
   -1.3324    2.1251   -1.1576 N   0  0  0  0  0  0  0  0  0  0  0  0
   -0.6895    1.2162   -0.3743 C   0  0  0  0  0  0  0  0  0  0  0  0
   -1.3920   -0.0402   -0.0318 C   0  0  0  0  0  0  0  0  0  0  0  0
   -0.8394   -1.2888   -0.3657 C   0  0  0  0  0  0  0  0  0  0  0  0
    0.3323   -1.3620   -1.0475 F   0  0  0  0  0  0  0  0  0  0  0  0
   -1.5041   -2.4727   -0.0265 C   0  0  0  0  0  0  0  0  0  0  0  0
   -0.9256   -3.6513   -0.3650 F   0  0  0  0  0  0  0  0  0  0  0  0
   -2.7482   -2.4217    0.6419 C   0  0  0  0  0  0  0  0  0  0  0  0
   -3.4725   -3.5652    1.0205 O   0  0  0  0  0  0  0  0  0  0  0  0
   -3.0680   -4.9142    0.8066 C   0  0  0  0  0  0  0  0  0  0  0  0
   -4.1208   -5.8525    1.3744 C   0  0  0  0  0  0  0  0  0  0  0  0
   -3.3044   -1.1729    0.9478 C   0  0  0  0  0  0  0  0  0  0  0  0
   -4.5012   -1.1063    1.5840 F   0  0  0  0  0  0  0  0  0  0  0  0
   -2.6389    0.0088    0.6100 C   0  0  0  0  0  0  0  0  0  0  0  0
   -3.1982    1.2028    0.9348 F   0  0  0  0  0  0  0  0  0  0  0  0
    0.8632    0.2629    2.2314 C   0  0  0  0  0  0  0  0  0  0  0  0
   -0.3134    0.7873    2.6598 F   0  0  0  0  0  0  0  0  0  0  0  0
    1.5728   -0.5972    3.0735 C   0  0  0  0  0  0  0  0  0  0  0  0
    1.0556   -0.9191    4.2860 F   0  0  0  0  0  0  0  0  0  0  0  0
    5.0308   -4.6709    2.2302 H   0  0  0  0  0  0  0  0  0  0  0  0
    3.8096   -3.6251    1.4127 H   0  0  0  0  0  0  0  0  0  0  0  0
    3.3415   -4.5889    2.8655 H   0  0  0  0  0  0  0  0  0  0  0  0
    5.4158   -2.2764    2.8946 H   0  0  0  0  0  0  0  0  0  0  0  0
    4.9093   -3.2812    4.2728 H   0  0  0  0  0  0  0  0  0  0  0  0
    2.2363    4.9316   -1.2351 H   0  0  0  0  0  0  0  0  0  0  0  0
   -2.4304    3.9959   -2.6762 H   0  0  0  0  0  0  0  0  0  0  0  0
   -2.1019   -5.1053    1.3218 H   0  0  0  0  0  0  0  0  0  0  0  0
   -2.9641   -5.1093   -0.2825 H   0  0  0  0  0  0  0  0  0  0  0  0
   -5.0951   -5.6792    0.8701 H   0  0  0  0  0  0  0  0  0  0  0  0
   -4.2383   -5.6762    2.4646 H   0  0  0  0  0  0  0  0  0  0  0  0
   -3.8121   -6.9064    1.2104 H   0  0  0  0  0  0  0  0  0  0  0  0
  1  2  1  0
  2  3  1  0
  3  4  1  0
  4  5  2  0
  5  6  1  0
  5  7  1  0
  7  8  1  0
  7  9  2  0
  9 10  1  0
 10 11  2  0
 11 12  1  0
 12 13  2  0
 13 14  1  0
 14 15  1  0
 14 16  2  0
 16 17  1  0
 16 18  1  0
 18 19  2  0
 19 20  1  0
 20 21  2  0
 21 22  1  0
 22 23  2  0
 23 24  1  0
 23 25  1  0
 25 26  1  0
 25 27  2  0
 27 28  1  0
 28 29  1  0
 29 30  1  0
 27 31  1  0
 31 32  1  0
 31 33  2  0
 33 34  1  0
  9 35  1  0
 35 36  1  0
 35 37  2  0
 37 38  1  0
 37  4  1  0
 21 10  1  0
 33 22  1  0
 19 12  1  0
  1 39  1  0
  1 40  1  0
  1 41  1  0
  2 42  1  0
  2 43  1  0
 13 44  1  0
 18 45  1  0
 29 46  1  0
 29 47  1  0
 30 48  1  0
 30 49  1  0
 30 50  1  0
M  END

