
     RDKit          3D

 26 26  0  0  0  0  0  0  0  0999 V2000
    1.1001   -2.3181    3.5408 C   0  0  0  0  0  0  0  0  0  0  0  0
    0.8615   -2.8723    2.1403 C   0  0  0  0  0  0  0  0  0  0  0  0
    0.2502   -1.8895    1.3042 O   0  0  0  0  0  0  0  0  0  0  0  0
    0.8983   -0.7821    0.7296 C   0  0  0  0  0  0  0  0  0  0  0  0
    2.2910   -0.5866    0.8266 C   0  0  0  0  0  0  0  0  0  0  0  0
    2.8905    0.5289    0.2372 C   0  0  0  0  0  0  0  0  0  0  0  0
    4.2311    0.7074    0.3379 F   0  0  0  0  0  0  0  0  0  0  0  0
    2.1122    1.4574   -0.4557 C   0  0  0  0  0  0  0  0  0  0  0  0
    2.6952    2.5399   -1.0280 F   0  0  0  0  0  0  0  0  0  0  0  0
    0.7322    1.2724   -0.5624 C   0  0  0  0  0  0  0  0  0  0  0  0
    0.1164    0.1514    0.0286 C   0  0  0  0  0  0  0  0  0  0  0  0
   -1.2673   -0.0695   -0.0569 O   0  0  0  0  0  0  0  0  0  0  0  0
   -2.1831    0.7896   -0.7311 C   0  0  0  0  0  0  0  0  0  0  0  0
   -3.5898    0.2266   -0.6093 C   0  0  0  0  0  0  0  0  0  0  0  0
    0.1382   -1.9819    3.9823 H   0  0  0  0  0  0  0  0  0  0  0  0
    1.8022   -1.4599    3.5104 H   0  0  0  0  0  0  0  0  0  0  0  0
    1.5341   -3.1105    4.1862 H   0  0  0  0  0  0  0  0  0  0  0  0
    1.8064   -3.2445    1.6913 H   0  0  0  0  0  0  0  0  0  0  0  0
    0.1710   -3.7380    2.2209 H   0  0  0  0  0  0  0  0  0  0  0  0
    2.9217   -1.2896    1.3512 H   0  0  0  0  0  0  0  0  0  0  0  0
    0.1522    2.0057   -1.1058 H   0  0  0  0  0  0  0  0  0  0  0  0
   -2.1561    1.8023   -0.2738 H   0  0  0  0  0  0  0  0  0  0  0  0
   -1.9116    0.8598   -1.8067 H   0  0  0  0  0  0  0  0  0  0  0  0
   -4.3072    0.8928   -1.1332 H   0  0  0  0  0  0  0  0  0  0  0  0
   -3.8785    0.1554    0.4608 H   0  0  0  0  0  0  0  0  0  0  0  0
   -3.6349   -0.7842   -1.0674 H   0  0  0  0  0  0  0  0  0  0  0  0
  1  2  1  0
  2  3  1  0
  3  4  1  0
  4  5  2  0
  5  6  1  0
  6  7  1  0
  6  8  2  0
  8  9  1  0
  8 10  1  0
 10 11  2  0
 11 12  1  0
 12 13  1  0
 13 14  1  0
 11  4  1  0
  1 15  1  0
  1 16  1  0
  1 17  1  0
  2 18  1  0
  2 19  1  0
  5 20  1  0
 10 21  1  0
 13 22  1  0
 13 23  1  0
 14 24  1  0
 14 25  1  0
 14 26  1  0
M  END

