
     RDKit          3D

 10 10  0  0  0  0  0  0  0  0999 V2000
    0.6133   -0.9031    4.2223 N   0  0  0  0  0  0  0  0  0  0  0  0
    1.0116   -0.9861    3.1389 C   0  0  0  0  0  0  0  0  0  0  0  0
    1.5063   -1.0893    1.7932 C   0  0  0  0  0  0  0  0  0  0  0  0
    1.2376   -2.1855    0.9629 C   0  0  0  0  0  0  0  0  0  0  0  0
    1.8142   -2.0766   -0.2950 C   0  0  0  0  0  0  0  0  0  0  0  0
    2.6510   -0.6194   -0.3606 S   0  0  0  0  0  0  0  0  0  0  0  0
    2.2932   -0.1107    1.2010 C   0  0  0  0  0  0  0  0  0  0  0  0
    0.6404   -3.0356    1.2669 H   0  0  0  0  0  0  0  0  0  0  0  0
    1.7370   -2.8036   -1.0920 H   0  0  0  0  0  0  0  0  0  0  0  0
    2.6186    0.8137    1.6601 H   0  0  0  0  0  0  0  0  0  0  0  0
  1  2  3  0
  2  3  1  0
  3  4  1  0
  4  5  2  0
  5  6  1  0
  6  7  1  0
  7  3  2  0
  4  8  1  0
  5  9  1  0
  7 10  1  0
M  END

