
     RDKit          3D

 57 64  0  0  0  0  0  0  0  0999 V2000
    7.9210   -0.8760    1.5734 C   0  0  0  0  0  0  0  0  0  0  0  0
    7.6208   -0.5364    0.1272 C   0  0  0  0  0  0  0  0  0  0  0  0
    6.3277   -1.2386   -0.2892 C   0  0  0  0  0  0  0  0  0  0  0  0
    6.3334   -2.3580   -1.0544 C   0  0  0  0  0  0  0  0  0  0  0  0
    4.6916   -2.6916   -1.1923 S   0  0  0  0  0  0  0  0  0  0  0  0
    4.0219   -1.3439   -0.2341 C   0  0  0  0  0  0  0  0  0  0  0  0
    5.1262   -0.7649    0.1005 C   0  0  0  0  0  0  0  0  0  0  0  0
    4.5314    0.7639    1.1667 Se  0  0  0  0  0  2  0  0  0  0  0  0
    2.6589    0.1959    0.8782 C   0  0  0  0  0  0  0  0  0  0  0  0
    1.3949    0.5609    1.1704 C   0  0  0  0  0  0  0  0  0  0  0  0
    0.8684    1.6066    1.9169 C   0  0  0  0  0  0  0  0  0  0  0  0
    1.5648    2.5643    2.5471 N   0  0  0  0  0  0  0  0  0  0  0  0
    0.3920    3.5177    3.2637 S   0  0  0  0  0  0  0  0  0  0  0  0
   -0.9653    2.6816    2.7493 N   0  0  0  0  0  0  0  0  0  0  0  0
   -0.4701    1.6669    2.0228 C   0  0  0  0  0  0  0  0  0  0  0  0
   -1.2417    0.6872    1.3794 C   0  0  0  0  0  0  0  0  0  0  0  0
   -2.5824    0.5051    1.3006 C   0  0  0  0  0  0  0  0  0  0  0  0
   -4.2746    1.2597    1.9142 Se  0  0  0  0  0  2  0  0  0  0  0  0
   -5.2457   -0.1287    0.9828 C   0  0  0  0  0  0  0  0  0  0  0  0
   -6.5471   -0.4524    0.8243 C   0  0  0  0  0  0  0  0  0  0  0  0
   -7.6601    0.3866    1.4644 C   0  0  0  0  0  0  0  0  0  0  0  0
   -7.8712    1.6455    0.6953 C   0  0  0  0  0  0  0  0  0  0  0  0
   -6.8224   -1.5530    0.0688 C   0  0  0  0  0  0  0  0  0  0  0  0
   -5.2840   -2.0668   -0.3714 S   0  0  0  0  0  0  0  0  0  0  0  0
   -4.2972   -0.8340    0.4390 C   0  0  0  0  0  0  0  0  0  0  0  0
   -2.9678   -0.5383    0.5827 C   0  0  0  0  0  0  0  0  0  0  0  0
   -1.7449   -1.1006    0.1414 N   0  0  0  0  0  0  0  0  0  0  0  0
   -1.7669   -2.2191   -0.7404 C   0  0  0  0  0  0  0  0  0  0  0  0
   -1.9127   -3.5639   -0.0451 C   0  0  0  0  0  0  0  0  0  0  0  0
   -0.7450   -0.3587    0.6299 C   0  0  0  0  0  0  0  0  0  0  0  0
    0.6398   -0.4278    0.5239 C   0  0  0  0  0  0  0  0  0  0  0  0
    1.4370   -1.2992   -0.0910 N   0  0  0  0  0  0  0  0  0  0  0  0
    1.1518   -2.4542   -0.8677 C   0  0  0  0  0  0  0  0  0  0  0  0
    1.1710   -2.1927   -2.3594 C   0  0  0  0  0  0  0  0  0  0  0  0
    2.7810   -0.8917    0.1363 C   0  0  0  0  0  0  0  0  0  0  0  0
    8.4437   -1.8284    1.7005 H   0  0  0  0  0  0  0  0  0  0  0  0
    8.3789   -0.0370    2.1284 H   0  0  0  0  0  0  0  0  0  0  0  0
    6.9083   -1.0276    2.0555 H   0  0  0  0  0  0  0  0  0  0  0  0
    7.5021    0.5623    0.0651 H   0  0  0  0  0  0  0  0  0  0  0  0
    8.4483   -0.9072   -0.4903 H   0  0  0  0  0  0  0  0  0  0  0  0
    7.2389   -2.8499   -1.4405 H   0  0  0  0  0  0  0  0  0  0  0  0
   -8.5526   -0.2519    1.5781 H   0  0  0  0  0  0  0  0  0  0  0  0
   -7.3571    0.6752    2.4941 H   0  0  0  0  0  0  0  0  0  0  0  0
   -8.9837    1.8481    0.6832 H   0  0  0  0  0  0  0  0  0  0  0  0
   -7.4218    2.5367    1.1813 H   0  0  0  0  0  0  0  0  0  0  0  0
   -7.5049    1.5816   -0.3504 H   0  0  0  0  0  0  0  0  0  0  0  0
   -7.8328   -1.9555   -0.1588 H   0  0  0  0  0  0  0  0  0  0  0  0
   -2.7915   -2.1937   -1.3303 H   0  0  0  0  0  0  0  0  0  0  0  0
   -1.1200   -2.2828   -1.5822 H   0  0  0  0  0  0  0  0  0  0  0  0
   -1.3613   -3.6261    0.9060 H   0  0  0  0  0  0  0  0  0  0  0  0
   -1.5458   -4.3754   -0.7040 H   0  0  0  0  0  0  0  0  0  0  0  0
   -2.9631   -3.8316    0.1822 H   0  0  0  0  0  0  0  0  0  0  0  0
    0.5218   -3.2326   -0.4726 H   0  0  0  0  0  0  0  0  0  0  0  0
    2.1314   -3.1179   -0.7887 H   0  0  0  0  0  0  0  0  0  0  0  0
    2.2234   -2.0895   -2.7623 H   0  0  0  0  0  0  0  0  0  0  0  0
    0.7508   -3.0499   -2.9207 H   0  0  0  0  0  0  0  0  0  0  0  0
    0.7142   -1.2123   -2.6367 H   0  0  0  0  0  0  0  0  0  0  0  0
  1  2  1  0
  2  3  1  0
  3  4  2  0
  4  5  1  0
  5  6  1  0
  6  7  2  0
  7  8  1  0
  8  9  1  0
  9 10  1  0
 10 11  1  0
 11 12  2  0
 12 13  1  0
 13 14  1  0
 14 15  2  0
 15 16  1  0
 16 17  1  0
 17 18  1  0
 18 19  1  0
 19 20  1  0
 20 21  1  0
 21 22  1  0
 20 23  2  0
 23 24  1  0
 24 25  1  0
 25 26  1  0
 26 27  1  0
 27 28  1  0
 28 29  1  0
 27 30  1  0
 30 31  1  0
 31 32  1  0
 32 33  1  0
 33 34  1  0
 32 35  1  0
  7  3  1  0
 35  9  2  0
 35  6  1  0
 31 10  2  0
 15 11  1  0
 30 16  2  0
 26 17  2  0
 25 19  2  0
  1 36  1  0
  1 37  1  0
  1 38  1  0
  2 39  1  0
  2 40  1  0
  4 41  1  0
 21 42  1  0
 21 43  1  0
 22 44  1  0
 22 45  1  0
 22 46  1  0
 23 47  1  0
 28 48  1  0
 28 49  1  0
 29 50  1  0
 29 51  1  0
 29 52  1  0
 33 53  1  0
 33 54  1  0
 34 55  1  0
 34 56  1  0
 34 57  1  0
M  END

