
     RDKit          3D

 64 71  0  0  0  0  0  0  0  0999 V2000
    3.4235    1.5466    0.6991 C   0  0  0  0  0  0  0  0  0  0  0  0
    2.3880    0.6448    0.0235 C   0  0  0  0  0  0  0  0  0  0  0  0
    1.4418   -0.1183    0.9911 C   0  0  0  0  0  0  0  0  0  0  0  0
    2.1995   -1.1200    1.9054 C   0  0  0  0  0  0  0  0  0  0  0  0
    1.2872   -2.0371    2.7279 C   0  0  0  0  0  0  0  0  0  0  0  0
    0.3794   -0.8045    0.1652 C   0  0  0  0  0  0  0  0  0  0  0  0
   -0.8270   -0.3349    0.3538 C   0  0  0  0  0  0  0  0  0  0  0  0
   -0.7924    0.6937    1.3638 C   0  0  0  0  0  0  0  0  0  0  0  0
   -1.8396    1.4162    1.9452 C   0  0  0  0  0  0  0  0  0  0  0  0
   -1.4931    2.2832    2.9846 C   0  0  0  0  0  0  0  0  0  0  0  0
   -2.5285    3.2821    3.8962 S   0  0  0  0  0  0  0  0  0  0  0  0
   -1.2674    3.8655    4.8536 C   0  0  0  0  0  0  0  0  0  0  0  0
   -1.1982    4.7665    5.9094 C   0  0  0  0  0  0  0  0  0  0  0  0
    0.1187    4.8969    6.3673 C   0  0  0  0  0  0  0  0  0  0  0  0
    1.1541    3.8939    5.4534 S   0  0  0  0  0  0  0  0  0  0  0  0
   -0.0817    3.3063    4.4860 C   0  0  0  0  0  0  0  0  0  0  0  0
   -0.1660    2.4068    3.4324 C   0  0  0  0  0  0  0  0  0  0  0  0
    0.8734    1.6715    2.8473 C   0  0  0  0  0  0  0  0  0  0  0  0
    0.5371    0.8225    1.7786 C   0  0  0  0  0  0  0  0  0  0  0  0
   -1.8774   -0.9870   -0.5119 C   0  0  0  0  0  0  0  0  0  0  0  0
   -2.5430    0.0354   -1.4703 C   0  0  0  0  0  0  0  0  0  0  0  0
   -1.5575    0.8196   -2.3458 C   0  0  0  0  0  0  0  0  0  0  0  0
   -2.9542   -1.7188    0.3320 C   0  0  0  0  0  0  0  0  0  0  0  0
   -2.3924   -2.7096    1.3581 C   0  0  0  0  0  0  0  0  0  0  0  0
   -0.9865   -1.9641   -1.2601 C   0  0  0  0  0  0  0  0  0  0  0  0
   -1.3518   -2.8972   -2.2429 C   0  0  0  0  0  0  0  0  0  0  0  0
   -0.3270   -3.6859   -2.7831 C   0  0  0  0  0  0  0  0  0  0  0  0
    1.0068   -3.5462   -2.3579 C   0  0  0  0  0  0  0  0  0  0  0  0
    1.3740   -2.6171   -1.3798 C   0  0  0  0  0  0  0  0  0  0  0  0
    0.3431   -1.8346   -0.8488 C   0  0  0  0  0  0  0  0  0  0  0  0
    2.0174   -4.6358   -3.1900 S   0  0  0  0  0  0  0  0  0  0  0  0
    0.7388   -5.2752   -4.0865 C   0  0  0  0  0  0  0  0  0  0  0  0
    0.6455   -6.2625   -5.0602 C   0  0  0  0  0  0  0  0  0  0  0  0
   -0.6779   -6.4119   -5.4925 C   0  0  0  0  0  0  0  0  0  0  0  0
   -1.6893   -5.3196   -4.6576 S   0  0  0  0  0  0  0  0  0  0  0  0
   -0.4349   -4.6691   -3.7567 C   0  0  0  0  0  0  0  0  0  0  0  0
    4.1049    1.9579   -0.0751 H   0  0  0  0  0  0  0  0  0  0  0  0
    2.9321    2.4052    1.1986 H   0  0  0  0  0  0  0  0  0  0  0  0
    4.0397    0.9825    1.4275 H   0  0  0  0  0  0  0  0  0  0  0  0
    2.9336   -0.0913   -0.6059 H   0  0  0  0  0  0  0  0  0  0  0  0
    1.7856    1.2770   -0.6670 H   0  0  0  0  0  0  0  0  0  0  0  0
    2.8423   -0.5615    2.6175 H   0  0  0  0  0  0  0  0  0  0  0  0
    2.8667   -1.7572    1.2861 H   0  0  0  0  0  0  0  0  0  0  0  0
    1.9068   -2.6595    3.4072 H   0  0  0  0  0  0  0  0  0  0  0  0
    0.5817   -1.4424    3.3452 H   0  0  0  0  0  0  0  0  0  0  0  0
    0.7159   -2.7186    2.0638 H   0  0  0  0  0  0  0  0  0  0  0  0
   -2.8649    1.2994    1.6219 H   0  0  0  0  0  0  0  0  0  0  0  0
   -2.0469    5.2948    6.3226 H   0  0  0  0  0  0  0  0  0  0  0  0
    0.4309    5.5379    7.1804 H   0  0  0  0  0  0  0  0  0  0  0  0
    1.8874    1.7431    3.2172 H   0  0  0  0  0  0  0  0  0  0  0  0
   -3.2536   -0.4982   -2.1385 H   0  0  0  0  0  0  0  0  0  0  0  0
   -3.1344    0.7653   -0.8760 H   0  0  0  0  0  0  0  0  0  0  0  0
   -2.1221    1.5164   -3.0003 H   0  0  0  0  0  0  0  0  0  0  0  0
   -0.9717    0.1338   -2.9929 H   0  0  0  0  0  0  0  0  0  0  0  0
   -0.8637    1.4186   -1.7195 H   0  0  0  0  0  0  0  0  0  0  0  0
   -3.5698   -0.9705    0.8761 H   0  0  0  0  0  0  0  0  0  0  0  0
   -3.6374   -2.2720   -0.3489 H   0  0  0  0  0  0  0  0  0  0  0  0
   -3.2325   -3.2208    1.8732 H   0  0  0  0  0  0  0  0  0  0  0  0
   -1.7662   -3.4811    0.8634 H   0  0  0  0  0  0  0  0  0  0  0  0
   -1.7909   -2.1783    2.1246 H   0  0  0  0  0  0  0  0  0  0  0  0
   -2.3790   -3.0011   -2.5674 H   0  0  0  0  0  0  0  0  0  0  0  0
    2.3994   -2.5132   -1.0526 H   0  0  0  0  0  0  0  0  0  0  0  0
    1.4819   -6.8378   -5.4335 H   0  0  0  0  0  0  0  0  0  0  0  0
   -1.0079   -7.1160   -6.2441 H   0  0  0  0  0  0  0  0  0  0  0  0
  1  2  1  0
  2  3  1  0
  3  4  1  0
  4  5  1  0
  3  6  1  0
  6  7  2  0
  7  8  1  0
  8  9  2  0
  9 10  1  0
 10 11  1  0
 11 12  1  0
 12 13  1  0
 13 14  2  0
 14 15  1  0
 15 16  1  0
 16 17  1  0
 17 18  1  0
 18 19  2  0
  7 20  1  0
 20 21  1  0
 21 22  1  0
 20 23  1  0
 23 24  1  0
 20 25  1  0
 25 26  2  0
 26 27  1  0
 27 28  2  0
 28 29  1  0
 29 30  2  0
 28 31  1  0
 31 32  1  0
 32 33  1  0
 33 34  2  0
 34 35  1  0
 35 36  1  0
 19  3  1  0
 30 25  1  0
 36 32  2  0
 30  6  1  0
 19  8  1  0
 36 27  1  0
 17 10  2  0
 16 12  2  0
  1 37  1  0
  1 38  1  0
  1 39  1  0
  2 40  1  0
  2 41  1  0
  4 42  1  0
  4 43  1  0
  5 44  1  0
  5 45  1  0
  5 46  1  0
  9 47  1  0
 13 48  1  0
 14 49  1  0
 18 50  1  0
 21 51  1  0
 21 52  1  0
 22 53  1  0
 22 54  1  0
 22 55  1  0
 23 56  1  0
 23 57  1  0
 24 58  1  0
 24 59  1  0
 24 60  1  0
 26 61  1  0
 29 62  1  0
 33 63  1  0
 34 64  1  0
M  END

