
     RDKit          3D

 25 26  0  0  0  0  0  0  0  0999 V2000
   -2.6464   -1.0794    2.8511 C   0  0  0  0  0  0  0  0  0  0  0  0
   -1.4368   -0.9084    2.3089 C   0  0  0  0  0  0  0  0  0  0  0  0
   -0.3926   -1.9276    2.3436 C   0  0  0  0  0  0  0  0  0  0  0  0
   -0.4189   -2.9956    3.0121 O   0  0  0  0  0  0  0  0  0  0  0  0
    0.6577   -1.5305    1.4322 C   0  0  0  0  0  0  0  0  0  0  0  0
    1.8013   -2.2434    1.0772 C   0  0  0  0  0  0  0  0  0  0  0  0
    2.6482   -1.7053    0.1009 C   0  0  0  0  0  0  0  0  0  0  0  0
    2.3380   -0.4742   -0.5140 C   0  0  0  0  0  0  0  0  0  0  0  0
    3.2134    0.0579   -1.6099 C   0  0  0  0  0  0  0  0  0  0  0  0
    1.1611    0.2143   -0.1542 C   0  0  0  0  0  0  0  0  0  0  0  0
    0.3366   -0.3121    0.8545 C   0  0  0  0  0  0  0  0  0  0  0  0
   -0.9468    0.1953    1.4277 C   0  0  0  0  0  0  0  0  0  0  0  0
   -1.4499    1.4539    1.3285 C   0  0  0  0  0  0  0  0  0  0  0  0
   -2.5903    1.8940    2.0891 C   0  0  0  0  0  0  0  0  0  0  0  0
   -3.5036    2.2622    2.6978 N   0  0  0  0  0  0  0  0  0  0  0  0
   -0.8172    2.4848    0.5488 C   0  0  0  0  0  0  0  0  0  0  0  0
   -0.3201    3.3271   -0.0707 N   0  0  0  0  0  0  0  0  0  0  0  0
   -2.8647   -1.9715    3.4244 H   0  0  0  0  0  0  0  0  0  0  0  0
   -3.4572   -0.3883    2.6985 H   0  0  0  0  0  0  0  0  0  0  0  0
    2.0240   -3.1999    1.5324 H   0  0  0  0  0  0  0  0  0  0  0  0
    3.5348   -2.2547   -0.1904 H   0  0  0  0  0  0  0  0  0  0  0  0
    3.1909    1.1685   -1.6236 H   0  0  0  0  0  0  0  0  0  0  0  0
    4.2669   -0.2616   -1.4611 H   0  0  0  0  0  0  0  0  0  0  0  0
    2.8536   -0.3241   -2.5879 H   0  0  0  0  0  0  0  0  0  0  0  0
    0.9035    1.1141   -0.6858 H   0  0  0  0  0  0  0  0  0  0  0  0
  1  2  2  3
  2  3  1  0
  3  4  2  0
  3  5  1  0
  5  6  2  0
  6  7  1  0
  7  8  2  0
  8  9  1  0
  8 10  1  0
 10 11  2  0
 11 12  1  0
 12 13  2  3
 13 14  1  0
 14 15  3  0
 13 16  1  0
 16 17  3  0
 12  2  1  0
 11  5  1  0
  1 18  1  0
  1 19  1  0
  6 20  1  0
  7 21  1  0
  9 22  1  0
  9 23  1  0
  9 24  1  0
 10 25  1  0
M  END

