
     RDKit          3D

 57 63  0  0  0  0  0  0  0  0999 V2000
    2.1819   -3.9598    4.1923 C   0  0  0  0  0  0  0  0  0  0  0  0
    1.3357   -2.8045    3.6838 C   0  0  0  0  0  0  0  0  0  0  0  0
    1.1283   -2.9500    2.2831 O   0  0  0  0  0  0  0  0  0  0  0  0
    0.3711   -2.0388    1.5510 C   0  0  0  0  0  0  0  0  0  0  0  0
    0.8326   -0.8108    1.2824 C   0  0  0  0  0  0  0  0  0  0  0  0
    2.4368   -0.2846    1.5442 S   0  0  0  0  0  0  0  0  0  0  0  0
    2.1044    1.2426    0.9534 C   0  0  0  0  0  0  0  0  0  0  0  0
    2.8196    2.2726    0.4259 C   0  0  0  0  0  0  0  0  0  0  0  0
    4.4147    2.6504    0.0972 S   0  0  0  0  0  0  0  0  0  0  0  0
    3.9817    3.8213   -1.0722 C   0  0  0  0  0  0  0  0  0  0  0  0
    2.5898    3.8463   -1.2468 C   0  0  0  0  0  0  0  0  0  0  0  0
    1.9678    2.9563   -0.3728 C   0  0  0  0  0  0  0  0  0  0  0  0
    0.7206    2.4118   -0.3887 N   0  0  0  0  0  0  0  0  0  0  0  0
   -0.2832    2.6608   -1.4269 C   0  0  0  0  0  0  0  0  0  0  0  0
   -1.0415    3.9468   -1.1254 C   0  0  0  0  0  0  0  0  0  0  0  0
    0.8271    1.3602    0.4826 C   0  0  0  0  0  0  0  0  0  0  0  0
    0.0376    0.2155    0.7131 C   0  0  0  0  0  0  0  0  0  0  0  0
   -1.3120    0.1155    0.6454 C   0  0  0  0  0  0  0  0  0  0  0  0
   -2.0811    1.2826    0.5062 O   0  0  0  0  0  0  0  0  0  0  0  0
   -3.4721    1.3686    0.8139 C   0  0  0  0  0  0  0  0  0  0  0  0
   -3.8882    2.8253    0.9367 C   0  0  0  0  0  0  0  0  0  0  0  0
   -1.9787   -1.2280    0.9396 C   0  0  0  0  0  3  0  0  0  0  0  0
   -3.2385   -1.6999   -0.3220 S   0  0  0  0  0  0  0  0  0  0  0  0
   -2.5985   -3.3431   -0.1965 C   0  0  0  0  0  0  0  0  0  0  0  0
   -2.7209   -4.4090   -1.0489 C   0  0  0  0  0  0  0  0  0  0  0  0
   -1.5867   -5.1218   -0.9175 C   0  0  0  0  0  0  0  0  0  0  0  0
   -0.7480   -4.6111    0.0207 N   0  0  0  0  0  0  0  0  0  0  0  0
    0.6131   -5.0939    0.2799 C   0  0  0  0  0  0  0  0  0  0  0  0
    1.6311   -4.3819   -0.6077 C   0  0  0  0  0  0  0  0  0  0  0  0
   -1.3966   -3.4761    0.4326 C   0  0  0  0  0  0  0  0  0  0  0  0
   -0.9792   -2.3667    1.0574 C   0  0  0  0  0  0  0  0  0  0  0  0
   -1.3373   -5.9929   -1.8780 C   0  0  0  0  0  0  0  0  0  0  0  0
   -2.4032   -6.0054   -2.9384 C   0  0  0  0  0  2  0  0  0  0  0  0
   -3.6035   -4.6474   -2.5675 S   0  0  0  0  0  0  0  0  0  0  0  0
    2.3474   -3.8514    5.2849 H   0  0  0  0  0  0  0  0  0  0  0  0
    3.1652   -3.9645    3.6759 H   0  0  0  0  0  0  0  0  0  0  0  0
    1.6638   -4.9230    3.9987 H   0  0  0  0  0  0  0  0  0  0  0  0
    0.3551   -2.8086    4.2073 H   0  0  0  0  0  0  0  0  0  0  0  0
    1.8551   -1.8475    3.9009 H   0  0  0  0  0  0  0  0  0  0  0  0
    4.6844    4.4041   -1.6522 H   0  0  0  0  0  0  0  0  0  0  0  0
    2.0824    4.4271   -2.0051 H   0  0  0  0  0  0  0  0  0  0  0  0
    0.2161    2.7580   -2.4151 H   0  0  0  0  0  0  0  0  0  0  0  0
   -0.9802    1.8080   -1.5290 H   0  0  0  0  0  0  0  0  0  0  0  0
   -0.3685    4.8220   -1.2416 H   0  0  0  0  0  0  0  0  0  0  0  0
   -1.8941    4.0545   -1.8282 H   0  0  0  0  0  0  0  0  0  0  0  0
   -1.4228    3.9312   -0.0844 H   0  0  0  0  0  0  0  0  0  0  0  0
   -4.0705    0.9014    0.0058 H   0  0  0  0  0  0  0  0  0  0  0  0
   -3.6802    0.8563    1.7785 H   0  0  0  0  0  0  0  0  0  0  0  0
   -3.2534    3.3413    1.6880 H   0  0  0  0  0  0  0  0  0  0  0  0
   -3.7896    3.3331   -0.0451 H   0  0  0  0  0  0  0  0  0  0  0  0
   -4.9485    2.8848    1.2607 H   0  0  0  0  0  0  0  0  0  0  0  0
    0.6691   -6.1831    0.0692 H   0  0  0  0  0  0  0  0  0  0  0  0
    0.8598   -5.0177    1.3507 H   0  0  0  0  0  0  0  0  0  0  0  0
    1.5794   -3.2833   -0.4780 H   0  0  0  0  0  0  0  0  0  0  0  0
    2.6546   -4.7245   -0.3481 H   0  0  0  0  0  0  0  0  0  0  0  0
    1.4347   -4.6202   -1.6742 H   0  0  0  0  0  0  0  0  0  0  0  0
   -0.4221   -6.5625   -1.9604 H   0  0  0  0  0  0  0  0  0  0  0  0
  1  2  1  0
  2  3  1  0
  3  4  1  0
  4  5  2  0
  5  6  1  0
  6  7  1  0
  7  8  1  0
  8  9  1  0
  9 10  1  0
 10 11  2  0
 11 12  1  0
 12 13  1  0
 13 14  1  0
 14 15  1  0
 13 16  1  0
 16 17  1  0
 17 18  2  0
 18 19  1  0
 19 20  1  0
 20 21  1  0
 18 22  1  0
 22 23  1  0
 23 24  1  0
 24 25  2  0
 25 26  1  0
 26 27  1  0
 27 28  1  0
 28 29  1  0
 27 30  1  0
 30 31  2  0
 26 32  2  0
 32 33  1  0
 33 34  1  0
 31  4  1  0
 17  5  1  0
 31 22  1  0
 16  7  2  0
 30 24  1  0
 12  8  2  0
 34 25  1  0
  1 35  1  0
  1 36  1  0
  1 37  1  0
  2 38  1  0
  2 39  1  0
 10 40  1  0
 11 41  1  0
 14 42  1  0
 14 43  1  0
 15 44  1  0
 15 45  1  0
 15 46  1  0
 20 47  1  0
 20 48  1  0
 21 49  1  0
 21 50  1  0
 21 51  1  0
 28 52  1  0
 28 53  1  0
 29 54  1  0
 29 55  1  0
 29 56  1  0
 32 57  1  0
M  RAD  2  22   2  33   3
M  END

