
     RDKit          3D

 13 14  0  0  0  0  0  0  0  0999 V2000
   -1.1717   -2.2795    0.3802 F   0  0  0  0  0  0  0  0  0  0  0  0
   -0.1166   -1.4281    0.4065 C   0  0  0  0  0  0  0  0  0  0  0  0
    0.4870   -1.1093    1.6315 C   0  0  0  0  0  0  0  0  0  0  0  0
    1.5724   -0.2320    1.6487 C   0  0  0  0  0  0  0  0  0  0  0  0
    2.2113    0.1271    2.7901 N   0  0  0  0  0  0  0  0  0  0  0  0
    3.3598    1.1441    2.1698 S   0  0  0  0  0  0  0  0  0  0  0  0
    3.1165    1.1744    0.5334 N   0  0  0  0  0  0  0  0  0  0  0  0
    2.0589    0.3308    0.4360 C   0  0  0  0  0  0  0  0  0  0  0  0
    1.4546    0.0102   -0.7806 C   0  0  0  0  0  0  0  0  0  0  0  0
    0.3643   -0.8717   -0.7923 C   0  0  0  0  0  0  0  0  0  0  0  0
   -0.2292   -1.1889   -1.9696 F   0  0  0  0  0  0  0  0  0  0  0  0
    0.1137   -1.5399    2.5522 H   0  0  0  0  0  0  0  0  0  0  0  0
    1.8217    0.4363   -1.7058 H   0  0  0  0  0  0  0  0  0  0  0  0
  1  2  1  0
  2  3  2  0
  3  4  1  0
  4  5  2  0
  5  6  1  0
  6  7  1  0
  7  8  2  0
  8  9  1  0
  9 10  2  0
 10 11  1  0
 10  2  1  0
  8  4  1  0
  3 12  1  0
  9 13  1  0
M  END

