
     RDKit          3D

 30 32  0  0  0  0  0  0  0  0999 V2000
   -3.3382   -1.1460   -0.3148 C   0  0  0  0  0  0  0  0  0  0  0  0
   -2.1079   -1.2303   -1.2121 C   0  0  0  0  0  0  0  0  0  0  0  0
   -0.8545   -1.3356   -0.3927 C   0  0  0  0  0  0  0  0  0  0  0  0
   -0.1180   -2.7957   -0.0072 S   0  0  0  0  0  0  0  0  0  0  0  0
    1.1214   -2.1685    0.9497 C   0  0  0  0  0  0  0  0  0  0  0  0
    2.1929   -2.9677    1.6492 C   0  0  0  0  0  0  0  0  0  0  0  0
    2.1037   -4.4691    1.3825 C   0  0  0  0  0  0  0  0  0  0  0  0
    0.9616   -0.7773    0.9938 C   0  0  0  0  0  0  0  0  0  0  0  0
   -0.1470   -0.3095    0.2475 C   0  0  0  0  0  0  0  0  0  0  0  0
   -0.4694    1.1402    0.2020 C   0  0  0  0  0  0  0  0  0  0  0  0
   -1.4528    1.5775   -0.4523 O   0  0  0  0  0  0  0  0  0  0  0  0
    0.3964    2.0715    0.9485 C   0  0  0  0  0  0  0  0  0  0  0  0
    0.2259    3.4503    1.0019 C   0  0  0  0  0  0  0  0  0  0  0  0
    1.4525    4.0742    1.9703 S   0  0  0  0  0  0  0  0  0  0  0  0
    2.2075    2.6140    2.3297 C   0  0  0  0  0  0  0  0  0  0  0  0
    1.4970    1.6071    1.6859 C   0  0  0  0  0  0  0  0  0  0  0  0
    1.8258    0.1712    1.7414 C   0  0  0  0  0  0  0  0  0  0  0  0
    2.8162   -0.2280    2.4102 O   0  0  0  0  0  0  0  0  0  0  0  0
   -3.2838   -0.2521    0.3415 H   0  0  0  0  0  0  0  0  0  0  0  0
   -3.4152   -2.0566    0.3171 H   0  0  0  0  0  0  0  0  0  0  0  0
   -4.2510   -1.0707   -0.9424 H   0  0  0  0  0  0  0  0  0  0  0  0
   -2.1979   -2.1292   -1.8591 H   0  0  0  0  0  0  0  0  0  0  0  0
   -2.0608   -0.3500   -1.8853 H   0  0  0  0  0  0  0  0  0  0  0  0
    3.1880   -2.6097    1.3093 H   0  0  0  0  0  0  0  0  0  0  0  0
    2.1111   -2.7980    2.7440 H   0  0  0  0  0  0  0  0  0  0  0  0
    1.1336   -4.8698    1.7461 H   0  0  0  0  0  0  0  0  0  0  0  0
    2.2091   -4.6759    0.2961 H   0  0  0  0  0  0  0  0  0  0  0  0
    2.9232   -4.9900    1.9210 H   0  0  0  0  0  0  0  0  0  0  0  0
   -0.5519    4.0209    0.5120 H   0  0  0  0  0  0  0  0  0  0  0  0
    3.0852    2.4856    2.9491 H   0  0  0  0  0  0  0  0  0  0  0  0
  1  2  1  0
  2  3  1  0
  3  4  1  0
  4  5  1  0
  5  6  1  0
  6  7  1  0
  5  8  2  0
  8  9  1  0
  9 10  1  0
 10 11  2  0
 10 12  1  0
 12 13  2  0
 13 14  1  0
 14 15  1  0
 15 16  2  0
 16 17  1  0
 17 18  2  0
  9  3  2  0
 16 12  1  0
 17  8  1  0
  1 19  1  0
  1 20  1  0
  1 21  1  0
  2 22  1  0
  2 23  1  0
  6 24  1  0
  6 25  1  0
  7 26  1  0
  7 27  1  0
  7 28  1  0
 13 29  1  0
 15 30  1  0
M  END

