
     RDKit          3D

 45 52  0  0  0  0  0  0  0  0999 V2000
   -2.6570    0.4010    1.2863 C   0  0  0  0  0  0  0  0  0  0  0  0
   -1.9351   -0.3888    0.2133 C   0  0  0  0  0  0  0  0  0  0  0  0
   -1.1101   -1.3728    0.8502 N   0  0  0  0  0  0  0  0  0  0  0  0
   -1.6608   -2.5908    1.2447 C   0  0  0  0  0  0  0  0  0  0  0  0
   -0.6151   -3.3141    1.7470 C   0  0  0  0  0  0  0  0  0  0  0  0
   -1.3438   -4.8030    2.2319 S   0  0  0  0  0  0  0  0  0  0  0  0
   -3.0226   -4.3911    1.7411 C   0  0  0  0  0  0  0  0  0  0  0  0
   -4.1667   -5.0775    1.8161 C   0  0  0  0  0  0  0  0  0  0  0  0
   -5.3525   -4.6067    1.3994 C   0  0  0  0  0  0  0  0  0  0  0  0
   -4.7684   -2.7977    0.7511 Se  0  0  0  0  0  2  0  0  0  0  0  0
   -2.7717   -3.2404    1.3063 C   0  0  0  0  0  0  0  0  0  0  0  0
    0.5526   -2.6031    1.6825 C   0  0  0  0  0  0  0  0  0  0  0  0
    1.8534   -2.9585    2.0687 C   0  0  0  0  0  0  0  0  0  0  0  0
    2.2090   -4.1262    2.6158 N   0  0  0  0  0  0  0  0  0  0  0  0
    3.8597   -3.9856    2.8593 S   0  0  0  0  0  0  0  0  0  0  0  0
    4.0661   -2.4385    2.2582 N   0  0  0  0  0  0  0  0  0  0  0  0
    2.8433   -2.0580    1.8777 C   0  0  0  0  0  0  0  0  0  0  0  0
    2.4733   -0.8438    1.3103 C   0  0  0  0  0  0  0  0  0  0  0  0
    3.2667    0.2520    1.0179 C   0  0  0  0  0  0  0  0  0  0  0  0
    4.8543    0.8567    1.0530 S   0  0  0  0  0  0  0  0  0  0  0  0
    4.5267    2.4566    0.3451 C   0  0  0  0  0  0  0  0  0  0  0  0
    5.2603    3.5480    0.0288 C   0  0  0  0  0  0  0  0  0  0  0  0
    4.8082    4.6544   -0.5026 C   0  0  0  0  0  0  0  0  0  0  0  0
    2.8592    4.1289   -0.6319 Se  0  0  0  0  0  2  0  0  0  0  0  0
    3.2468    2.3818    0.1497 C   0  0  0  0  0  0  0  0  0  0  0  0
    2.5387    1.2567    0.4818 C   0  0  0  0  0  0  0  0  0  0  0  0
    1.2361    0.7827    0.4321 N   0  0  0  0  0  0  0  0  0  0  0  0
    0.1787    1.6210   -0.0309 C   0  0  0  0  0  0  0  0  0  0  0  0
    0.1252    1.5691   -1.5479 C   0  0  0  0  0  0  0  0  0  0  0  0
    1.2074   -0.4595    0.9214 C   0  0  0  0  0  0  0  0  0  0  0  0
    0.1960   -1.3867    1.1139 C   0  0  0  0  0  0  0  0  0  0  0  0
   -3.5264   -0.1443    1.7219 H   0  0  0  0  0  0  0  0  0  0  0  0
   -1.9783    0.5824    2.1712 H   0  0  0  0  0  0  0  0  0  0  0  0
   -3.0320    1.3690    0.9627 H   0  0  0  0  0  0  0  0  0  0  0  0
   -2.8592   -0.9832   -0.2409 H   0  0  0  0  0  0  0  0  0  0  0  0
   -1.6506    0.0684   -0.6904 H   0  0  0  0  0  0  0  0  0  0  0  0
   -4.2450   -6.1444    2.2494 H   0  0  0  0  0  0  0  0  0  0  0  0
   -6.3636   -4.8868    1.3290 H   0  0  0  0  0  0  0  0  0  0  0  0
    6.3979    3.5188    0.2402 H   0  0  0  0  0  0  0  0  0  0  0  0
    5.0935    5.6177   -0.8455 H   0  0  0  0  0  0  0  0  0  0  0  0
   -0.7145    1.7490    0.5213 H   0  0  0  0  0  0  0  0  0  0  0  0
    0.5587    2.7357    0.1086 H   0  0  0  0  0  0  0  0  0  0  0  0
   -0.8348    1.9335   -1.9550 H   0  0  0  0  0  0  0  0  0  0  0  0
    0.3120    0.5480   -1.9418 H   0  0  0  0  0  0  0  0  0  0  0  0
    0.9130    2.1973   -2.0008 H   0  0  0  0  0  0  0  0  0  0  0  0
  1  2  1  0
  2  3  1  0
  3  4  1  0
  4  5  2  0
  5  6  1  0
  6  7  1  0
  7  8  1  0
  8  9  2  0
  9 10  1  0
 10 11  1  0
  5 12  1  0
 12 13  1  0
 13 14  2  0
 14 15  1  0
 15 16  1  0
 16 17  2  0
 17 18  1  0
 18 19  1  0
 19 20  1  0
 20 21  1  0
 21 22  1  0
 22 23  2  0
 23 24  1  0
 24 25  1  0
 25 26  1  0
 26 27  1  0
 27 28  1  0
 28 29  1  0
 27 30  1  0
 30 31  1  0
 31  3  1  0
 11  4  1  0
 31 12  2  0
 11  7  2  0
 17 13  1  0
 30 18  2  0
 26 19  2  0
 25 21  2  0
  1 32  1  0
  1 33  1  0
  1 34  1  0
  2 35  1  0
  2 36  1  0
  8 37  1  0
  9 38  1  0
 22 39  1  0
 23 40  1  0
 28 41  1  0
 28 42  1  0
 29 43  1  0
 29 44  1  0
 29 45  1  0
M  END

