
     RDKit          3D

 45 52  0  0  0  0  0  0  0  0999 V2000
    2.5565   -1.7206    2.8587 C   0  0  0  0  0  0  0  0  0  0  0  0
    2.1871   -1.5114    1.3876 C   0  0  0  0  0  0  0  0  0  0  0  0
    1.8328   -0.1145    1.1112 N   0  0  0  0  0  0  0  0  0  0  0  0
    2.7394    0.8786    0.9095 C   0  0  0  0  0  0  0  0  0  0  0  0
    4.1308    0.9156    0.9478 C   0  0  0  0  0  0  0  0  0  0  0  0
    5.3761   -0.0797    1.4683 S   0  0  0  0  0  0  0  0  0  0  0  0
    6.6085    0.9085    0.8308 C   0  0  0  0  0  0  0  0  0  0  0  0
    6.0424    2.0070    0.1749 C   0  0  0  0  0  0  0  0  0  0  0  0
    4.6555    1.9803    0.2607 C   0  0  0  0  0  0  0  0  0  0  0  0
    3.4442    2.8955   -0.5026 S   0  0  0  0  0  0  0  0  0  0  0  0
    2.2391    1.9001    0.1620 C   0  0  0  0  0  0  0  0  0  0  0  0
    0.9662    1.5547   -0.1873 C   0  0  0  0  0  0  0  0  0  0  0  0
    0.1409    2.0519   -1.2030 C   0  0  0  0  0  0  0  0  0  0  0  0
    0.3868    3.1900   -1.8975 N   0  0  0  0  0  0  0  0  0  0  0  0
   -0.9251    3.1892   -2.9094 S   0  0  0  0  0  0  0  0  0  0  0  0
   -1.8010    1.8317   -2.5465 N   0  0  0  0  0  0  0  0  0  0  0  0
   -1.0250    1.3158   -1.5612 C   0  0  0  0  0  0  0  0  0  0  0  0
   -1.3086    0.1299   -0.8752 C   0  0  0  0  0  0  0  0  0  0  0  0
   -2.4387   -0.6342   -0.8546 C   0  0  0  0  0  0  0  0  0  0  0  0
   -4.0235   -0.4855   -1.4487 S   0  0  0  0  0  0  0  0  0  0  0  0
   -4.5909   -1.5710   -0.2683 C   0  0  0  0  0  0  0  0  0  0  0  0
   -5.8675   -1.9931    0.0860 C   0  0  0  0  0  0  0  0  0  0  0  0
   -5.8373   -2.7565    1.2582 C   0  0  0  0  0  0  0  0  0  0  0  0
   -4.2376   -2.8642    1.8381 S   0  0  0  0  0  0  0  0  0  0  0  0
   -3.5884   -1.9731    0.5755 C   0  0  0  0  0  0  0  0  0  0  0  0
   -2.3468   -1.4513    0.2274 C   0  0  0  0  0  0  0  0  0  0  0  0
   -1.1856   -1.2860    0.9156 N   0  0  0  0  0  0  0  0  0  0  0  0
   -1.0597   -1.5346    2.3571 C   0  0  0  0  0  0  0  0  0  0  0  0
   -0.8821   -3.0242    2.6669 C   0  0  0  0  0  0  0  0  0  0  0  0
   -0.5109   -0.3390    0.1818 C   0  0  0  0  0  0  0  0  0  0  0  0
    0.7052    0.3404    0.4692 C   0  0  0  0  0  0  0  0  0  0  0  0
    3.4867   -1.1800    3.1162 H   0  0  0  0  0  0  0  0  0  0  0  0
    1.7618   -1.3552    3.5387 H   0  0  0  0  0  0  0  0  0  0  0  0
    2.7165   -2.8046    3.0511 H   0  0  0  0  0  0  0  0  0  0  0  0
    3.0471   -1.8095    0.7511 H   0  0  0  0  0  0  0  0  0  0  0  0
    1.3609   -2.1832    1.0956 H   0  0  0  0  0  0  0  0  0  0  0  0
    7.6672    0.6988    0.8874 H   0  0  0  0  0  0  0  0  0  0  0  0
    6.6077    2.7534   -0.3661 H   0  0  0  0  0  0  0  0  0  0  0  0
   -6.7696   -1.7333   -0.4515 H   0  0  0  0  0  0  0  0  0  0  0  0
   -6.7045   -3.1853    1.7412 H   0  0  0  0  0  0  0  0  0  0  0  0
   -1.9771   -1.1691    2.8679 H   0  0  0  0  0  0  0  0  0  0  0  0
   -0.2342   -0.9430    2.7859 H   0  0  0  0  0  0  0  0  0  0  0  0
    0.1672   -3.3450    2.5414 H   0  0  0  0  0  0  0  0  0  0  0  0
   -1.1693   -3.2179    3.7215 H   0  0  0  0  0  0  0  0  0  0  0  0
   -1.5143   -3.6497    2.0069 H   0  0  0  0  0  0  0  0  0  0  0  0
  1  2  1  0
  2  3  1  0
  3  4  1  0
  4  5  1  0
  5  6  1  0
  6  7  1  0
  7  8  2  0
  8  9  1  0
  9 10  1  0
 10 11  1  0
 11 12  1  0
 12 13  1  0
 13 14  2  0
 14 15  1  0
 15 16  1  0
 16 17  2  0
 17 18  1  0
 18 19  1  0
 19 20  1  0
 20 21  1  0
 21 22  1  0
 22 23  2  0
 23 24  1  0
 24 25  1  0
 25 26  1  0
 26 27  1  0
 27 28  1  0
 28 29  1  0
 27 30  1  0
 30 31  1  0
 31  3  1  0
 11  4  2  0
 31 12  2  0
  9  5  2  0
 17 13  1  0
 30 18  2  0
 26 19  2  0
 25 21  2  0
  1 32  1  0
  1 33  1  0
  1 34  1  0
  2 35  1  0
  2 36  1  0
  7 37  1  0
  8 38  1  0
 22 39  1  0
 23 40  1  0
 28 41  1  0
 28 42  1  0
 29 43  1  0
 29 44  1  0
 29 45  1  0
M  END

