
     RDKit          3D

 20 21  0  0  0  0  0  0  0  0999 V2000
    1.0495    2.6440    2.4571 C   0  0  0  0  0  0  0  0  0  0  0  0
    2.0747    1.6062    2.0197 C   0  0  0  0  0  0  0  0  0  0  0  0
    1.4288    0.5632    1.2326 N   0  0  0  0  0  0  0  0  0  0  0  0
    0.8820   -0.5264    1.7692 N   0  0  0  0  0  0  0  0  0  0  0  0
    0.3575   -1.1892    0.7278 C   0  0  0  0  0  0  0  0  0  0  0  0
   -0.3338   -2.3967    0.7176 C   0  0  0  0  0  0  0  0  0  0  0  0
   -0.7891   -2.8699   -0.5293 C   0  0  0  0  0  0  0  0  0  0  0  0
   -0.5439   -2.1295   -1.7116 C   0  0  0  0  0  0  0  0  0  0  0  0
    0.1588   -0.9090   -1.6575 C   0  0  0  0  0  0  0  0  0  0  0  0
    0.5931   -0.4778   -0.4079 C   0  0  0  0  0  0  0  0  0  0  0  0
    1.2671    0.6366   -0.0876 N   0  0  0  0  0  0  0  0  0  0  0  0
    1.5496    3.4341    3.0558 H   0  0  0  0  0  0  0  0  0  0  0  0
    0.5770    3.1121    1.5676 H   0  0  0  0  0  0  0  0  0  0  0  0
    0.2635    2.1653    3.0791 H   0  0  0  0  0  0  0  0  0  0  0  0
    2.8655    2.0981    1.4130 H   0  0  0  0  0  0  0  0  0  0  0  0
    2.5537    1.1565    2.9163 H   0  0  0  0  0  0  0  0  0  0  0  0
   -0.5154   -2.9500    1.6298 H   0  0  0  0  0  0  0  0  0  0  0  0
   -1.3308   -3.8052   -0.5834 H   0  0  0  0  0  0  0  0  0  0  0  0
   -0.8995   -2.5026   -2.6631 H   0  0  0  0  0  0  0  0  0  0  0  0
    0.3518   -0.3309   -2.5518 H   0  0  0  0  0  0  0  0  0  0  0  0
  1  2  1  0
  2  3  1  0
  3  4  1  0
  4  5  2  0
  5  6  1  0
  6  7  2  0
  7  8  1  0
  8  9  2  0
  9 10  1  0
 10 11  2  0
 11  3  1  0
 10  5  1  0
  1 12  1  0
  1 13  1  0
  1 14  1  0
  2 15  1  0
  2 16  1  0
  6 17  1  0
  7 18  1  0
  8 19  1  0
  9 20  1  0
M  END

