
     RDKit          3D

 25 26  0  0  0  0  0  0  0  0999 V2000
    0.0262   -1.8268   -3.1770 C   0  0  0  0  0  0  0  0  0  0  0  0
    0.4120   -1.5613   -1.9308 C   0  0  0  0  0  0  0  0  0  0  0  0
    1.7643   -2.2073   -1.1805 S   0  0  0  0  0  0  0  0  0  0  0  0
    1.5184   -1.3914    0.2852 C   0  0  0  0  0  0  0  0  0  0  0  0
    2.3435   -1.5170    1.3542 C   0  0  0  0  0  0  0  0  0  0  0  0
    3.4997   -2.3775    1.2898 C   0  0  0  0  0  0  0  0  0  0  0  0
    4.4273   -3.0677    1.2387 N   0  0  0  0  0  0  0  0  0  0  0  0
    2.1456   -0.8250    2.6023 C   0  0  0  0  0  0  0  0  0  0  0  0
    1.9949   -0.2733    3.6088 N   0  0  0  0  0  0  0  0  0  0  0  0
    0.3889   -0.6170    0.1985 N   0  0  0  0  0  0  0  0  0  0  0  0
   -0.1530    0.2192    1.2322 C   0  0  0  0  0  0  0  0  0  0  0  0
    0.2266    1.5665    1.3183 C   0  0  0  0  0  0  0  0  0  0  0  0
   -0.3145    2.3840    2.3156 C   0  0  0  0  0  0  0  0  0  0  0  0
   -1.2413    1.8613    3.2232 C   0  0  0  0  0  0  0  0  0  0  0  0
   -1.6306    0.5211    3.1327 C   0  0  0  0  0  0  0  0  0  0  0  0
   -1.0913   -0.2989    2.1366 C   0  0  0  0  0  0  0  0  0  0  0  0
   -0.2166   -0.7141   -1.0242 C   0  0  0  0  0  0  0  0  0  0  0  0
   -1.2708   -0.0783   -1.3042 O   0  0  0  0  0  0  0  0  0  0  0  0
    0.5989   -2.5076   -3.7936 H   0  0  0  0  0  0  0  0  0  0  0  0
   -0.8622   -1.3696   -3.5942 H   0  0  0  0  0  0  0  0  0  0  0  0
    0.9425    1.9756    0.6167 H   0  0  0  0  0  0  0  0  0  0  0  0
   -0.0165    3.4222    2.3844 H   0  0  0  0  0  0  0  0  0  0  0  0
   -1.6593    2.4950    3.9946 H   0  0  0  0  0  0  0  0  0  0  0  0
   -2.3504    0.1185    3.8335 H   0  0  0  0  0  0  0  0  0  0  0  0
   -1.3966   -1.3354    2.0690 H   0  0  0  0  0  0  0  0  0  0  0  0
  1  2  2  3
  2  3  1  0
  3  4  1  0
  4  5  2  3
  5  6  1  0
  6  7  3  0
  5  8  1  0
  8  9  3  0
  4 10  1  0
 10 11  1  0
 11 12  2  0
 12 13  1  0
 13 14  2  0
 14 15  1  0
 15 16  2  0
 10 17  1  0
 17 18  2  0
 17  2  1  0
 16 11  1  0
  1 19  1  0
  1 20  1  0
 12 21  1  0
 13 22  1  0
 14 23  1  0
 15 24  1  0
 16 25  1  0
M  END

