
     RDKit          3D

112122  0  0  0  0  0  0  0  0999 V2000
    4.0986   -1.3959   -0.2619 C   0  0  0  0  0  0  0  0  0  0  0  0
    3.3273   -1.1937   -1.5602 C   0  0  0  0  0  0  0  0  0  0  0  0
    1.9642   -1.6172   -1.4615 O   0  0  0  0  0  0  0  0  0  0  0  0
    1.0331   -0.9360   -0.6742 C   0  0  0  0  0  0  0  0  0  0  0  0
    0.8859   -1.2489    0.6861 C   0  0  0  0  0  0  0  0  0  0  0  0
    1.5292   -2.6098    1.4739 S   0  0  0  0  0  0  0  0  0  0  0  0
    0.7284   -2.2495    2.8977 C   0  0  0  0  0  0  0  0  0  0  0  0
   -0.0769   -1.1442    2.8060 C   0  0  0  0  0  0  0  0  0  0  0  0
    0.0272   -0.5245    1.5423 C   0  0  0  0  0  0  0  0  0  0  0  0
   -0.6753    0.5918    1.0496 C   0  0  0  0  0  0  0  0  0  0  0  0
   -1.4009    1.4474    1.8817 O   0  0  0  0  0  0  0  0  0  0  0  0
   -0.8118    2.6163    2.4601 C   0  0  0  0  0  0  0  0  0  0  0  0
   -0.4465    3.6651    1.4180 C   0  0  0  0  0  0  0  0  0  0  0  0
   -0.6305    0.8182   -0.3340 C   0  0  0  0  0  0  0  0  0  0  0  0
   -1.6122    1.8992   -1.2011 S   0  0  0  0  0  0  0  0  0  0  0  0
   -0.9947    1.3834   -2.6669 C   0  0  0  0  0  0  0  0  0  0  0  0
   -0.0654    0.3839   -2.5526 C   0  0  0  0  0  0  0  0  0  0  0  0
    0.1851    0.0579   -1.2018 C   0  0  0  0  0  0  0  0  0  0  0  0
    0.3053   -0.1778   -3.9426 C   0  0  0  0  0  0  0  0  0  0  0  0
    1.7973    0.0211   -4.2437 C   0  0  0  0  0  0  0  0  0  0  0  0
    2.3580    1.3123   -4.1350 C   0  0  0  0  0  0  0  0  0  0  0  0
    3.6962    1.5459   -4.4604 C   0  0  0  0  0  0  0  0  0  0  0  0
    4.5144    0.4943   -4.8933 C   0  0  0  0  0  0  0  0  0  0  0  0
    5.9443    0.7502   -5.2858 C   0  0  0  0  0  0  0  0  0  0  0  0
    6.0537    1.0297   -6.7799 C   0  0  0  0  0  0  0  0  0  0  0  0
    3.9738   -0.7937   -5.0027 C   0  0  0  0  0  0  0  0  0  0  0  0
    2.6367   -1.0316   -4.6726 C   0  0  0  0  0  0  0  0  0  0  0  0
   -0.2354   -1.5997   -4.2046 C   0  0  0  0  0  0  0  0  0  0  0  0
   -0.1904   -2.1308   -5.5131 C   0  0  0  0  0  0  0  0  0  0  0  0
   -0.6836   -3.4061   -5.7944 C   0  0  0  0  0  0  0  0  0  0  0  0
   -1.2338   -4.1917   -4.7752 C   0  0  0  0  0  0  0  0  0  0  0  0
   -1.7930   -5.5547   -5.0817 C   0  0  0  0  0  0  0  0  0  0  0  0
   -3.2786   -5.4702   -5.4158 C   0  0  0  0  0  0  0  0  0  0  0  0
   -1.3195   -3.6688   -3.4799 C   0  0  0  0  0  0  0  0  0  0  0  0
   -0.8316   -2.3917   -3.1969 C   0  0  0  0  0  0  0  0  0  0  0  0
   -0.5162    0.7941   -4.7915 C   0  0  0  0  0  0  0  0  0  0  0  0
   -0.4812    1.1566   -6.1424 C   0  0  0  0  0  0  0  0  0  0  0  0
   -1.2712    2.2837   -6.3964 C   0  0  0  0  0  0  0  0  0  0  0  0
   -1.9446    2.8629   -4.9448 S   0  0  0  0  0  0  0  0  0  0  0  0
   -1.2883    1.6176   -4.0400 C   0  0  0  0  0  0  0  0  0  0  0  0
   -1.0257   -1.0561    4.0230 C   0  0  0  0  0  0  0  0  0  0  0  0
   -2.5058   -1.3345    3.6875 C   0  0  0  0  0  0  0  0  0  0  0  0
   -2.9463   -1.6568    2.3828 C   0  0  0  0  0  0  0  0  0  0  0  0
   -4.2879   -1.9504    2.1268 C   0  0  0  0  0  0  0  0  0  0  0  0
   -5.2243   -1.9618    3.1681 C   0  0  0  0  0  0  0  0  0  0  0  0
   -6.6765   -2.2402    2.8814 C   0  0  0  0  0  0  0  0  0  0  0  0
   -7.3893   -0.9720    2.4221 C   0  0  0  0  0  0  0  0  0  0  0  0
   -4.8007   -1.6727    4.4707 C   0  0  0  0  0  0  0  0  0  0  0  0
   -3.4596   -1.3821    4.7288 C   0  0  0  0  0  0  0  0  0  0  0  0
   -0.7549    0.2234    4.8297 C   0  0  0  0  0  0  0  0  0  0  0  0
    0.5493    0.4777    5.3083 C   0  0  0  0  0  0  0  0  0  0  0  0
    0.8379    1.6361    6.0335 C   0  0  0  0  0  0  0  0  0  0  0  0
   -0.1714    2.5654    6.3152 C   0  0  0  0  0  0  0  0  0  0  0  0
    0.1515    3.8497    7.0297 C   0  0  0  0  0  0  0  0  0  0  0  0
    0.4679    4.9565    6.0267 C   0  0  0  0  0  0  0  0  0  0  0  0
   -1.4687    2.3291    5.8465 C   0  0  0  0  0  0  0  0  0  0  0  0
   -1.7561    1.1825    5.1009 C   0  0  0  0  0  0  0  0  0  0  0  0
   -0.5045   -2.2673    4.7933 C   0  0  0  0  0  0  0  0  0  0  0  0
   -0.7776   -2.8211    6.0444 C   0  0  0  0  0  0  0  0  0  0  0  0
    0.0058   -3.9564    6.2867 C   0  0  0  0  0  0  0  0  0  0  0  0
    1.0419   -4.2502    4.9657 S   0  0  0  0  0  0  0  0  0  0  0  0
    0.4559   -2.9382    4.1144 C   0  0  0  0  0  0  0  0  0  0  0  0
    3.6840   -0.7536    0.5432 H   0  0  0  0  0  0  0  0  0  0  0  0
    5.1605   -1.1137   -0.4181 H   0  0  0  0  0  0  0  0  0  0  0  0
    4.0603   -2.4626    0.0422 H   0  0  0  0  0  0  0  0  0  0  0  0
    3.3725   -0.1219   -1.8469 H   0  0  0  0  0  0  0  0  0  0  0  0
    3.8273   -1.7978   -2.3450 H   0  0  0  0  0  0  0  0  0  0  0  0
    0.0958    2.3391    3.0360 H   0  0  0  0  0  0  0  0  0  0  0  0
   -1.5454    3.0748    3.1519 H   0  0  0  0  0  0  0  0  0  0  0  0
   -0.0405    4.5649    1.9276 H   0  0  0  0  0  0  0  0  0  0  0  0
   -1.3499    3.9619    0.8458 H   0  0  0  0  0  0  0  0  0  0  0  0
    0.3302    3.2731    0.7295 H   0  0  0  0  0  0  0  0  0  0  0  0
    1.7535    2.1488   -3.8083 H   0  0  0  0  0  0  0  0  0  0  0  0
    4.0942    2.5501   -4.3818 H   0  0  0  0  0  0  0  0  0  0  0  0
    6.3500    1.6160   -4.7204 H   0  0  0  0  0  0  0  0  0  0  0  0
    6.5729   -0.1311   -5.0295 H   0  0  0  0  0  0  0  0  0  0  0  0
    5.6755    0.1623   -7.3623 H   0  0  0  0  0  0  0  0  0  0  0  0
    5.4658    1.9350   -7.0435 H   0  0  0  0  0  0  0  0  0  0  0  0
    7.1168    1.2038   -7.0488 H   0  0  0  0  0  0  0  0  0  0  0  0
    4.5911   -1.6209   -5.3347 H   0  0  0  0  0  0  0  0  0  0  0  0
    2.2829   -2.0496   -4.7319 H   0  0  0  0  0  0  0  0  0  0  0  0
    0.2490   -1.5655   -6.3213 H   0  0  0  0  0  0  0  0  0  0  0  0
   -0.6319   -3.7837   -6.8080 H   0  0  0  0  0  0  0  0  0  0  0  0
   -1.2513   -6.0081   -5.9387 H   0  0  0  0  0  0  0  0  0  0  0  0
   -1.6521   -6.2301   -4.2101 H   0  0  0  0  0  0  0  0  0  0  0  0
   -3.4361   -4.8236   -6.3060 H   0  0  0  0  0  0  0  0  0  0  0  0
   -3.8444   -5.0537   -4.5540 H   0  0  0  0  0  0  0  0  0  0  0  0
   -3.6675   -6.4879   -5.6385 H   0  0  0  0  0  0  0  0  0  0  0  0
   -1.7707   -4.2514   -2.6859 H   0  0  0  0  0  0  0  0  0  0  0  0
   -0.9553   -2.0367   -2.1892 H   0  0  0  0  0  0  0  0  0  0  0  0
    0.1286    0.6749   -6.8938 H   0  0  0  0  0  0  0  0  0  0  0  0
   -1.3810    2.7569   -7.3632 H   0  0  0  0  0  0  0  0  0  0  0  0
   -2.2683   -1.7104    1.5479 H   0  0  0  0  0  0  0  0  0  0  0  0
   -4.5975   -2.1768    1.1133 H   0  0  0  0  0  0  0  0  0  0  0  0
   -7.1819   -2.6334    3.7909 H   0  0  0  0  0  0  0  0  0  0  0  0
   -6.7641   -3.0176    2.0909 H   0  0  0  0  0  0  0  0  0  0  0  0
   -6.9278   -0.5908    1.4868 H   0  0  0  0  0  0  0  0  0  0  0  0
   -8.4601   -1.1943    2.2233 H   0  0  0  0  0  0  0  0  0  0  0  0
   -7.3295   -0.1907    3.2094 H   0  0  0  0  0  0  0  0  0  0  0  0
   -5.5097   -1.6697    5.2899 H   0  0  0  0  0  0  0  0  0  0  0  0
   -3.1699   -1.1672    5.7486 H   0  0  0  0  0  0  0  0  0  0  0  0
    1.3544   -0.2168    5.1065 H   0  0  0  0  0  0  0  0  0  0  0  0
    1.8523    1.8140    6.3654 H   0  0  0  0  0  0  0  0  0  0  0  0
   -0.7109    4.1605    7.6593 H   0  0  0  0  0  0  0  0  0  0  0  0
    1.0236    3.7079    7.7053 H   0  0  0  0  0  0  0  0  0  0  0  0
   -0.4139    5.1502    5.3793 H   0  0  0  0  0  0  0  0  0  0  0  0
    0.7233    5.8908    6.5682 H   0  0  0  0  0  0  0  0  0  0  0  0
    1.3312    4.6671    5.3909 H   0  0  0  0  0  0  0  0  0  0  0  0
   -2.2529    3.0549    6.0227 H   0  0  0  0  0  0  0  0  0  0  0  0
   -2.7539    1.0873    4.7013 H   0  0  0  0  0  0  0  0  0  0  0  0
   -1.4912   -2.4236    6.7508 H   0  0  0  0  0  0  0  0  0  0  0  0
   -0.0338   -4.5531    7.1881 H   0  0  0  0  0  0  0  0  0  0  0  0
  1  2  1  0
  2  3  1  0
  3  4  1  0
  4  5  2  0
  5  6  1  0
  6  7  1  0
  7  8  2  0
  8  9  1  0
  9 10  2  0
 10 11  1  0
 11 12  1  0
 12 13  1  0
 10 14  1  0
 14 15  1  0
 15 16  1  0
 16 17  2  0
 17 18  1  0
 17 19  1  0
 19 20  1  0
 20 21  2  0
 21 22  1  0
 22 23  2  0
 23 24  1  0
 24 25  1  0
 23 26  1  0
 26 27  2  0
 19 28  1  0
 28 29  2  0
 29 30  1  0
 30 31  2  0
 31 32  1  0
 32 33  1  0
 31 34  1  0
 34 35  2  0
 19 36  1  0
 36 37  1  0
 37 38  2  0
 38 39  1  0
 39 40  1  0
  8 41  1  0
 41 42  1  0
 42 43  2  0
 43 44  1  0
 44 45  2  0
 45 46  1  0
 46 47  1  0
 45 48  1  0
 48 49  2  0
 41 50  1  0
 50 51  2  0
 51 52  1  0
 52 53  2  0
 53 54  1  0
 54 55  1  0
 53 56  1  0
 56 57  2  0
 41 58  1  0
 58 59  1  0
 59 60  2  0
 60 61  1  0
 61 62  1  0
 18  4  1  0
 27 20  1  0
 35 28  1  0
 40 36  2  0
 49 42  1  0
 57 50  1  0
 62 58  2  0
  9  5  1  0
 18 14  2  0
 62  7  1  0
 40 16  1  0
  1 63  1  0
  1 64  1  0
  1 65  1  0
  2 66  1  0
  2 67  1  0
 12 68  1  0
 12 69  1  0
 13 70  1  0
 13 71  1  0
 13 72  1  0
 21 73  1  0
 22 74  1  0
 24 75  1  0
 24 76  1  0
 25 77  1  0
 25 78  1  0
 25 79  1  0
 26 80  1  0
 27 81  1  0
 29 82  1  0
 30 83  1  0
 32 84  1  0
 32 85  1  0
 33 86  1  0
 33 87  1  0
 33 88  1  0
 34 89  1  0
 35 90  1  0
 37 91  1  0
 38 92  1  0
 43 93  1  0
 44 94  1  0
 46 95  1  0
 46 96  1  0
 47 97  1  0
 47 98  1  0
 47 99  1  0
 48100  1  0
 49101  1  0
 51102  1  0
 52103  1  0
 54104  1  0
 54105  1  0
 55106  1  0
 55107  1  0
 55108  1  0
 56109  1  0
 57110  1  0
 59111  1  0
 60112  1  0
M  END

