
     RDKit          3D

 44 48  0  0  0  0  0  0  0  0999 V2000
   -0.8344   -5.5510   -4.4464 C   0  0  0  0  0  0  0  0  0  0  0  0
   -1.9180   -5.2509   -3.4173 C   0  0  0  0  0  0  0  0  0  0  0  0
   -1.6915   -3.9125   -2.7876 C   0  0  0  0  0  0  0  0  0  0  0  0
   -2.1448   -2.6950   -3.2817 C   0  0  0  0  0  0  0  0  0  0  0  0
   -1.7234   -1.5991   -2.5199 C   0  0  0  0  0  0  0  0  0  0  0  0
   -0.9209   -1.9550   -1.4403 C   0  0  0  0  0  0  0  0  0  0  0  0
   -0.3505   -1.0256   -0.4450 C   0  0  0  0  0  0  0  0  0  0  0  0
    1.0278   -1.0001   -0.1425 C   0  0  0  0  0  0  0  0  0  0  0  0
    2.0316   -1.7820   -0.7413 C   0  0  0  0  0  0  0  0  0  0  0  0
    3.3006   -1.5385   -0.2260 C   0  0  0  0  0  0  0  0  0  0  0  0
    3.1887   -0.3470    0.9601 S   0  0  0  0  0  0  0  0  0  0  0  0
    1.5263   -0.1212    0.8259 C   0  0  0  0  0  0  0  0  0  0  0  0
    0.7050    0.7667    1.5449 C   0  0  0  0  0  0  0  0  0  0  0  0
    1.2654    1.6564    2.5814 C   0  0  0  0  0  0  0  0  0  0  0  0
    2.3356    2.5298    2.4135 C   0  0  0  0  0  0  0  0  0  0  0  0
    2.6838    3.2109    3.5855 C   0  0  0  0  0  0  0  0  0  0  0  0
    1.8838    2.8766    4.6718 C   0  0  0  0  0  0  0  0  0  0  0  0
    2.0549    3.3790    6.0709 C   0  0  0  0  0  0  0  0  0  0  0  0
    3.0448    2.5097    6.8375 C   0  0  0  0  0  0  0  0  0  0  0  0
    0.7653    1.7167    4.1888 S   0  0  0  0  0  0  0  0  0  0  0  0
   -0.6715    0.7489    1.2344 C   0  0  0  0  0  0  0  0  0  0  0  0
   -1.6683    1.5633    1.8004 C   0  0  0  0  0  0  0  0  0  0  0  0
   -2.9397    1.3089    1.2962 C   0  0  0  0  0  0  0  0  0  0  0  0
   -2.8342    0.0872    0.1405 S   0  0  0  0  0  0  0  0  0  0  0  0
   -1.1693   -0.1262    0.2623 C   0  0  0  0  0  0  0  0  0  0  0  0
   -0.7472   -3.6306   -1.4243 S   0  0  0  0  0  0  0  0  0  0  0  0
   -1.0184   -6.5477   -4.8997 H   0  0  0  0  0  0  0  0  0  0  0  0
   -0.8454   -4.7860   -5.2521 H   0  0  0  0  0  0  0  0  0  0  0  0
    0.1656   -5.5593   -3.9621 H   0  0  0  0  0  0  0  0  0  0  0  0
   -2.9131   -5.2682   -3.9117 H   0  0  0  0  0  0  0  0  0  0  0  0
   -1.9084   -6.0361   -2.6314 H   0  0  0  0  0  0  0  0  0  0  0  0
   -2.7573   -2.6000   -4.1687 H   0  0  0  0  0  0  0  0  0  0  0  0
   -1.9860   -0.5771   -2.7598 H   0  0  0  0  0  0  0  0  0  0  0  0
    1.8577   -2.4982   -1.5319 H   0  0  0  0  0  0  0  0  0  0  0  0
    4.2105   -2.0305   -0.5417 H   0  0  0  0  0  0  0  0  0  0  0  0
    2.8526    2.6701    1.4732 H   0  0  0  0  0  0  0  0  0  0  0  0
    3.5009    3.9184    3.6395 H   0  0  0  0  0  0  0  0  0  0  0  0
    1.0733    3.3672    6.5911 H   0  0  0  0  0  0  0  0  0  0  0  0
    2.4224    4.4275    6.0493 H   0  0  0  0  0  0  0  0  0  0  0  0
    2.6796    1.4615    6.8871 H   0  0  0  0  0  0  0  0  0  0  0  0
    4.0390    2.5287    6.3417 H   0  0  0  0  0  0  0  0  0  0  0  0
    3.1559    2.8970    7.8721 H   0  0  0  0  0  0  0  0  0  0  0  0
   -1.4847    2.3240    2.5460 H   0  0  0  0  0  0  0  0  0  0  0  0
   -3.8460    1.8181    1.5946 H   0  0  0  0  0  0  0  0  0  0  0  0
  1  2  1  0
  2  3  1  0
  3  4  2  0
  4  5  1  0
  5  6  2  0
  6  7  1  0
  7  8  2  0
  8  9  1  0
  9 10  2  0
 10 11  1  0
 11 12  1  0
 12 13  2  0
 13 14  1  0
 14 15  2  0
 15 16  1  0
 16 17  2  0
 17 18  1  0
 18 19  1  0
 17 20  1  0
 13 21  1  0
 21 22  1  0
 22 23  2  0
 23 24  1  0
 24 25  1  0
  6 26  1  0
 26  3  1  0
 25  7  1  0
 12  8  1  0
 20 14  1  0
 25 21  2  0
  1 27  1  0
  1 28  1  0
  1 29  1  0
  2 30  1  0
  2 31  1  0
  4 32  1  0
  5 33  1  0
  9 34  1  0
 10 35  1  0
 15 36  1  0
 16 37  1  0
 18 38  1  0
 18 39  1  0
 19 40  1  0
 19 41  1  0
 19 42  1  0
 22 43  1  0
 23 44  1  0
M  END

