
     RDKit          3D

 46 50  0  0  0  0  0  0  0  0999 V2000
    3.8951   -5.3910    5.5735 C   0  0  0  0  0  0  0  0  0  0  0  0
    2.8470   -6.1367    4.7568 C   0  0  0  0  0  0  0  0  0  0  0  0
    3.3979   -6.3634    3.0296 S   0  0  0  0  0  0  0  0  0  0  0  0
    2.9321   -4.7174    2.4989 C   0  0  0  0  0  0  0  0  0  0  0  0
    3.7698   -3.6128    2.4571 C   0  0  0  0  0  0  0  0  0  0  0  0
    3.1320   -2.4609    1.9833 C   0  0  0  0  0  0  0  0  0  0  0  0
    1.7980   -2.6696    1.6452 C   0  0  0  0  0  0  0  0  0  0  0  0
    0.8708   -1.6475    1.1195 C   0  0  0  0  0  0  0  0  0  0  0  0
    1.1780   -0.8716   -0.0187 C   0  0  0  0  0  0  0  0  0  0  0  0
    2.3327   -0.9762   -0.8153 C   0  0  0  0  0  0  0  0  0  0  0  0
    2.3567   -0.0713   -1.8711 C   0  0  0  0  0  0  0  0  0  0  0  0
    0.9496    0.8541   -1.8284 S   0  0  0  0  0  0  0  0  0  0  0  0
    0.2865    0.1066   -0.4740 C   0  0  0  0  0  0  0  0  0  0  0  0
   -0.9384    0.3786    0.1636 C   0  0  0  0  0  0  0  0  0  0  0  0
   -1.8429    1.4353   -0.3343 C   0  0  0  0  0  0  0  0  0  0  0  0
   -2.3607    2.4871    0.4175 C   0  0  0  0  0  0  0  0  0  0  0  0
   -3.1846    3.3428   -0.3219 C   0  0  0  0  0  0  0  0  0  0  0  0
   -3.3010    2.9679   -1.6521 C   0  0  0  0  0  0  0  0  0  0  0  0
   -4.2783    3.8131   -2.8931 S   0  0  0  0  0  0  0  0  0  0  0  0
   -2.9990    5.0561   -3.2914 C   0  0  0  0  0  0  0  0  0  0  0  0
   -1.9368    4.4791   -4.2188 C   0  0  0  0  0  0  0  0  0  0  0  0
   -2.4048    1.5727   -1.9167 S   0  0  0  0  0  0  0  0  0  0  0  0
   -1.2485   -0.4021    1.2988 C   0  0  0  0  0  0  0  0  0  0  0  0
   -2.4167   -0.3214    2.0776 C   0  0  0  0  0  0  0  0  0  0  0  0
   -2.4323   -1.2165    3.1430 C   0  0  0  0  0  0  0  0  0  0  0  0
   -1.0089   -2.1175    3.1186 S   0  0  0  0  0  0  0  0  0  0  0  0
   -0.3605   -1.3866    1.7486 C   0  0  0  0  0  0  0  0  0  0  0  0
    1.4090   -4.2830    1.9391 S   0  0  0  0  0  0  0  0  0  0  0  0
    4.8723   -5.9163    5.5141 H   0  0  0  0  0  0  0  0  0  0  0  0
    4.0131   -4.3520    5.2010 H   0  0  0  0  0  0  0  0  0  0  0  0
    3.5765   -5.3485    6.6367 H   0  0  0  0  0  0  0  0  0  0  0  0
    2.6941   -7.1416    5.2031 H   0  0  0  0  0  0  0  0  0  0  0  0
    1.8773   -5.5954    4.7938 H   0  0  0  0  0  0  0  0  0  0  0  0
    4.8070   -3.6375    2.7629 H   0  0  0  0  0  0  0  0  0  0  0  0
    3.6292   -1.5040    1.8951 H   0  0  0  0  0  0  0  0  0  0  0  0
    3.1272   -1.6908   -0.6475 H   0  0  0  0  0  0  0  0  0  0  0  0
    3.1469    0.0175   -2.6041 H   0  0  0  0  0  0  0  0  0  0  0  0
   -2.1453    2.6374    1.4670 H   0  0  0  0  0  0  0  0  0  0  0  0
   -3.6689    4.2146    0.0987 H   0  0  0  0  0  0  0  0  0  0  0  0
   -2.5261    5.4431   -2.3629 H   0  0  0  0  0  0  0  0  0  0  0  0
   -3.4949    5.9078   -3.8025 H   0  0  0  0  0  0  0  0  0  0  0  0
   -1.2355    5.2846   -4.5234 H   0  0  0  0  0  0  0  0  0  0  0  0
   -1.3562    3.6886   -3.7015 H   0  0  0  0  0  0  0  0  0  0  0  0
   -2.4100    4.0535   -5.1290 H   0  0  0  0  0  0  0  0  0  0  0  0
   -3.2346    0.3574    1.8817 H   0  0  0  0  0  0  0  0  0  0  0  0
   -3.2254   -1.3129    3.8698 H   0  0  0  0  0  0  0  0  0  0  0  0
  1  2  1  0
  2  3  1  0
  3  4  1  0
  4  5  2  0
  5  6  1  0
  6  7  2  0
  7  8  1  0
  8  9  2  0
  9 10  1  0
 10 11  2  0
 11 12  1  0
 12 13  1  0
 13 14  2  0
 14 15  1  0
 15 16  2  0
 16 17  1  0
 17 18  2  0
 18 19  1  0
 19 20  1  0
 20 21  1  0
 18 22  1  0
 14 23  1  0
 23 24  1  0
 24 25  2  0
 25 26  1  0
 26 27  1  0
  7 28  1  0
 28  4  1  0
 27  8  1  0
 13  9  1  0
 22 15  1  0
 27 23  2  0
  1 29  1  0
  1 30  1  0
  1 31  1  0
  2 32  1  0
  2 33  1  0
  5 34  1  0
  6 35  1  0
 10 36  1  0
 11 37  1  0
 16 38  1  0
 17 39  1  0
 20 40  1  0
 20 41  1  0
 21 42  1  0
 21 43  1  0
 21 44  1  0
 24 45  1  0
 25 46  1  0
M  END

