
     RDKit          3D

 28 29  0  0  0  0  0  0  0  0999 V2000
   -3.1853   -2.9622    1.9602 C   0  0  0  0  0  0  0  0  0  0  0  0
   -2.1444   -2.3093    1.4341 C   0  0  0  0  0  0  0  0  0  0  0  0
   -0.7562   -2.6871    1.6794 C   0  0  0  0  0  0  0  0  0  0  0  0
   -0.3628   -3.7393    2.2507 O   0  0  0  0  0  0  0  0  0  0  0  0
    0.0949   -1.6192    1.2030 C   0  0  0  0  0  0  0  0  0  0  0  0
    1.4818   -1.5171    1.3049 C   0  0  0  0  0  0  0  0  0  0  0  0
    2.1134   -0.3469    0.8388 C   0  0  0  0  0  0  0  0  0  0  0  0
    3.5829   -0.1995    0.9251 C   0  0  0  0  0  0  0  0  0  0  0  0
    4.2853   -1.1290    1.4112 O   0  0  0  0  0  0  0  0  0  0  0  0
    4.1942    0.9723    0.4658 O   0  0  0  0  0  0  0  0  0  0  0  0
    5.6009    1.1767    0.5198 C   0  0  0  0  0  0  0  0  0  0  0  0
    1.3235    0.6947    0.3025 C   0  0  0  0  0  0  0  0  0  0  0  0
   -0.0724    0.5710    0.2166 C   0  0  0  0  0  0  0  0  0  0  0  0
   -0.6842   -0.6142    0.6532 C   0  0  0  0  0  0  0  0  0  0  0  0
   -2.1237   -1.0151    0.6860 C   0  0  0  0  0  0  0  0  0  0  0  0
   -3.1550   -0.4327    0.0196 C   0  0  0  0  0  0  0  0  0  0  0  0
   -4.4671   -1.0218   -0.0438 C   0  0  0  0  0  0  0  0  0  0  0  0
   -5.5256   -1.4866   -0.1066 N   0  0  0  0  0  0  0  0  0  0  0  0
   -2.9963    0.7589   -0.7714 C   0  0  0  0  0  0  0  0  0  0  0  0
   -2.8874    1.7153   -1.4147 N   0  0  0  0  0  0  0  0  0  0  0  0
   -3.0272   -3.8690    2.5302 H   0  0  0  0  0  0  0  0  0  0  0  0
   -4.1958   -2.5978    1.8968 H   0  0  0  0  0  0  0  0  0  0  0  0
    2.0506   -2.3260    1.7464 H   0  0  0  0  0  0  0  0  0  0  0  0
    5.9508    1.1361    1.5731 H   0  0  0  0  0  0  0  0  0  0  0  0
    6.1213    0.3996   -0.0792 H   0  0  0  0  0  0  0  0  0  0  0  0
    5.8405    2.1749    0.0996 H   0  0  0  0  0  0  0  0  0  0  0  0
    1.7838    1.6125   -0.0414 H   0  0  0  0  0  0  0  0  0  0  0  0
   -0.6351    1.4080   -0.1574 H   0  0  0  0  0  0  0  0  0  0  0  0
  1  2  2  3
  2  3  1  0
  3  4  2  0
  3  5  1  0
  5  6  2  0
  6  7  1  0
  7  8  1  0
  8  9  2  0
  8 10  1  0
 10 11  1  0
  7 12  2  0
 12 13  1  0
 13 14  2  0
 14 15  1  0
 15 16  2  3
 16 17  1  0
 17 18  3  0
 16 19  1  0
 19 20  3  0
 15  2  1  0
 14  5  1  0
  1 21  1  0
  1 22  1  0
  6 23  1  0
 11 24  1  0
 11 25  1  0
 11 26  1  0
 12 27  1  0
 13 28  1  0
M  END

