
     RDKit          3D

 28 29  0  0  0  0  0  0  0  0999 V2000
   -2.1560   -3.8543   -0.2533 C   0  0  0  0  0  0  0  0  0  0  0  0
   -1.3696   -2.7737   -0.2398 C   0  0  0  0  0  0  0  0  0  0  0  0
   -1.6824   -1.5654    0.5171 C   0  0  0  0  0  0  0  0  0  0  0  0
   -2.6056   -1.4385    1.3655 O   0  0  0  0  0  0  0  0  0  0  0  0
   -0.7846   -0.5165    0.0865 C   0  0  0  0  0  0  0  0  0  0  0  0
   -0.7772    0.8222    0.4766 C   0  0  0  0  0  0  0  0  0  0  0  0
    0.1411    1.6976   -0.1212 C   0  0  0  0  0  0  0  0  0  0  0  0
    0.1367    3.0422    0.2788 O   0  0  0  0  0  0  0  0  0  0  0  0
    1.2379    3.9063    0.2258 C   0  0  0  0  0  0  0  0  0  0  0  0
    1.0254    5.3695    0.4162 C   0  0  0  0  0  0  0  0  0  0  0  0
    2.4119    3.4589    0.1194 O   0  0  0  0  0  0  0  0  0  0  0  0
    0.9999    1.2144   -1.1364 C   0  0  0  0  0  0  0  0  0  0  0  0
    0.9695   -0.1362   -1.5197 C   0  0  0  0  0  0  0  0  0  0  0  0
    0.0824   -1.0120   -0.8740 C   0  0  0  0  0  0  0  0  0  0  0  0
   -0.1699   -2.4704   -1.0787 C   0  0  0  0  0  0  0  0  0  0  0  0
    0.6295   -3.3590   -1.7250 C   0  0  0  0  0  0  0  0  0  0  0  0
    1.8395   -2.9681   -2.3989 C   0  0  0  0  0  0  0  0  0  0  0  0
    2.8176   -2.6723   -2.9433 N   0  0  0  0  0  0  0  0  0  0  0  0
    0.3956   -4.7791   -1.6904 C   0  0  0  0  0  0  0  0  0  0  0  0
    0.2217   -5.9234   -1.6674 N   0  0  0  0  0  0  0  0  0  0  0  0
   -3.0307   -3.8988    0.3831 H   0  0  0  0  0  0  0  0  0  0  0  0
   -1.9975   -4.6833   -0.9209 H   0  0  0  0  0  0  0  0  0  0  0  0
   -1.4712    1.1811    1.2262 H   0  0  0  0  0  0  0  0  0  0  0  0
    0.0105    5.6524    0.0663 H   0  0  0  0  0  0  0  0  0  0  0  0
    1.1233    5.6205    1.4927 H   0  0  0  0  0  0  0  0  0  0  0  0
    1.7775    5.9439   -0.1648 H   0  0  0  0  0  0  0  0  0  0  0  0
    1.6639    1.8857   -1.6633 H   0  0  0  0  0  0  0  0  0  0  0  0
    1.6037   -0.4510   -2.3299 H   0  0  0  0  0  0  0  0  0  0  0  0
  1  2  2  3
  2  3  1  0
  3  4  2  0
  3  5  1  0
  5  6  2  0
  6  7  1  0
  7  8  1  0
  8  9  1  0
  9 10  1  0
  9 11  2  0
  7 12  2  0
 12 13  1  0
 13 14  2  0
 14 15  1  0
 15 16  2  3
 16 17  1  0
 17 18  3  0
 16 19  1  0
 19 20  3  0
 15  2  1  0
 14  5  1  0
  1 21  1  0
  1 22  1  0
  6 23  1  0
 10 24  1  0
 10 25  1  0
 10 26  1  0
 12 27  1  0
 13 28  1  0
M  END

