
     RDKit          3D

 28 30  0  0  0  0  0  0  0  0999 V2000
   -2.1304   -3.2665    2.9365 C   0  0  0  0  0  0  0  0  0  0  0  0
   -1.4065   -2.2946    2.3728 C   0  0  0  0  0  0  0  0  0  0  0  0
   -0.1946   -1.7477    2.9742 C   0  0  0  0  0  0  0  0  0  0  0  0
    0.2225   -1.9748    4.1415 O   0  0  0  0  0  0  0  0  0  0  0  0
    0.4804   -0.9419    1.9808 C   0  0  0  0  0  0  0  0  0  0  0  0
    1.7126   -0.3004    2.0932 C   0  0  0  0  0  0  0  0  0  0  0  0
    2.2278    0.3672    0.9699 C   0  0  0  0  0  0  0  0  0  0  0  0
    3.4633    1.0288    1.0388 C   0  0  0  0  0  0  0  0  0  0  0  0
    3.9769    1.6762   -0.0882 C   0  0  0  0  0  0  0  0  0  0  0  0
    3.2662    1.6665   -1.2912 C   0  0  0  0  0  0  0  0  0  0  0  0
    2.0349    1.0107   -1.3775 C   0  0  0  0  0  0  0  0  0  0  0  0
    1.5013    0.3590   -0.2543 C   0  0  0  0  0  0  0  0  0  0  0  0
    0.2611   -0.3057   -0.3362 C   0  0  0  0  0  0  0  0  0  0  0  0
   -0.2571   -0.9366    0.8069 C   0  0  0  0  0  0  0  0  0  0  0  0
   -1.5234   -1.7063    1.0037 C   0  0  0  0  0  0  0  0  0  0  0  0
   -2.6206   -1.7041    0.2016 C   0  0  0  0  0  0  0  0  0  0  0  0
   -3.8643   -2.3167    0.5899 C   0  0  0  0  0  0  0  0  0  0  0  0
   -4.8714   -2.8014    0.8915 N   0  0  0  0  0  0  0  0  0  0  0  0
   -2.6708   -0.9902   -1.0469 C   0  0  0  0  0  0  0  0  0  0  0  0
   -2.7304   -0.4194   -2.0523 N   0  0  0  0  0  0  0  0  0  0  0  0
   -2.9346   -3.7663    2.4249 H   0  0  0  0  0  0  0  0  0  0  0  0
   -1.8811   -3.6265    3.9266 H   0  0  0  0  0  0  0  0  0  0  0  0
    2.2604   -0.3315    3.0277 H   0  0  0  0  0  0  0  0  0  0  0  0
    4.0311    1.0435    1.9616 H   0  0  0  0  0  0  0  0  0  0  0  0
    4.9302    2.1854   -0.0297 H   0  0  0  0  0  0  0  0  0  0  0  0
    3.6715    2.1687   -2.1602 H   0  0  0  0  0  0  0  0  0  0  0  0
    1.5000    1.0147   -2.3198 H   0  0  0  0  0  0  0  0  0  0  0  0
   -0.2495   -0.3432   -1.2833 H   0  0  0  0  0  0  0  0  0  0  0  0
  1  2  2  3
  2  3  1  0
  3  4  2  0
  3  5  1  0
  5  6  2  0
  6  7  1  0
  7  8  2  0
  8  9  1  0
  9 10  2  0
 10 11  1  0
 11 12  2  0
 12 13  1  0
 13 14  2  0
 14 15  1  0
 15 16  2  3
 16 17  1  0
 17 18  3  0
 16 19  1  0
 19 20  3  0
 15  2  1  0
 14  5  1  0
 12  7  1  0
  1 21  1  0
  1 22  1  0
  6 23  1  0
  8 24  1  0
  9 25  1  0
 10 26  1  0
 11 27  1  0
 13 28  1  0
M  END

