
     RDKit          3D

112122  0  0  0  0  0  0  0  0999 V2000
    4.2166   -0.3992    2.6480 C   0  0  0  0  0  0  0  0  0  0  0  0
    3.1297   -0.9657    1.7493 C   0  0  0  0  0  0  0  0  0  0  0  0
    2.2569    0.0828    1.3392 O   0  0  0  0  0  0  0  0  0  0  0  0
    1.0277   -0.1663    0.7271 C   0  0  0  0  0  0  0  0  0  0  0  0
   -0.0609   -0.6869    1.4446 C   0  0  0  0  0  0  0  0  0  0  0  0
   -1.3061   -0.9463    0.8499 C   0  0  0  0  0  0  0  0  0  0  0  0
   -1.5098   -0.6749   -0.5174 C   0  0  0  0  0  0  0  0  0  0  0  0
   -2.7334   -0.9382   -1.1353 O   0  0  0  0  0  0  0  0  0  0  0  0
   -3.6313    0.0978   -1.5215 C   0  0  0  0  0  0  0  0  0  0  0  0
   -4.6919   -0.4685   -2.4511 C   0  0  0  0  0  0  0  0  0  0  0  0
   -0.4220   -0.1507   -1.2334 C   0  0  0  0  0  0  0  0  0  0  0  0
    0.8205    0.1156   -0.6370 C   0  0  0  0  0  0  0  0  0  0  0  0
    1.8323    0.6661   -1.6512 C   0  0  0  0  0  0  0  0  0  0  0  0
    2.2414    2.0840   -1.2230 C   0  0  0  0  0  0  0  0  0  0  0  0
    3.3603    2.2876   -0.3880 C   0  0  0  0  0  0  0  0  0  0  0  0
    3.6961    3.5650    0.0656 C   0  0  0  0  0  0  0  0  0  0  0  0
    2.9034    4.6687   -0.2742 C   0  0  0  0  0  0  0  0  0  0  0  0
    3.2825    6.0491    0.1902 C   0  0  0  0  0  0  0  0  0  0  0  0
    4.2090    6.7218   -0.8170 C   0  0  0  0  0  0  0  0  0  0  0  0
    1.7768    4.4793   -1.0846 C   0  0  0  0  0  0  0  0  0  0  0  0
    1.4384    3.2026   -1.5390 C   0  0  0  0  0  0  0  0  0  0  0  0
    3.0012   -0.2911   -1.9236 C   0  0  0  0  0  0  0  0  0  0  0  0
    4.1806    0.1790   -2.5379 C   0  0  0  0  0  0  0  0  0  0  0  0
    5.2185   -0.6964   -2.8641 C   0  0  0  0  0  0  0  0  0  0  0  0
    5.0944   -2.0685   -2.6105 C   0  0  0  0  0  0  0  0  0  0  0  0
    6.1977   -3.0161   -2.9971 C   0  0  0  0  0  0  0  0  0  0  0  0
    5.9988   -3.5224   -4.4222 C   0  0  0  0  0  0  0  0  0  0  0  0
    3.9013   -2.5583   -2.0639 C   0  0  0  0  0  0  0  0  0  0  0  0
    2.8614   -1.6843   -1.7392 C   0  0  0  0  0  0  0  0  0  0  0  0
    0.9557    0.6609   -2.8780 C   0  0  0  0  0  0  0  0  0  0  0  0
   -0.2976    0.1848   -2.6299 C   0  0  0  0  0  0  0  0  0  0  0  0
   -1.2369    0.0519   -4.0429 S   0  0  0  0  0  0  0  0  0  0  0  0
    0.0318    0.6725   -4.9850 C   0  0  0  0  0  0  0  0  0  0  0  0
    0.1810    0.9287   -6.3428 C   0  0  0  0  0  0  0  0  0  0  0  0
    1.4624    1.4225   -6.6200 C   0  0  0  0  0  0  0  0  0  0  0  0
    2.3756    1.5221   -5.1808 S   0  0  0  0  0  0  0  0  0  0  0  0
    1.1309    0.9437   -4.2224 C   0  0  0  0  0  0  0  0  0  0  0  0
   -2.3316   -1.4490    1.8759 C   0  0  0  0  0  0  0  0  0  0  0  0
   -2.7869   -2.8618    1.4790 C   0  0  0  0  0  0  0  0  0  0  0  0
   -2.0176   -3.9979    1.8145 C   0  0  0  0  0  0  0  0  0  0  0  0
   -2.4048   -5.2743    1.3990 C   0  0  0  0  0  0  0  0  0  0  0  0
   -3.5589   -5.4488    0.6243 C   0  0  0  0  0  0  0  0  0  0  0  0
   -3.9564   -6.8212    0.1505 C   0  0  0  0  0  0  0  0  0  0  0  0
   -3.3089   -7.1377   -1.1937 C   0  0  0  0  0  0  0  0  0  0  0  0
   -4.3007   -4.3249    0.2388 C   0  0  0  0  0  0  0  0  0  0  0  0
   -3.9160   -3.0481    0.6537 C   0  0  0  0  0  0  0  0  0  0  0  0
   -3.4695   -0.4490    2.1314 C   0  0  0  0  0  0  0  0  0  0  0  0
   -3.2863    0.9352    1.9171 C   0  0  0  0  0  0  0  0  0  0  0  0
   -4.3019    1.8474    2.2122 C   0  0  0  0  0  0  0  0  0  0  0  0
   -5.5056    1.4090    2.7780 C   0  0  0  0  0  0  0  0  0  0  0  0
   -6.6152    2.3868    3.0577 C   0  0  0  0  0  0  0  0  0  0  0  0
   -7.5315    2.5211    1.8464 C   0  0  0  0  0  0  0  0  0  0  0  0
   -5.6812    0.0449    3.0435 C   0  0  0  0  0  0  0  0  0  0  0  0
   -4.6675   -0.8690    2.7467 C   0  0  0  0  0  0  0  0  0  0  0  0
   -1.4536   -1.4458    3.1021 C   0  0  0  0  0  0  0  0  0  0  0  0
   -0.1911   -0.9978    2.8472 C   0  0  0  0  0  0  0  0  0  0  0  0
    0.7359   -0.8228    4.2646 S   0  0  0  0  0  0  0  0  0  0  0  0
   -0.5458   -1.3985    5.2162 C   0  0  0  0  0  0  0  0  0  0  0  0
   -0.7112   -1.5953    6.5817 C   0  0  0  0  0  0  0  0  0  0  0  0
   -2.0037   -2.0538    6.8661 C   0  0  0  0  0  0  0  0  0  0  0  0
   -2.9068   -2.1935    5.4243 S   0  0  0  0  0  0  0  0  0  0  0  0
   -1.6427   -1.6802    4.4543 C   0  0  0  0  0  0  0  0  0  0  0  0
    3.7587    0.0885    3.5340 H   0  0  0  0  0  0  0  0  0  0  0  0
    4.8849   -1.2172    2.9903 H   0  0  0  0  0  0  0  0  0  0  0  0
    4.8175    0.3496    2.0909 H   0  0  0  0  0  0  0  0  0  0  0  0
    3.6025   -1.4281    0.8599 H   0  0  0  0  0  0  0  0  0  0  0  0
    2.5708   -1.7537    2.2947 H   0  0  0  0  0  0  0  0  0  0  0  0
   -4.1276    0.5138   -0.6231 H   0  0  0  0  0  0  0  0  0  0  0  0
   -3.0894    0.9194   -2.0340 H   0  0  0  0  0  0  0  0  0  0  0  0
   -5.2586   -1.2730   -1.9370 H   0  0  0  0  0  0  0  0  0  0  0  0
   -4.2134   -0.8854   -3.3620 H   0  0  0  0  0  0  0  0  0  0  0  0
   -5.3971    0.3356   -2.7491 H   0  0  0  0  0  0  0  0  0  0  0  0
    3.9833    1.4572   -0.0854 H   0  0  0  0  0  0  0  0  0  0  0  0
    4.5726    3.6924    0.6889 H   0  0  0  0  0  0  0  0  0  0  0  0
    3.7918    5.9935    1.1769 H   0  0  0  0  0  0  0  0  0  0  0  0
    2.3712    6.6723    0.3231 H   0  0  0  0  0  0  0  0  0  0  0  0
    3.7035    6.8159   -1.8020 H   0  0  0  0  0  0  0  0  0  0  0  0
    4.4766    7.7368   -0.4556 H   0  0  0  0  0  0  0  0  0  0  0  0
    5.1411    6.1301   -0.9378 H   0  0  0  0  0  0  0  0  0  0  0  0
    1.1526    5.3208   -1.3581 H   0  0  0  0  0  0  0  0  0  0  0  0
    0.5397    3.0970   -2.1321 H   0  0  0  0  0  0  0  0  0  0  0  0
    4.2983    1.2275   -2.7780 H   0  0  0  0  0  0  0  0  0  0  0  0
    6.1150   -0.3047   -3.3281 H   0  0  0  0  0  0  0  0  0  0  0  0
    7.1832   -2.5067   -2.9213 H   0  0  0  0  0  0  0  0  0  0  0  0
    6.2199   -3.8817   -2.2994 H   0  0  0  0  0  0  0  0  0  0  0  0
    6.0028   -2.6728   -5.1379 H   0  0  0  0  0  0  0  0  0  0  0  0
    5.0344   -4.0677   -4.5074 H   0  0  0  0  0  0  0  0  0  0  0  0
    6.8236   -4.2160   -4.6887 H   0  0  0  0  0  0  0  0  0  0  0  0
    3.7699   -3.6209   -1.9015 H   0  0  0  0  0  0  0  0  0  0  0  0
    1.9464   -2.1068   -1.3468 H   0  0  0  0  0  0  0  0  0  0  0  0
   -0.5870    0.7652   -7.0866 H   0  0  0  0  0  0  0  0  0  0  0  0
    1.8193    1.6964   -7.6035 H   0  0  0  0  0  0  0  0  0  0  0  0
   -1.1064   -3.9055    2.3902 H   0  0  0  0  0  0  0  0  0  0  0  0
   -1.7977   -6.1275    1.6752 H   0  0  0  0  0  0  0  0  0  0  0  0
   -5.0620   -6.8846    0.0487 H   0  0  0  0  0  0  0  0  0  0  0  0
   -3.6484   -7.5873    0.8955 H   0  0  0  0  0  0  0  0  0  0  0  0
   -2.2020   -7.1035   -1.1067 H   0  0  0  0  0  0  0  0  0  0  0  0
   -3.6082   -8.1559   -1.5206 H   0  0  0  0  0  0  0  0  0  0  0  0
   -3.6397   -6.4064   -1.9614 H   0  0  0  0  0  0  0  0  0  0  0  0
   -5.1758   -4.4365   -0.3892 H   0  0  0  0  0  0  0  0  0  0  0  0
   -4.5082   -2.2043    0.3277 H   0  0  0  0  0  0  0  0  0  0  0  0
   -2.3603    1.3209    1.5139 H   0  0  0  0  0  0  0  0  0  0  0  0
   -4.1462    2.8990    2.0052 H   0  0  0  0  0  0  0  0  0  0  0  0
   -6.1934    3.3841    3.3104 H   0  0  0  0  0  0  0  0  0  0  0  0
   -7.2108    2.0489    3.9338 H   0  0  0  0  0  0  0  0  0  0  0  0
   -8.3423    3.2453    2.0722 H   0  0  0  0  0  0  0  0  0  0  0  0
   -6.9589    2.8909    0.9690 H   0  0  0  0  0  0  0  0  0  0  0  0
   -7.9890    1.5395    1.5988 H   0  0  0  0  0  0  0  0  0  0  0  0
   -6.6021   -0.3114    3.4879 H   0  0  0  0  0  0  0  0  0  0  0  0
   -4.8229   -1.9089    3.0016 H   0  0  0  0  0  0  0  0  0  0  0  0
    0.0528   -1.4111    7.3253 H   0  0  0  0  0  0  0  0  0  0  0  0
   -2.3764   -2.2774    7.8559 H   0  0  0  0  0  0  0  0  0  0  0  0
  1  2  1  0
  2  3  1  0
  3  4  1  0
  4  5  2  0
  5  6  1  0
  6  7  2  0
  7  8  1  0
  8  9  1  0
  9 10  1  0
  7 11  1  0
 11 12  2  0
 12 13  1  0
 13 14  1  0
 14 15  2  0
 15 16  1  0
 16 17  2  0
 17 18  1  0
 18 19  1  0
 17 20  1  0
 20 21  2  0
 13 22  1  0
 22 23  2  0
 23 24  1  0
 24 25  2  0
 25 26  1  0
 26 27  1  0
 25 28  1  0
 28 29  2  0
 13 30  1  0
 30 31  2  0
 31 32  1  0
 32 33  1  0
 33 34  1  0
 34 35  2  0
 35 36  1  0
 36 37  1  0
  6 38  1  0
 38 39  1  0
 39 40  2  0
 40 41  1  0
 41 42  2  0
 42 43  1  0
 43 44  1  0
 42 45  1  0
 45 46  2  0
 38 47  1  0
 47 48  2  0
 48 49  1  0
 49 50  2  0
 50 51  1  0
 51 52  1  0
 50 53  1  0
 53 54  2  0
 38 55  1  0
 55 56  2  0
 56 57  1  0
 57 58  1  0
 58 59  1  0
 59 60  2  0
 60 61  1  0
 61 62  1  0
 12  4  1  0
 21 14  1  0
 29 22  1  0
 37 30  1  0
 46 39  1  0
 54 47  1  0
 62 55  1  0
 56  5  1  0
 62 58  2  0
 31 11  1  0
 37 33  2  0
  1 63  1  0
  1 64  1  0
  1 65  1  0
  2 66  1  0
  2 67  1  0
  9 68  1  0
  9 69  1  0
 10 70  1  0
 10 71  1  0
 10 72  1  0
 15 73  1  0
 16 74  1  0
 18 75  1  0
 18 76  1  0
 19 77  1  0
 19 78  1  0
 19 79  1  0
 20 80  1  0
 21 81  1  0
 23 82  1  0
 24 83  1  0
 26 84  1  0
 26 85  1  0
 27 86  1  0
 27 87  1  0
 27 88  1  0
 28 89  1  0
 29 90  1  0
 34 91  1  0
 35 92  1  0
 40 93  1  0
 41 94  1  0
 43 95  1  0
 43 96  1  0
 44 97  1  0
 44 98  1  0
 44 99  1  0
 45100  1  0
 46101  1  0
 48102  1  0
 49103  1  0
 51104  1  0
 51105  1  0
 52106  1  0
 52107  1  0
 52108  1  0
 53109  1  0
 54110  1  0
 59111  1  0
 60112  1  0
M  END

