
     RDKit          3D

  6  5  0  0  0  0  0  0  0  0999 V2000
    0.9598   -1.8338    2.3275 C   0  0  0  0  0  0  0  0  0  0  0  0
    2.0704   -1.8092    3.0607 C   0  0  0  0  0  0  0  0  0  0  0  0
    0.4151   -2.7625    2.1916 H   0  0  0  0  0  0  0  0  0  0  0  0
    0.5923   -0.9254    1.8614 H   0  0  0  0  0  0  0  0  0  0  0  0
    2.6151   -0.8805    3.1966 H   0  0  0  0  0  0  0  0  0  0  0  0
    2.4379   -2.7176    3.5268 H   0  0  0  0  0  0  0  0  0  0  0  0
  1  2  2  3
  1  3  1  0
  1  4  1  0
  2  5  1  0
  2  6  1  0
M  END

