
     RDKit          3D

 52 56  0  0  0  0  0  0  0  0999 V2000
    4.1323   -3.0107    7.0432 C   0  0  0  0  0  0  0  0  0  0  0  0
    5.1974   -2.1794    6.3395 C   0  0  0  0  0  0  0  0  0  0  0  0
    5.7554   -2.9890    4.7986 S   0  0  0  0  0  0  0  0  0  0  0  0
    4.3709   -2.4261    3.8033 C   0  0  0  0  0  0  0  0  0  0  0  0
    4.4155   -1.1695    3.1884 C   0  0  0  0  0  0  0  0  0  0  0  0
    3.3420   -0.7322    2.4072 C   0  0  0  0  0  0  0  0  0  0  0  0
    2.2160   -1.5519    2.2304 C   0  0  0  0  0  0  0  0  0  0  0  0
    1.0804   -1.0908    1.4027 C   0  0  0  0  0  0  0  0  0  0  0  0
    0.3358    0.0626    1.7287 C   0  0  0  0  0  0  0  0  0  0  0  0
    0.5126    0.8786    2.8594 C   0  0  0  0  0  0  0  0  0  0  0  0
   -0.3963    1.9302    2.9256 C   0  0  0  0  0  0  0  0  0  0  0  0
   -1.4268    1.8475    1.5937 S   0  0  0  0  0  0  0  0  0  0  0  0
   -0.7218    0.4793    0.9137 C   0  0  0  0  0  0  0  0  0  0  0  0
   -1.1048   -0.2128   -0.2495 C   0  0  0  0  0  0  0  0  0  0  0  0
   -2.2404    0.2482   -1.0771 C   0  0  0  0  0  0  0  0  0  0  0  0
   -2.2067    1.5137   -1.6840 C   0  0  0  0  0  0  0  0  0  0  0  0
   -3.2816    1.9491   -2.4642 C   0  0  0  0  0  0  0  0  0  0  0  0
   -4.3954    1.1221   -2.6501 C   0  0  0  0  0  0  0  0  0  0  0  0
   -5.7800    1.6848   -3.6454 S   0  0  0  0  0  0  0  0  0  0  0  0
   -5.2217    0.8755   -5.1863 C   0  0  0  0  0  0  0  0  0  0  0  0
   -4.1570    1.7073   -5.8901 C   0  0  0  0  0  0  0  0  0  0  0  0
   -4.4399   -0.1345   -2.0351 C   0  0  0  0  0  0  0  0  0  0  0  0
   -3.3663   -0.5716   -1.2540 C   0  0  0  0  0  0  0  0  0  0  0  0
   -0.3601   -1.3663   -0.5755 C   0  0  0  0  0  0  0  0  0  0  0  0
   -0.5369   -2.1822   -1.7062 C   0  0  0  0  0  0  0  0  0  0  0  0
    0.3719   -3.2338   -1.7724 C   0  0  0  0  0  0  0  0  0  0  0  0
    1.4024   -3.1511   -0.4405 S   0  0  0  0  0  0  0  0  0  0  0  0
    0.6974   -1.7829    0.2395 C   0  0  0  0  0  0  0  0  0  0  0  0
    2.1820   -2.8174    2.8373 C   0  0  0  0  0  0  0  0  0  0  0  0
    3.2569   -3.2529    3.6175 C   0  0  0  0  0  0  0  0  0  0  0  0
    4.5039   -4.0426    7.2174 H   0  0  0  0  0  0  0  0  0  0  0  0
    3.2053   -3.0503    6.4355 H   0  0  0  0  0  0  0  0  0  0  0  0
    3.8891   -2.5487    8.0231 H   0  0  0  0  0  0  0  0  0  0  0  0
    6.0748   -2.0802    7.0126 H   0  0  0  0  0  0  0  0  0  0  0  0
    4.8098   -1.1592    6.1310 H   0  0  0  0  0  0  0  0  0  0  0  0
    5.2790   -0.5297    3.3184 H   0  0  0  0  0  0  0  0  0  0  0  0
    3.3893    0.2421    1.9364 H   0  0  0  0  0  0  0  0  0  0  0  0
    1.2641    0.7110    3.6192 H   0  0  0  0  0  0  0  0  0  0  0  0
   -0.4403    2.6719    3.7115 H   0  0  0  0  0  0  0  0  0  0  0  0
   -1.3461    2.1592   -1.5575 H   0  0  0  0  0  0  0  0  0  0  0  0
   -3.2460    2.9273   -2.9266 H   0  0  0  0  0  0  0  0  0  0  0  0
   -4.8336   -0.1446   -4.9778 H   0  0  0  0  0  0  0  0  0  0  0  0
   -6.0991    0.7759   -5.8593 H   0  0  0  0  0  0  0  0  0  0  0  0
   -4.5292    2.7390   -6.0644 H   0  0  0  0  0  0  0  0  0  0  0  0
   -3.9135    1.2454   -6.8699 H   0  0  0  0  0  0  0  0  0  0  0  0
   -3.2301    1.7475   -5.2823 H   0  0  0  0  0  0  0  0  0  0  0  0
   -5.3033   -0.7744   -2.1652 H   0  0  0  0  0  0  0  0  0  0  0  0
   -3.4135   -1.5460   -0.7832 H   0  0  0  0  0  0  0  0  0  0  0  0
   -1.2884   -2.0146   -2.4661 H   0  0  0  0  0  0  0  0  0  0  0  0
    0.4160   -3.9755   -2.5583 H   0  0  0  0  0  0  0  0  0  0  0  0
    1.3214   -3.4627    2.7108 H   0  0  0  0  0  0  0  0  0  0  0  0
    3.2212   -4.2311    4.0800 H   0  0  0  0  0  0  0  0  0  0  0  0
  1  2  1  0
  2  3  1  0
  3  4  1  0
  4  5  2  0
  5  6  1  0
  6  7  2  0
  7  8  1  0
  8  9  2  0
  9 10  1  0
 10 11  2  0
 11 12  1  0
 12 13  1  0
 13 14  2  0
 14 15  1  0
 15 16  2  0
 16 17  1  0
 17 18  2  0
 18 19  1  0
 19 20  1  0
 20 21  1  0
 18 22  1  0
 22 23  2  0
 14 24  1  0
 24 25  1  0
 25 26  2  0
 26 27  1  0
 27 28  1  0
  7 29  1  0
 29 30  2  0
 30  4  1  0
 28  8  1  0
 13  9  1  0
 23 15  1  0
 28 24  2  0
  1 31  1  0
  1 32  1  0
  1 33  1  0
  2 34  1  0
  2 35  1  0
  5 36  1  0
  6 37  1  0
 10 38  1  0
 11 39  1  0
 16 40  1  0
 17 41  1  0
 20 42  1  0
 20 43  1  0
 21 44  1  0
 21 45  1  0
 21 46  1  0
 22 47  1  0
 23 48  1  0
 25 49  1  0
 26 50  1  0
 29 51  1  0
 30 52  1  0
M  END

