
     RDKit          3D

 22 23  0  0  0  0  0  0  0  0999 V2000
   -1.4515   -2.1955    2.0465 C   0  0  0  0  0  0  0  0  0  0  0  0
   -0.6696   -1.3485    1.3699 C   0  0  0  0  0  0  0  0  0  0  0  0
    0.2409   -1.7728    0.3109 C   0  0  0  0  0  0  0  0  0  0  0  0
    0.2882   -2.9179   -0.2133 O   0  0  0  0  0  0  0  0  0  0  0  0
    1.1211   -0.6682    0.0013 C   0  0  0  0  0  0  0  0  0  0  0  0
    2.1957   -0.6488   -0.8873 C   0  0  0  0  0  0  0  0  0  0  0  0
    2.9690    0.5168   -0.9768 C   0  0  0  0  0  0  0  0  0  0  0  0
    4.3289    0.5725   -2.0852 Cl  0  0  0  0  0  0  0  0  0  0  0  0
    2.6676    1.6275   -0.1653 C   0  0  0  0  0  0  0  0  0  0  0  0
    3.4328    2.7457   -0.2306 F   0  0  0  0  0  0  0  0  0  0  0  0
    1.5840    1.5836    0.7280 C   0  0  0  0  0  0  0  0  0  0  0  0
    0.7916    0.4247    0.7887 C   0  0  0  0  0  0  0  0  0  0  0  0
   -0.3981    0.0983    1.6324 C   0  0  0  0  0  0  0  0  0  0  0  0
   -1.1741    0.9680    2.3313 C   0  0  0  0  0  0  0  0  0  0  0  0
   -0.8789    2.3734    2.4232 C   0  0  0  0  0  0  0  0  0  0  0  0
   -0.6592    3.5071    2.5060 N   0  0  0  0  0  0  0  0  0  0  0  0
   -2.4175    0.5772    2.9428 C   0  0  0  0  0  0  0  0  0  0  0  0
   -3.4213    0.2775    3.4357 N   0  0  0  0  0  0  0  0  0  0  0  0
   -1.4975   -3.2391    1.7620 H   0  0  0  0  0  0  0  0  0  0  0  0
   -2.0107   -1.9041    2.9185 H   0  0  0  0  0  0  0  0  0  0  0  0
    2.4333   -1.5190   -1.4859 H   0  0  0  0  0  0  0  0  0  0  0  0
    1.4120    2.4342    1.3635 H   0  0  0  0  0  0  0  0  0  0  0  0
  1  2  2  3
  2  3  1  0
  3  4  2  0
  3  5  1  0
  5  6  2  0
  6  7  1  0
  7  8  1  0
  7  9  2  0
  9 10  1  0
  9 11  1  0
 11 12  2  0
 12 13  1  0
 13 14  2  3
 14 15  1  0
 15 16  3  0
 14 17  1  0
 17 18  3  0
 13  2  1  0
 12  5  1  0
  1 19  1  0
  1 20  1  0
  6 21  1  0
 11 22  1  0
M  END

