
     RDKit          3D

 22 23  0  0  0  0  0  0  0  0999 V2000
    1.5192    1.5003    3.4834 C   0  0  0  0  0  0  0  0  0  0  0  0
    1.0170    0.7040    2.5364 C   0  0  0  0  0  0  0  0  0  0  0  0
    1.2784   -0.7275    2.4429 C   0  0  0  0  0  0  0  0  0  0  0  0
    1.8279   -1.4326    3.3308 O   0  0  0  0  0  0  0  0  0  0  0  0
    0.8669   -1.1792    1.1211 C   0  0  0  0  0  0  0  0  0  0  0  0
    1.0511   -2.4315    0.5248 C   0  0  0  0  0  0  0  0  0  0  0  0
    1.6591   -3.7950    1.4618 Cl  0  0  0  0  0  0  0  0  0  0  0  0
    0.7528   -2.5709   -0.8449 C   0  0  0  0  0  0  0  0  0  0  0  0
    0.9400   -4.1413   -1.6277 Cl  0  0  0  0  0  0  0  0  0  0  0  0
    0.3649   -1.4421   -1.6042 C   0  0  0  0  0  0  0  0  0  0  0  0
    0.1178   -1.5989   -3.3450 Cl  0  0  0  0  0  0  0  0  0  0  0  0
    0.2130   -0.1821   -0.9835 C   0  0  0  0  0  0  0  0  0  0  0  0
    0.0820    1.2654   -1.9836 Cl  0  0  0  0  0  0  0  0  0  0  0  0
    0.3636   -0.0961    0.4144 C   0  0  0  0  0  0  0  0  0  0  0  0
    0.2602    1.0857    1.3167 C   0  0  0  0  0  0  0  0  0  0  0  0
   -0.6994    2.0440    1.2649 C   0  0  0  0  0  0  0  0  0  0  0  0
   -0.8430    3.0452    2.2908 C   0  0  0  0  0  0  0  0  0  0  0  0
   -0.9674    3.8526    3.1109 N   0  0  0  0  0  0  0  0  0  0  0  0
   -1.7786    1.9883    0.3122 C   0  0  0  0  0  0  0  0  0  0  0  0
   -2.6554    1.9467   -0.4427 N   0  0  0  0  0  0  0  0  0  0  0  0
    2.1011    1.0841    4.2958 H   0  0  0  0  0  0  0  0  0  0  0  0
    1.4153    2.5733    3.4409 H   0  0  0  0  0  0  0  0  0  0  0  0
  1  2  2  3
  2  3  1  0
  3  4  2  0
  3  5  1  0
  5  6  2  0
  6  7  1  0
  6  8  1  0
  8  9  1  0
  8 10  2  0
 10 11  1  0
 10 12  1  0
 12 13  1  0
 12 14  2  0
 14 15  1  0
 15 16  2  3
 16 17  1  0
 17 18  3  0
 16 19  1  0
 19 20  3  0
 15  2  1  0
 14  5  1  0
  1 21  1  0
  1 22  1  0
M  END

