
     RDKit          3D

 57 64  0  0  0  0  0  0  0  0999 V2000
    7.8507   -0.5137    1.8023 C   0  0  0  0  0  0  0  0  0  0  0  0
    7.5604   -0.3168    0.3522 C   0  0  0  0  0  0  0  0  0  0  0  0
    6.3327   -1.1133   -0.0494 C   0  0  0  0  0  0  0  0  0  0  0  0
    6.4523   -2.2706   -0.7342 C   0  0  0  0  0  0  0  0  0  0  0  0
    4.8472   -2.7478   -0.9237 S   0  0  0  0  0  0  0  0  0  0  0  0
    4.0349   -1.4238   -0.1023 C   0  0  0  0  0  0  0  0  0  0  0  0
    5.0631   -0.6927    0.2681 C   0  0  0  0  0  0  0  0  0  0  0  0
    4.2952    0.6437    1.0945 S   0  0  0  0  0  0  0  0  0  0  0  0
    2.6754    0.1539    0.8999 C   0  0  0  0  0  0  0  0  0  0  0  0
    1.3472    0.4317    1.1456 C   0  0  0  0  0  0  0  0  0  0  0  0
    0.8030    1.5769    1.8038 C   0  0  0  0  0  0  0  0  0  0  0  0
    1.6397    2.4801    2.2749 N   0  0  0  0  0  0  0  0  0  0  0  0
   -0.1784    3.7694    3.0380 Se  0  0  0  0  0  2  0  0  0  0  0  0
   -1.0844    2.6520    2.4521 N   0  0  0  0  0  0  0  0  0  0  0  0
   -0.5024    1.5971    1.8549 C   0  0  0  0  0  0  0  0  0  0  0  0
   -1.2766    0.5534    1.3058 C   0  0  0  0  0  0  0  0  0  0  0  0
   -2.6467    0.3631    1.2971 C   0  0  0  0  0  0  0  0  0  0  0  0
   -4.1488    1.0124    1.7251 S   0  0  0  0  0  0  0  0  0  0  0  0
   -5.1656   -0.2714    1.1039 C   0  0  0  0  0  0  0  0  0  0  0  0
   -6.5060   -0.5645    1.0211 C   0  0  0  0  0  0  0  0  0  0  0  0
   -7.5757    0.3760    1.5790 C   0  0  0  0  0  0  0  0  0  0  0  0
   -7.7776    1.5441    0.6791 C   0  0  0  0  0  0  0  0  0  0  0  0
   -6.8351   -1.7369    0.4167 C   0  0  0  0  0  0  0  0  0  0  0  0
   -5.3335   -2.3797   -0.0058 S   0  0  0  0  0  0  0  0  0  0  0  0
   -4.2849   -1.1164    0.6081 C   0  0  0  0  0  0  0  0  0  0  0  0
   -2.9356   -0.8159    0.6913 C   0  0  0  0  0  0  0  0  0  0  0  0
   -1.7348   -1.3869    0.3112 N   0  0  0  0  0  0  0  0  0  0  0  0
   -1.6958   -2.7133   -0.2208 C   0  0  0  0  0  0  0  0  0  0  0  0
   -1.9341   -2.7447   -1.6746 C   0  0  0  0  0  0  0  0  0  0  0  0
   -0.7629   -0.5509    0.6812 C   0  0  0  0  0  0  0  0  0  0  0  0
    0.6383   -0.5939    0.5943 C   0  0  0  0  0  0  0  0  0  0  0  0
    1.4422   -1.4768    0.0191 N   0  0  0  0  0  0  0  0  0  0  0  0
    1.1763   -2.6039   -0.7955 C   0  0  0  0  0  0  0  0  0  0  0  0
    1.1754   -2.2657   -2.2849 C   0  0  0  0  0  0  0  0  0  0  0  0
    2.7596   -1.0073    0.2145 C   0  0  0  0  0  0  0  0  0  0  0  0
    8.0797   -1.5683    2.0223 H   0  0  0  0  0  0  0  0  0  0  0  0
    8.6560    0.1317    2.1472 H   0  0  0  0  0  0  0  0  0  0  0  0
    6.9273   -0.2039    2.3728 H   0  0  0  0  0  0  0  0  0  0  0  0
    7.2938    0.7523    0.1637 H   0  0  0  0  0  0  0  0  0  0  0  0
    8.4201   -0.6249   -0.2434 H   0  0  0  0  0  0  0  0  0  0  0  0
    7.3838   -2.7575   -1.0724 H   0  0  0  0  0  0  0  0  0  0  0  0
   -8.4870   -0.1808    1.7652 H   0  0  0  0  0  0  0  0  0  0  0  0
   -7.2159    0.7641    2.5607 H   0  0  0  0  0  0  0  0  0  0  0  0
   -8.5399    2.1945    1.1517 H   0  0  0  0  0  0  0  0  0  0  0  0
   -6.8370    2.1415    0.6513 H   0  0  0  0  0  0  0  0  0  0  0  0
   -8.1360    1.2877   -0.3291 H   0  0  0  0  0  0  0  0  0  0  0  0
   -7.8649   -2.1125    0.2725 H   0  0  0  0  0  0  0  0  0  0  0  0
   -2.6908   -3.2643    0.1733 H   0  0  0  0  0  0  0  0  0  0  0  0
   -1.0437   -3.4267    0.2814 H   0  0  0  0  0  0  0  0  0  0  0  0
   -1.6778   -1.7725   -2.1901 H   0  0  0  0  0  0  0  0  0  0  0  0
   -3.0217   -2.8917   -1.9742 H   0  0  0  0  0  0  0  0  0  0  0  0
   -1.4092   -3.5529   -2.2165 H   0  0  0  0  0  0  0  0  0  0  0  0
    0.6035   -3.4510   -0.4969 H   0  0  0  0  0  0  0  0  0  0  0  0
    2.2070   -3.1966   -0.7646 H   0  0  0  0  0  0  0  0  0  0  0  0
    0.6176   -1.3754   -2.5444 H   0  0  0  0  0  0  0  0  0  0  0  0
    0.8582   -3.1802   -2.8156 H   0  0  0  0  0  0  0  0  0  0  0  0
    2.2241   -2.0736   -2.6664 H   0  0  0  0  0  0  0  0  0  0  0  0
  1  2  1  0
  2  3  1  0
  3  4  2  0
  4  5  1  0
  5  6  1  0
  6  7  2  0
  7  8  1  0
  8  9  1  0
  9 10  1  0
 10 11  1  0
 11 12  2  0
 12 13  1  0
 13 14  1  0
 14 15  2  0
 15 16  1  0
 16 17  1  0
 17 18  1  0
 18 19  1  0
 19 20  1  0
 20 21  1  0
 21 22  1  0
 20 23  2  0
 23 24  1  0
 24 25  1  0
 25 26  1  0
 26 27  1  0
 27 28  1  0
 28 29  1  0
 27 30  1  0
 30 31  1  0
 31 32  1  0
 32 33  1  0
 33 34  1  0
 32 35  1  0
  7  3  1  0
 35  9  2  0
 35  6  1  0
 31 10  2  0
 15 11  1  0
 30 16  2  0
 26 17  2  0
 25 19  2  0
  1 36  1  0
  1 37  1  0
  1 38  1  0
  2 39  1  0
  2 40  1  0
  4 41  1  0
 21 42  1  0
 21 43  1  0
 22 44  1  0
 22 45  1  0
 22 46  1  0
 23 47  1  0
 28 48  1  0
 28 49  1  0
 29 50  1  0
 29 51  1  0
 29 52  1  0
 33 53  1  0
 33 54  1  0
 34 55  1  0
 34 56  1  0
 34 57  1  0
M  END

