
     RDKit          3D

 30 32  0  0  0  0  0  0  0  0999 V2000
   -1.5137   -0.9146    5.4542 C   0  0  0  0  0  0  0  0  0  0  0  0
   -0.3154    0.0164    5.3132 C   0  0  0  0  0  0  0  0  0  0  0  0
    0.1475    0.0459    3.9283 N   0  0  0  0  0  0  0  0  0  0  0  0
    0.9633   -0.9388    3.2871 C   0  0  0  0  0  0  0  0  0  0  0  0
    1.6028   -1.8359    3.8975 O   0  0  0  0  0  0  0  0  0  0  0  0
    0.9172   -0.7648    1.8401 C   0  0  0  0  0  0  0  0  0  0  0  0
    1.5514   -1.4824    0.8127 C   0  0  0  0  0  0  0  0  0  0  0  0
    1.2642   -1.0476   -0.4862 C   0  0  0  0  0  0  0  0  0  0  0  0
    1.7089   -1.5365   -1.6530 N   0  0  0  0  0  0  0  0  0  0  0  0
    1.1354   -0.7729   -2.5820 N   0  0  0  0  0  0  0  0  0  0  0  0
    1.3065   -0.9900   -4.0131 C   0  0  0  0  0  0  0  0  0  0  0  0
    0.2546   -1.9650   -4.5252 C   0  0  0  0  0  0  0  0  0  0  0  0
    0.3368    0.1656   -2.0753 N   0  0  0  0  0  0  0  0  0  0  0  0
    0.4178    0.0025   -0.7467 C   0  0  0  0  0  0  0  0  0  0  0  0
   -0.2263    0.7230    0.2656 C   0  0  0  0  0  0  0  0  0  0  0  0
    0.0569    0.3024    1.5754 C   0  0  0  0  0  0  0  0  0  0  0  0
   -0.4341    0.7947    2.8570 C   0  0  0  0  0  0  0  0  0  0  0  0
   -1.2679    1.7255    3.0140 O   0  0  0  0  0  0  0  0  0  0  0  0
   -1.2332   -1.9469    5.1557 H   0  0  0  0  0  0  0  0  0  0  0  0
   -1.8544   -0.9270    6.5109 H   0  0  0  0  0  0  0  0  0  0  0  0
   -2.3490   -0.5628    4.8123 H   0  0  0  0  0  0  0  0  0  0  0  0
   -0.6018    1.0413    5.6330 H   0  0  0  0  0  0  0  0  0  0  0  0
    0.5064   -0.3335    5.9741 H   0  0  0  0  0  0  0  0  0  0  0  0
    2.2133   -2.3152    1.0110 H   0  0  0  0  0  0  0  0  0  0  0  0
    2.3205   -1.3997   -4.2114 H   0  0  0  0  0  0  0  0  0  0  0  0
    1.2107   -0.0231   -4.5529 H   0  0  0  0  0  0  0  0  0  0  0  0
    0.3530   -2.9410   -4.0039 H   0  0  0  0  0  0  0  0  0  0  0  0
    0.3922   -2.1247   -5.6153 H   0  0  0  0  0  0  0  0  0  0  0  0
   -0.7629   -1.5567   -4.3474 H   0  0  0  0  0  0  0  0  0  0  0  0
   -0.8979    1.5445    0.0534 H   0  0  0  0  0  0  0  0  0  0  0  0
  1  2  1  0
  2  3  1  0
  3  4  1  0
  4  5  2  0
  4  6  1  0
  6  7  2  0
  7  8  1  0
  8  9  2  0
  9 10  1  0
 10 11  1  0
 11 12  1  0
 10 13  1  0
 13 14  2  0
 14 15  1  0
 15 16  2  0
 16 17  1  0
 17 18  2  0
 17  3  1  0
 16  6  1  0
 14  8  1  0
  1 19  1  0
  1 20  1  0
  1 21  1  0
  2 22  1  0
  2 23  1  0
  7 24  1  0
 11 25  1  0
 11 26  1  0
 12 27  1  0
 12 28  1  0
 12 29  1  0
 15 30  1  0
M  END

