
     RDKit          3D

 50 54  0  0  0  0  0  0  0  0999 V2000
    7.2787   -3.5897    1.5299 C   0  0  0  0  0  0  0  0  0  0  0  0
    7.1470   -2.0867    1.3068 C   0  0  0  0  0  0  0  0  0  0  0  0
    5.6983   -1.6931    1.1600 C   0  0  0  0  0  0  0  0  0  0  0  0
    4.9323   -1.3630    2.2933 C   0  0  0  0  0  0  0  0  0  0  0  0
    5.4899   -1.3708    3.5308 F   0  0  0  0  0  0  0  0  0  0  0  0
    3.5819   -1.0284    2.1580 C   0  0  0  0  0  0  0  0  0  0  0  0
    2.9746   -1.0262    0.8943 C   0  0  0  0  0  0  0  0  0  0  0  0
    1.5438   -0.6790    0.7558 C   0  0  0  0  0  0  0  0  0  0  0  0
    1.0434    0.5914    1.1118 C   0  0  0  0  0  0  0  0  0  0  0  0
    1.7907    1.6760    1.6023 C   0  0  0  0  0  0  0  0  0  0  0  0
    1.0159    2.8002    1.8707 C   0  0  0  0  0  0  0  0  0  0  0  0
   -0.5919    2.4597    1.4939 S   0  0  0  0  0  0  0  0  0  0  0  0
   -0.3184    0.8812    0.9793 C   0  0  0  0  0  0  0  0  0  0  0  0
   -1.2527   -0.0549    0.5001 C   0  0  0  0  0  0  0  0  0  0  0  0
   -2.6884    0.2825    0.3916 C   0  0  0  0  0  0  0  0  0  0  0  0
   -3.6392   -0.4227    1.1430 C   0  0  0  0  0  0  0  0  0  0  0  0
   -4.9966   -0.1041    1.0442 C   0  0  0  0  0  0  0  0  0  0  0  0
   -5.8960   -0.8141    1.7718 F   0  0  0  0  0  0  0  0  0  0  0  0
   -5.4211    0.9377    0.1989 C   0  0  0  0  0  0  0  0  0  0  0  0
   -6.8881    1.2621    0.0658 C   0  0  0  0  0  0  0  0  0  0  0  0
   -7.5270    0.4312   -1.0421 C   0  0  0  0  0  0  0  0  0  0  0  0
   -4.4661    1.6354   -0.5636 C   0  0  0  0  0  0  0  0  0  0  0  0
   -4.8468    2.6253   -1.4106 F   0  0  0  0  0  0  0  0  0  0  0  0
   -3.1100    1.3121   -0.4615 C   0  0  0  0  0  0  0  0  0  0  0  0
   -0.7517   -1.3239    0.1398 C   0  0  0  0  0  0  0  0  0  0  0  0
   -1.4947   -2.3997   -0.3758 C   0  0  0  0  0  0  0  0  0  0  0  0
   -0.7222   -3.5287   -0.6307 C   0  0  0  0  0  0  0  0  0  0  0  0
    0.8813   -3.1969   -0.2287 S   0  0  0  0  0  0  0  0  0  0  0  0
    0.6110   -1.6119    0.2674 C   0  0  0  0  0  0  0  0  0  0  0  0
    3.7311   -1.3716   -0.2344 C   0  0  0  0  0  0  0  0  0  0  0  0
    5.0817   -1.7077   -0.1049 C   0  0  0  0  0  0  0  0  0  0  0  0
    5.7861   -2.0503   -1.2134 F   0  0  0  0  0  0  0  0  0  0  0  0
    6.7443   -3.8903    2.4564 H   0  0  0  0  0  0  0  0  0  0  0  0
    6.8562   -4.1463    0.6662 H   0  0  0  0  0  0  0  0  0  0  0  0
    8.3511   -3.8576    1.6353 H   0  0  0  0  0  0  0  0  0  0  0  0
    7.7197   -1.7993    0.3986 H   0  0  0  0  0  0  0  0  0  0  0  0
    7.6096   -1.5472    2.1614 H   0  0  0  0  0  0  0  0  0  0  0  0
    3.0049   -0.7786    3.0402 H   0  0  0  0  0  0  0  0  0  0  0  0
    2.8611    1.6568    1.7575 H   0  0  0  0  0  0  0  0  0  0  0  0
    1.3875    3.7400    2.2558 H   0  0  0  0  0  0  0  0  0  0  0  0
   -3.3269   -1.2201    1.8065 H   0  0  0  0  0  0  0  0  0  0  0  0
   -7.0266    2.3417   -0.1593 H   0  0  0  0  0  0  0  0  0  0  0  0
   -7.4163    1.0641    1.0235 H   0  0  0  0  0  0  0  0  0  0  0  0
   -7.4327   -0.6522   -0.8148 H   0  0  0  0  0  0  0  0  0  0  0  0
   -8.6049    0.6850   -1.1231 H   0  0  0  0  0  0  0  0  0  0  0  0
   -7.0370    0.6452   -2.0160 H   0  0  0  0  0  0  0  0  0  0  0  0
   -2.3871    1.8578   -1.0557 H   0  0  0  0  0  0  0  0  0  0  0  0
   -2.5593   -2.3687   -0.5653 H   0  0  0  0  0  0  0  0  0  0  0  0
   -1.0922   -4.4651   -1.0255 H   0  0  0  0  0  0  0  0  0  0  0  0
    3.2735   -1.3779   -1.2162 H   0  0  0  0  0  0  0  0  0  0  0  0
  1  2  1  0
  2  3  1  0
  3  4  2  0
  4  5  1  0
  4  6  1  0
  6  7  2  0
  7  8  1  0
  8  9  2  0
  9 10  1  0
 10 11  2  0
 11 12  1  0
 12 13  1  0
 13 14  2  0
 14 15  1  0
 15 16  2  0
 16 17  1  0
 17 18  1  0
 17 19  2  0
 19 20  1  0
 20 21  1  0
 19 22  1  0
 22 23  1  0
 22 24  2  0
 14 25  1  0
 25 26  1  0
 26 27  2  0
 27 28  1  0
 28 29  1  0
  7 30  1  0
 30 31  2  0
 31 32  1  0
 31  3  1  0
 29  8  1  0
 13  9  1  0
 24 15  1  0
 29 25  2  0
  1 33  1  0
  1 34  1  0
  1 35  1  0
  2 36  1  0
  2 37  1  0
  6 38  1  0
 10 39  1  0
 11 40  1  0
 16 41  1  0
 20 42  1  0
 20 43  1  0
 21 44  1  0
 21 45  1  0
 21 46  1  0
 24 47  1  0
 26 48  1  0
 27 49  1  0
 30 50  1  0
M  END

