
     RDKit          3D

124136  0  0  0  0  0  0  0  0999 V2000
    7.8408   -1.6690   -0.4594 C   0  0  0  0  0  0  0  0  0  0  0  0
    7.2336   -0.4410   -1.1303 C   0  0  0  0  0  0  0  0  0  0  0  0
    5.9182   -0.0806   -0.4945 C   0  0  0  0  0  0  0  0  0  0  0  0
    5.8763    0.7798    0.6100 C   0  0  0  0  0  0  0  0  0  0  0  0
    4.6571    1.0943    1.2157 C   0  0  0  0  0  0  0  0  0  0  0  0
    3.4432    0.5783    0.7156 C   0  0  0  0  0  0  0  0  0  0  0  0
    2.1184    0.8782    1.4364 C   0  0  0  0  0  0  0  0  0  0  0  0
    1.9164    2.3379    1.8728 C   0  0  0  0  0  0  0  0  0  0  0  0
    2.5782    3.4042    1.2253 C   0  0  0  0  0  0  0  0  0  0  0  0
    2.3156    4.7307    1.5739 C   0  0  0  0  0  0  0  0  0  0  0  0
    1.3795    5.0300    2.5711 C   0  0  0  0  0  0  0  0  0  0  0  0
    1.0493    6.4613    2.9000 C   0  0  0  0  0  0  0  0  0  0  0  0
   -0.1490    6.9393    2.0859 C   0  0  0  0  0  0  0  0  0  0  0  0
    0.6910    3.9845    3.1994 C   0  0  0  0  0  0  0  0  0  0  0  0
    0.9513    2.6570    2.8524 C   0  0  0  0  0  0  0  0  0  0  0  0
    0.8852    0.3939    0.6510 C   0  0  0  0  0  0  0  0  0  0  0  0
    0.3548    0.9011   -0.5540 C   0  0  0  0  0  0  0  0  0  0  0  0
    0.8421    2.1421   -1.1649 C   0  0  0  0  0  0  0  0  0  0  0  0
    1.9451    2.2708   -1.9993 C   0  0  0  0  0  0  0  0  0  0  0  0
    2.1274    3.5772   -2.4667 C   0  0  0  0  0  0  0  0  0  0  0  0
    1.1641    4.4656   -2.0024 C   0  0  0  0  0  0  0  0  0  0  0  0
    1.0648    5.9142   -2.3589 C   0  0  0  0  0  0  0  0  0  0  0  0
   -0.0751    6.1492   -3.3448 C   0  0  0  0  0  0  0  0  0  0  0  0
    0.0749    3.6339   -1.0267 S   0  0  0  0  0  0  0  0  0  0  0  0
   -0.7213    0.2027   -1.1210 C   0  0  0  0  0  0  0  0  0  0  0  0
   -1.2928   -0.9355   -0.5299 C   0  0  0  0  0  0  0  0  0  0  0  0
   -0.8000   -1.4070    0.7081 C   0  0  0  0  0  0  0  0  0  0  0  0
   -1.3637   -2.5784    1.3862 C   0  0  0  0  0  0  0  0  0  0  0  0
   -2.3241   -2.5462    2.3890 C   0  0  0  0  0  0  0  0  0  0  0  0
   -2.6380   -3.8156    2.8883 C   0  0  0  0  0  0  0  0  0  0  0  0
   -1.8943   -4.8328    2.3020 C   0  0  0  0  0  0  0  0  0  0  0  0
   -2.0255   -6.2960    2.5893 C   0  0  0  0  0  0  0  0  0  0  0  0
   -2.6803   -7.0204    1.4157 C   0  0  0  0  0  0  0  0  0  0  0  0
   -0.8587   -4.1646    1.1564 S   0  0  0  0  0  0  0  0  0  0  0  0
    0.2944   -0.7230    1.2612 C   0  0  0  0  0  0  0  0  0  0  0  0
    1.0270   -0.9773    2.4777 C   0  0  0  0  0  0  0  0  0  0  0  0
    0.8400   -1.9472    3.8637 S   0  0  0  0  0  0  0  0  0  0  0  0
    2.1378   -1.1654    4.6285 C   0  0  0  0  0  0  0  0  0  0  0  0
    2.7087   -1.2715    5.8911 C   0  0  0  0  0  0  0  0  0  0  0  0
    3.7197   -0.3179    6.0641 C   0  0  0  0  0  0  0  0  0  0  0  0
    3.8684    0.6380    4.6573 S   0  0  0  0  0  0  0  0  0  0  0  0
    2.6615   -0.1835    3.8376 C   0  0  0  0  0  0  0  0  0  0  0  0
    2.0338   -0.0680    2.6073 C   0  0  0  0  0  0  0  0  0  0  0  0
   -2.4154   -1.5207   -1.4102 C   0  0  0  0  0  0  0  0  0  0  0  0
   -3.7487   -1.4665   -0.6476 C   0  0  0  0  0  0  0  0  0  0  0  0
   -4.4137   -0.2343   -0.4593 C   0  0  0  0  0  0  0  0  0  0  0  0
   -5.6036   -0.1646    0.2671 C   0  0  0  0  0  0  0  0  0  0  0  0
   -6.1424   -1.3149    0.8581 C   0  0  0  0  0  0  0  0  0  0  0  0
   -7.4430   -1.2427    1.6123 C   0  0  0  0  0  0  0  0  0  0  0  0
   -8.6201   -1.5149    0.6821 C   0  0  0  0  0  0  0  0  0  0  0  0
   -5.4803   -2.5399    0.7009 C   0  0  0  0  0  0  0  0  0  0  0  0
   -4.2931   -2.6127   -0.0304 C   0  0  0  0  0  0  0  0  0  0  0  0
   -2.0687   -2.8880   -2.0231 C   0  0  0  0  0  0  0  0  0  0  0  0
   -0.7383   -3.3561   -2.0863 C   0  0  0  0  0  0  0  0  0  0  0  0
   -0.4347   -4.5738   -2.7014 C   0  0  0  0  0  0  0  0  0  0  0  0
   -1.4436   -5.3365   -3.3022 C   0  0  0  0  0  0  0  0  0  0  0  0
   -1.1069   -6.6247   -4.0041 C   0  0  0  0  0  0  0  0  0  0  0  0
   -0.7171   -6.3619   -5.4545 C   0  0  0  0  0  0  0  0  0  0  0  0
   -2.7571   -4.8520   -3.3052 C   0  0  0  0  0  0  0  0  0  0  0  0
   -3.0639   -3.6396   -2.6828 C   0  0  0  0  0  0  0  0  0  0  0  0
   -2.3813   -0.5110   -2.5332 C   0  0  0  0  0  0  0  0  0  0  0  0
   -1.4187    0.4362   -2.3601 C   0  0  0  0  0  0  0  0  0  0  0  0
   -1.4148    1.6045   -3.5973 S   0  0  0  0  0  0  0  0  0  0  0  0
   -2.7147    0.8377   -4.3703 C   0  0  0  0  0  0  0  0  0  0  0  0
   -3.4542    1.1281   -5.5106 C   0  0  0  0  0  0  0  0  0  0  0  0
   -4.4782    0.1906   -5.6938 C   0  0  0  0  0  0  0  0  0  0  0  0
   -4.4440   -0.9627   -4.4367 S   0  0  0  0  0  0  0  0  0  0  0  0
   -3.1215   -0.2680   -3.6804 C   0  0  0  0  0  0  0  0  0  0  0  0
    3.5098   -0.3433   -0.3550 C   0  0  0  0  0  0  0  0  0  0  0  0
    4.7290   -0.6559   -0.9583 C   0  0  0  0  0  0  0  0  0  0  0  0
    7.1552   -2.5371   -0.5525 H   0  0  0  0  0  0  0  0  0  0  0  0
    8.0328   -1.4636    0.6143 H   0  0  0  0  0  0  0  0  0  0  0  0
    8.8028   -1.9214   -0.9518 H   0  0  0  0  0  0  0  0  0  0  0  0
    7.9423    0.4114   -1.0485 H   0  0  0  0  0  0  0  0  0  0  0  0
    7.0909   -0.6496   -2.2134 H   0  0  0  0  0  0  0  0  0  0  0  0
    6.7907    1.2034    1.0087 H   0  0  0  0  0  0  0  0  0  0  0  0
    4.6621    1.7522    2.0741 H   0  0  0  0  0  0  0  0  0  0  0  0
    3.2741    3.2235    0.4181 H   0  0  0  0  0  0  0  0  0  0  0  0
    2.8295    5.5272    1.0493 H   0  0  0  0  0  0  0  0  0  0  0  0
    1.9220    7.1172    2.6869 H   0  0  0  0  0  0  0  0  0  0  0  0
    0.8196    6.5589    3.9828 H   0  0  0  0  0  0  0  0  0  0  0  0
   -1.0458    6.3311    2.3286 H   0  0  0  0  0  0  0  0  0  0  0  0
   -0.3637    8.0013    2.3285 H   0  0  0  0  0  0  0  0  0  0  0  0
    0.0645    6.8577    0.9980 H   0  0  0  0  0  0  0  0  0  0  0  0
   -0.0629    4.1998    3.9468 H   0  0  0  0  0  0  0  0  0  0  0  0
    0.3772    1.8785    3.3364 H   0  0  0  0  0  0  0  0  0  0  0  0
    2.5872    1.4478   -2.2810 H   0  0  0  0  0  0  0  0  0  0  0  0
    2.9284    3.8587   -3.1366 H   0  0  0  0  0  0  0  0  0  0  0  0
    2.0198    6.2623   -2.8085 H   0  0  0  0  0  0  0  0  0  0  0  0
    0.8845    6.5052   -1.4351 H   0  0  0  0  0  0  0  0  0  0  0  0
    0.0781    5.5470   -4.2669 H   0  0  0  0  0  0  0  0  0  0  0  0
   -0.1114    7.2243   -3.6199 H   0  0  0  0  0  0  0  0  0  0  0  0
   -1.0485    5.8708   -2.8824 H   0  0  0  0  0  0  0  0  0  0  0  0
   -2.7988   -1.6370    2.7331 H   0  0  0  0  0  0  0  0  0  0  0  0
   -3.3849   -3.9826    3.6533 H   0  0  0  0  0  0  0  0  0  0  0  0
   -1.0159   -6.7238    2.7713 H   0  0  0  0  0  0  0  0  0  0  0  0
   -2.6361   -6.4500    3.5060 H   0  0  0  0  0  0  0  0  0  0  0  0
   -2.0481   -6.9330    0.5060 H   0  0  0  0  0  0  0  0  0  0  0  0
   -3.6841   -6.5896    1.2074 H   0  0  0  0  0  0  0  0  0  0  0  0
   -2.7958   -8.0973    1.6605 H   0  0  0  0  0  0  0  0  0  0  0  0
    2.4009   -1.9824    6.6468 H   0  0  0  0  0  0  0  0  0  0  0  0
    4.3064   -0.1960    6.9652 H   0  0  0  0  0  0  0  0  0  0  0  0
   -4.0131    0.6821   -0.8713 H   0  0  0  0  0  0  0  0  0  0  0  0
   -6.1021    0.7909    0.3746 H   0  0  0  0  0  0  0  0  0  0  0  0
   -7.4460   -1.9840    2.4399 H   0  0  0  0  0  0  0  0  0  0  0  0
   -7.5632   -0.2372    2.0712 H   0  0  0  0  0  0  0  0  0  0  0  0
   -9.5715   -1.4190    1.2481 H   0  0  0  0  0  0  0  0  0  0  0  0
   -8.5541   -2.5423    0.2683 H   0  0  0  0  0  0  0  0  0  0  0  0
   -8.6292   -0.7831   -0.1539 H   0  0  0  0  0  0  0  0  0  0  0  0
   -5.8796   -3.4386    1.1551 H   0  0  0  0  0  0  0  0  0  0  0  0
   -3.7905   -3.5686   -0.0888 H   0  0  0  0  0  0  0  0  0  0  0  0
    0.0784   -2.7870   -1.6643 H   0  0  0  0  0  0  0  0  0  0  0  0
    0.5944   -4.9135   -2.7255 H   0  0  0  0  0  0  0  0  0  0  0  0
   -0.2651   -7.1324   -3.4830 H   0  0  0  0  0  0  0  0  0  0  0  0
   -1.9781   -7.3148   -3.9790 H   0  0  0  0  0  0  0  0  0  0  0  0
    0.1583   -5.6786   -5.5047 H   0  0  0  0  0  0  0  0  0  0  0  0
   -1.5679   -5.9096   -6.0064 H   0  0  0  0  0  0  0  0  0  0  0  0
   -0.4462   -7.3202   -5.9468 H   0  0  0  0  0  0  0  0  0  0  0  0
   -3.5450   -5.4077   -3.7999 H   0  0  0  0  0  0  0  0  0  0  0  0
   -4.0869   -3.2905   -2.7162 H   0  0  0  0  0  0  0  0  0  0  0  0
   -3.2728    1.9717   -6.1636 H   0  0  0  0  0  0  0  0  0  0  0  0
   -5.1906    0.2034   -6.5077 H   0  0  0  0  0  0  0  0  0  0  0  0
    2.6242   -0.8349   -0.7337 H   0  0  0  0  0  0  0  0  0  0  0  0
    4.7449   -1.3575   -1.7839 H   0  0  0  0  0  0  0  0  0  0  0  0
  1  2  1  0
  2  3  1  0
  3  4  2  0
  4  5  1  0
  5  6  2  0
  6  7  1  0
  7  8  1  0
  8  9  2  0
  9 10  1  0
 10 11  2  0
 11 12  1  0
 12 13  1  0
 11 14  1  0
 14 15  2  0
  7 16  1  0
 16 17  2  0
 17 18  1  0
 18 19  2  0
 19 20  1  0
 20 21  2  0
 21 22  1  0
 22 23  1  0
 21 24  1  0
 17 25  1  0
 25 26  2  0
 26 27  1  0
 27 28  1  0
 28 29  2  0
 29 30  1  0
 30 31  2  0
 31 32  1  0
 32 33  1  0
 31 34  1  0
 27 35  2  0
 35 36  1  0
 36 37  1  0
 37 38  1  0
 38 39  1  0
 39 40  2  0
 40 41  1  0
 41 42  1  0
 42 43  1  0
 26 44  1  0
 44 45  1  0
 45 46  2  0
 46 47  1  0
 47 48  2  0
 48 49  1  0
 49 50  1  0
 48 51  1  0
 51 52  2  0
 44 53  1  0
 53 54  2  0
 54 55  1  0
 55 56  2  0
 56 57  1  0
 57 58  1  0
 56 59  1  0
 59 60  2  0
 44 61  1  0
 61 62  2  0
 62 63  1  0
 63 64  1  0
 64 65  1  0
 65 66  2  0
 66 67  1  0
 67 68  1  0
  6 69  1  0
 69 70  2  0
 70  3  1  0
 43  7  1  0
 52 45  1  0
 60 53  1  0
 68 61  1  0
 15  8  1  0
 35 16  1  0
 43 36  2  0
 68 64  2  0
 24 18  1  0
 62 25  1  0
 34 28  1  0
 42 38  2  0
  1 71  1  0
  1 72  1  0
  1 73  1  0
  2 74  1  0
  2 75  1  0
  4 76  1  0
  5 77  1  0
  9 78  1  0
 10 79  1  0
 12 80  1  0
 12 81  1  0
 13 82  1  0
 13 83  1  0
 13 84  1  0
 14 85  1  0
 15 86  1  0
 19 87  1  0
 20 88  1  0
 22 89  1  0
 22 90  1  0
 23 91  1  0
 23 92  1  0
 23 93  1  0
 29 94  1  0
 30 95  1  0
 32 96  1  0
 32 97  1  0
 33 98  1  0
 33 99  1  0
 33100  1  0
 39101  1  0
 40102  1  0
 46103  1  0
 47104  1  0
 49105  1  0
 49106  1  0
 50107  1  0
 50108  1  0
 50109  1  0
 51110  1  0
 52111  1  0
 54112  1  0
 55113  1  0
 57114  1  0
 57115  1  0
 58116  1  0
 58117  1  0
 58118  1  0
 59119  1  0
 60120  1  0
 65121  1  0
 66122  1  0
 69123  1  0
 70124  1  0
M  END

