BTP-ClBr1.sdf
     RDKit          3D

 97108  0  0  0  0  0  0  0  0999 V2000
   -8.7640   -3.0715    0.0553 C   0  0  0  0  0  0  0  0  0  0  0  0
   -7.9315   -4.0169    0.1386 O   0  0  0  0  0  0  0  0  0  0  0  0
  -10.2027   -3.2254    0.0493 C   0  0  0  0  0  0  0  0  0  0  0  0
  -10.9482   -4.4064    0.0785 C   0  0  0  0  0  0  0  0  0  0  0  0
  -12.3433   -4.3233   -0.0315 C   0  0  0  0  0  0  0  0  0  0  0  0
  -13.2834   -5.8040    0.0141 Cl  0  0  0  0  0  0  0  0  0  0  0  0
  -12.9688   -3.0651   -0.1851 C   0  0  0  0  0  0  0  0  0  0  0  0
  -14.8679   -2.9166   -0.3848 Br  0  0  0  0  0  0  0  0  0  0  0  0
  -12.1972   -1.8906   -0.2121 C   0  0  0  0  0  0  0  0  0  0  0  0
  -10.8008   -1.9811   -0.0702 C   0  0  0  0  0  0  0  0  0  0  0  0
   -9.7557   -0.9172   -0.0691 C   0  0  0  0  0  0  0  0  0  0  0  0
   -9.9414    0.4142    0.1511 C   0  0  0  0  0  0  0  0  0  0  0  0
   -8.8565    1.3261    0.3787 C   0  0  0  0  0  0  0  0  0  0  0  0
   -7.9910    2.0707    0.5662 N   0  0  0  0  0  0  0  0  0  0  0  0
  -11.2443    1.0104    0.2818 C   0  0  0  0  0  0  0  0  0  0  0  0
  -12.2870    1.5077    0.3891 N   0  0  0  0  0  0  0  0  0  0  0  0
   -8.4532   -1.6495   -0.0952 C   0  0  0  0  0  0  0  0  0  0  0  0
   -7.2459   -1.1411   -0.4003 C   0  0  0  0  0  0  0  0  0  0  0  0
   -6.0093   -1.9372   -0.4273 C   0  0  0  0  0  0  0  0  0  0  0  0
   -4.7629   -1.6876    0.7058 S   0  0  0  0  0  0  0  0  0  0  0  0
   -3.6030   -2.4908   -0.1962 C   0  0  0  0  0  0  0  0  0  0  0  0
   -4.1345   -2.8933   -1.3975 C   0  0  0  0  0  0  0  0  0  0  0  0
   -5.4933   -2.5987   -1.5622 C   0  0  0  0  0  0  0  0  0  0  0  0
   -6.2258   -2.7452   -2.8664 C   0  0  0  0  0  0  0  0  0  0  0  0
   -6.0728   -1.4908   -3.7198 C   0  0  0  0  0  0  0  0  0  0  0  0
   -2.9042   -3.2856   -2.5229 S   0  0  0  0  0  0  0  0  0  0  0  0
   -1.7081   -2.9328   -1.3714 C   0  0  0  0  0  0  0  0  0  0  0  0
   -2.2190   -2.5144   -0.1936 C   0  0  0  0  0  0  0  0  0  0  0  0
   -1.2941   -1.9669    0.6321 N   0  0  0  0  0  0  0  0  0  0  0  0
   -1.4848   -1.9032    2.0876 C   0  0  0  0  0  0  0  0  0  0  0  0
   -0.1398   -1.9833   -0.1238 C   0  0  0  0  0  0  0  0  0  0  0  0
   -0.3755   -2.6415   -1.3496 C   0  0  0  0  0  0  0  0  0  0  0  0
    0.6207   -2.8498   -2.3048 C   0  0  0  0  0  0  0  0  0  0  0  0
    0.4207   -3.4768   -3.4928 N   0  0  0  0  0  0  0  0  0  0  0  0
    1.9549   -3.3847   -4.1123 S   0  0  0  0  0  0  0  0  0  0  0  0
    2.8847   -2.6077   -2.9774 N   0  0  0  0  0  0  0  0  0  0  0  0
    1.9464   -2.4051   -2.0234 C   0  0  0  0  0  0  0  0  0  0  0  0
    2.1794   -1.7167   -0.8257 C   0  0  0  0  0  0  0  0  0  0  0  0
    1.1592   -1.4211    0.1011 C   0  0  0  0  0  0  0  0  0  0  0  0
    1.5978   -0.4630    0.9932 N   0  0  0  0  0  0  0  0  0  0  0  0
    0.8168    0.4768    1.8090 C   0  0  0  0  0  0  0  0  0  0  0  0
   -0.1877    1.2656    0.9539 C   0  0  0  0  0  0  0  0  0  0  0  0
    2.8960   -0.2637    0.6443 C   0  0  0  0  0  0  0  0  0  0  0  0
    3.2724   -1.0048   -0.4204 C   0  0  0  0  0  0  0  0  0  0  0  0
    4.8033   -0.5829   -1.0126 S   0  0  0  0  0  0  0  0  0  0  0  0
    4.9891    0.6006    0.2027 C   0  0  0  0  0  0  0  0  0  0  0  0
    3.8728    0.6621    1.0012 C   0  0  0  0  0  0  0  0  0  0  0  0
    4.0915    1.8064    2.2033 S   0  0  0  0  0  0  0  0  0  0  0  0
    5.6312    2.2686    1.6545 C   0  0  0  0  0  0  0  0  0  0  0  0
    6.0075    1.5006    0.5381 C   0  0  0  0  0  0  0  0  0  0  0  0
    7.3501    1.5730   -0.1454 C   0  0  0  0  0  0  0  0  0  0  0  0
    7.2296    1.9207   -1.6310 C   0  0  0  0  0  0  0  0  0  0  0  0
    6.4730    3.2289    2.3760 C   0  0  0  0  0  0  0  0  0  0  0  0
    6.6358    4.5050    1.9821 C   0  0  0  0  0  0  0  0  0  0  0  0
    7.4680    5.5591    2.6457 C   0  0  0  0  0  0  0  0  0  0  0  0
    7.7640    5.6540    3.9693 C   0  0  0  0  0  0  0  0  0  0  0  0
    8.4152    6.8085    4.5365 C   0  0  0  0  0  0  0  0  0  0  0  0
    8.9290    7.7318    5.0126 N   0  0  0  0  0  0  0  0  0  0  0  0
    7.2948    4.6920    4.9354 C   0  0  0  0  0  0  0  0  0  0  0  0
    6.9128    3.9145    5.7081 N   0  0  0  0  0  0  0  0  0  0  0  0
    7.6362    6.6302    1.6159 C   0  0  0  0  0  0  0  0  0  0  0  0
    8.4638    7.7661    1.6068 C   0  0  0  0  0  0  0  0  0  0  0  0
    8.3933    8.6549    0.5187 C   0  0  0  0  0  0  0  0  0  0  0  0
    9.5020   10.2195    0.5449 Br  0  0  0  0  0  0  0  0  0  0  0  0
    7.5333    8.3797   -0.5675 C   0  0  0  0  0  0  0  0  0  0  0  0
    7.4376    9.4643   -1.9461 Cl  0  0  0  0  0  0  0  0  0  0  0  0
    6.7613    7.2061   -0.5726 C   0  0  0  0  0  0  0  0  0  0  0  0
    6.8333    6.3547    0.5230 C   0  0  0  0  0  0  0  0  0  0  0  0
    6.1774    5.0793    0.7126 C   0  0  0  0  0  0  0  0  0  0  0  0
    5.4039    4.5358   -0.1222 O   0  0  0  0  0  0  0  0  0  0  0  0
   -0.4446   -2.7350    2.8388 C   0  0  0  0  0  0  0  0  0  0  0  0
  -10.4585   -5.3690    0.1604 H   0  0  0  0  0  0  0  0  0  0  0  0
  -12.7016   -0.9489   -0.3756 H   0  0  0  0  0  0  0  0  0  0  0  0
   -7.1349   -0.1139   -0.6903 H   0  0  0  0  0  0  0  0  0  0  0  0
   -5.8304   -3.6210   -3.4204 H   0  0  0  0  0  0  0  0  0  0  0  0
   -7.3026   -2.9310   -2.6727 H   0  0  0  0  0  0  0  0  0  0  0  0
   -5.0002   -1.3086   -3.9562 H   0  0  0  0  0  0  0  0  0  0  0  0
   -6.5012   -0.6048   -3.2012 H   0  0  0  0  0  0  0  0  0  0  0  0
   -6.6218   -1.6275   -4.6763 H   0  0  0  0  0  0  0  0  0  0  0  0
   -2.4751   -2.3257    2.3583 H   0  0  0  0  0  0  0  0  0  0  0  0
   -1.5405   -0.8645    2.4443 H   0  0  0  0  0  0  0  0  0  0  0  0
    0.3589   -0.0292    2.6680 H   0  0  0  0  0  0  0  0  0  0  0  0
    1.4832    1.2231    2.2787 H   0  0  0  0  0  0  0  0  0  0  0  0
   -1.0658    0.6493    0.6981 H   0  0  0  0  0  0  0  0  0  0  0  0
    0.2960    1.6029    0.0127 H   0  0  0  0  0  0  0  0  0  0  0  0
   -0.5419    2.1554    1.5195 H   0  0  0  0  0  0  0  0  0  0  0  0
    7.9901    2.3387    0.3413 H   0  0  0  0  0  0  0  0  0  0  0  0
    7.8685    0.5979   -0.0331 H   0  0  0  0  0  0  0  0  0  0  0  0
    6.9452    1.0163   -2.2120 H   0  0  0  0  0  0  0  0  0  0  0  0
    6.4872    2.7247   -1.7909 H   0  0  0  0  0  0  0  0  0  0  0  0
    8.2105    2.2756   -2.0039 H   0  0  0  0  0  0  0  0  0  0  0  0
    6.9739    2.8501    3.2508 H   0  0  0  0  0  0  0  0  0  0  0  0
    9.1657    7.9739    2.4005 H   0  0  0  0  0  0  0  0  0  0  0  0
    6.1218    6.9668   -1.4176 H   0  0  0  0  0  0  0  0  0  0  0  0
   -0.5377   -3.8130    2.5731 H   0  0  0  0  0  0  0  0  0  0  0  0
   -0.6065   -2.6304    3.9364 H   0  0  0  0  0  0  0  0  0  0  0  0
    0.5859   -2.3899    2.6196 H   0  0  0  0  0  0  0  0  0  0  0  0
  1  2  2  0
  1  3  1  0
  3  4  2  0
  4  5  1  0
  5  6  1  0
  5  7  2  0
  7  8  1  0
  7  9  1  0
  9 10  2  0
  3 10  1  0
 10 11  1  0
 11 12  2  0
 12 13  1  0
 13 14  3  0
 12 15  1  0
 15 16  3  0
 11 17  1  0
  1 17  1  0
 17 18  2  0
 18 19  1  0
 19 20  1  0
 20 21  1  0
 21 22  2  0
 22 23  1  0
 23 24  1  0
 24 25  1  0
 19 23  2  0
 22 26  1  0
 26 27  1  0
 27 28  2  0
 21 28  1  0
 28 29  1  0
 29 30  1  0
 29 31  1  0
 31 32  2  0
 27 32  1  0
 32 33  1  0
 33 34  2  0
 34 35  1  0
 35 36  1  0
 36 37  2  0
 33 37  1  0
 37 38  1  0
 38 39  2  0
 31 39  1  0
 39 40  1  0
 40 41  1  0
 41 42  1  0
 40 43  1  0
 43 44  2  0
 38 44  1  0
 44 45  1  0
 45 46  1  0
 46 47  2  0
 43 47  1  0
 47 48  1  0
 48 49  1  0
 49 50  2  0
 46 50  1  0
 50 51  1  0
 51 52  1  0
 49 53  1  0
 53 54  2  0
 54 55  1  0
 55 56  2  0
 56 57  1  0
 57 58  3  0
 56 59  1  0
 59 60  3  0
 55 61  1  0
 61 62  2  0
 62 63  1  0
 63 64  1  0
 63 65  2  0
 65 66  1  0
 65 67  1  0
 67 68  2  0
 61 68  1  0
 68 69  1  0
 69 70  2  0
 54 69  1  0
 30 71  1  0
  4 72  1  0
  9 73  1  0
 18 74  1  0
 24 75  1  0
 24 76  1  0
 25 77  1  0
 25 78  1  0
 25 79  1  0
 30 80  1  0
 30 81  1  0
 41 82  1  0
 41 83  1  0
 42 84  1  0
 42 85  1  0
 42 86  1  0
 51 87  1  0
 51 88  1  0
 52 89  1  0
 52 90  1  0
 52 91  1  0
 53 92  1  0
 62 93  1  0
 67 94  1  0
 71 95  1  0
 71 96  1  0
 71 97  1  0
M  END

