IDTT2OT.sdf
     RDKit          3D

180196  0  0  0  0  0  0  0  0999 V2000
    6.4452    0.3938   -3.0265 C   0  0  0  0  0  0  0  0  0  0  0  0
    6.1682   -0.4414   -1.8566 C   0  0  0  0  0  0  0  0  0  0  0  0
    5.9909    0.0314   -0.5492 C   0  0  0  0  0  0  0  0  0  0  0  0
    5.3153   -0.9056    0.2323 C   0  0  0  0  0  0  0  0  0  0  0  0
    4.9339   -2.0436   -0.4259 C   0  0  0  0  0  0  0  0  0  0  0  0
    5.4585   -1.9722   -2.0151 S   0  0  0  0  0  0  0  0  0  0  0  0
    3.8707   -2.7178    0.1805 C   0  0  0  0  0  0  0  0  0  0  0  0
    2.6920   -3.4367   -0.4633 C   0  0  0  0  0  0  0  0  0  0  0  0
    2.9741   -4.9482   -0.4256 C   0  0  0  0  0  0  0  0  0  0  0  0
    2.0935   -5.8742    0.1804 C   0  0  0  0  0  0  0  0  0  0  0  0
    2.3811   -7.2430    0.1761 C   0  0  0  0  0  0  0  0  0  0  0  0
    3.5401   -7.7238   -0.4489 C   0  0  0  0  0  0  0  0  0  0  0  0
    3.8427   -9.1968   -0.4692 C   0  0  0  0  0  0  0  0  0  0  0  0
    4.8128   -9.5678    0.6492 C   0  0  0  0  0  0  0  0  0  0  0  0
    4.4258   -6.8151   -1.0414 C   0  0  0  0  0  0  0  0  0  0  0  0
    4.1458   -5.4474   -1.0321 C   0  0  0  0  0  0  0  0  0  0  0  0
    2.3670   -2.8928   -1.8684 C   0  0  0  0  0  0  0  0  0  0  0  0
    2.2124   -3.7410   -2.9859 C   0  0  0  0  0  0  0  0  0  0  0  0
    2.0132   -3.2098   -4.2629 C   0  0  0  0  0  0  0  0  0  0  0  0
    1.9475   -1.8230   -4.4567 C   0  0  0  0  0  0  0  0  0  0  0  0
    1.7810   -1.2606   -5.8441 C   0  0  0  0  0  0  0  0  0  0  0  0
    0.3091   -1.2068   -6.2387 C   0  0  0  0  0  0  0  0  0  0  0  0
    2.0149   -0.9732   -3.3450 C   0  0  0  0  0  0  0  0  0  0  0  0
    2.2152   -1.5010   -2.0654 C   0  0  0  0  0  0  0  0  0  0  0  0
    1.6020   -3.0174    0.5137 C   0  0  0  0  0  0  0  0  0  0  0  0
    2.1279   -2.3550    1.6258 C   0  0  0  0  0  0  0  0  0  0  0  0
    3.5350   -2.1450    1.3947 C   0  0  0  0  0  0  0  0  0  0  0  0
    4.4091   -0.7073    1.6387 S   0  0  0  0  0  0  0  0  0  0  0  0
    1.3140   -1.7746    2.6082 C   0  0  0  0  0  0  0  0  0  0  0  0
   -0.0741   -1.8444    2.4140 C   0  0  0  0  0  0  0  0  0  0  0  0
   -1.1700   -1.1775    3.2483 C   0  0  0  0  0  0  0  0  0  0  0  0
   -0.7674    0.2746    3.5411 C   0  0  0  0  0  0  0  0  0  0  0  0
   -0.9538    1.2984    2.5888 C   0  0  0  0  0  0  0  0  0  0  0  0
   -0.5088    2.5992    2.8379 C   0  0  0  0  0  0  0  0  0  0  0  0
    0.1787    2.8997    4.0225 C   0  0  0  0  0  0  0  0  0  0  0  0
    0.6589    4.3005    4.2975 C   0  0  0  0  0  0  0  0  0  0  0  0
   -0.2379    4.9989    5.3141 C   0  0  0  0  0  0  0  0  0  0  0  0
    0.4061    1.8819    4.9580 C   0  0  0  0  0  0  0  0  0  0  0  0
   -0.0507    0.5835    4.7160 C   0  0  0  0  0  0  0  0  0  0  0  0
   -1.5610   -1.9731    4.4989 C   0  0  0  0  0  0  0  0  0  0  0  0
   -2.4703   -1.4120    5.4187 C   0  0  0  0  0  0  0  0  0  0  0  0
   -2.9795   -2.1678    6.4781 C   0  0  0  0  0  0  0  0  0  0  0  0
   -2.5898   -3.5026    6.6509 C   0  0  0  0  0  0  0  0  0  0  0  0
   -3.1907   -4.3354    7.7515 C   0  0  0  0  0  0  0  0  0  0  0  0
   -4.3866   -5.1336    7.2375 C   0  0  0  0  0  0  0  0  0  0  0  0
   -1.6895   -4.0749    5.7406 C   0  0  0  0  0  0  0  0  0  0  0  0
   -1.1837   -3.3231    4.6741 C   0  0  0  0  0  0  0  0  0  0  0  0
   -2.3134   -1.3159    2.2701 C   0  0  0  0  0  0  0  0  0  0  0  0
   -1.9808   -2.0681    1.1760 C   0  0  0  0  0  0  0  0  0  0  0  0
   -0.5898   -2.4184    1.2467 C   0  0  0  0  0  0  0  0  0  0  0  0
    0.2159   -3.0254    0.2828 C   0  0  0  0  0  0  0  0  0  0  0  0
   -3.0964   -1.9017   -0.0970 S   0  0  0  0  0  0  0  0  0  0  0  0
   -4.0831   -0.9025    0.8562 C   0  0  0  0  0  0  0  0  0  0  0  0
   -3.5296   -0.6794    2.0861 C   0  0  0  0  0  0  0  0  0  0  0  0
   -4.4493    0.4195    2.9502 S   0  0  0  0  0  0  0  0  0  0  0  0
   -5.5949    0.6029    1.6973 C   0  0  0  0  0  0  0  0  0  0  0  0
   -5.2472   -0.1907    0.5958 C   0  0  0  0  0  0  0  0  0  0  0  0
  -10.0357    3.0744    3.3351 C   0  0  0  0  0  0  0  0  0  0  0  0
   -9.9738    4.0382    4.2703 C   0  0  0  0  0  0  0  0  0  0  0  0
  -11.0824    4.4978    5.1630 C   0  0  0  0  0  0  0  0  0  0  0  0
  -12.4136    4.4699    4.8923 C   0  0  0  0  0  0  0  0  0  0  0  0
  -12.9329    3.9855    3.6391 C   0  0  0  0  0  0  0  0  0  0  0  0
  -13.3587    3.6041    2.6322 N   0  0  0  0  0  0  0  0  0  0  0  0
  -13.3988    5.0364    5.7753 C   0  0  0  0  0  0  0  0  0  0  0  0
  -14.2092    5.4856    6.4724 N   0  0  0  0  0  0  0  0  0  0  0  0
  -10.4118    5.2031    6.2927 C   0  0  0  0  0  0  0  0  0  0  0  0
  -10.9267    5.6811    7.5101 C   0  0  0  0  0  0  0  0  0  0  0  0
  -10.0551    6.2929    8.4251 C   0  0  0  0  0  0  0  0  0  0  0  0
   -8.6846    6.4129    8.1384 C   0  0  0  0  0  0  0  0  0  0  0  0
   -8.1698    5.9044    6.9379 C   0  0  0  0  0  0  0  0  0  0  0  0
   -9.0537    5.3068    6.0373 C   0  0  0  0  0  0  0  0  0  0  0  0
   -8.7394    4.6359    4.7958 C   0  0  0  0  0  0  0  0  0  0  0  0
   -7.5864    4.5457    4.2917 O   0  0  0  0  0  0  0  0  0  0  0  0
    9.6327    1.2236   -6.6388 C   0  0  0  0  0  0  0  0  0  0  0  0
    9.7848    1.3238   -5.3937 O   0  0  0  0  0  0  0  0  0  0  0  0
   10.6868    1.4054   -7.6156 C   0  0  0  0  0  0  0  0  0  0  0  0
   12.0317    1.7012   -7.3849 C   0  0  0  0  0  0  0  0  0  0  0  0
   12.8593    1.9487   -8.4873 C   0  0  0  0  0  0  0  0  0  0  0  0
   12.3275    1.9269   -9.7890 C   0  0  0  0  0  0  0  0  0  0  0  0
   10.9684    1.6439   -9.9993 C   0  0  0  0  0  0  0  0  0  0  0  0
   10.1522    1.3542   -8.8943 C   0  0  0  0  0  0  0  0  0  0  0  0
    8.6984    1.0411   -8.8155 C   0  0  0  0  0  0  0  0  0  0  0  0
    7.9147    0.5656   -9.8183 C   0  0  0  0  0  0  0  0  0  0  0  0
    8.3902    0.4136  -11.1691 C   0  0  0  0  0  0  0  0  0  0  0  0
    8.7597    0.2816  -12.2578 N   0  0  0  0  0  0  0  0  0  0  0  0
    6.5996    0.0301   -9.5754 C   0  0  0  0  0  0  0  0  0  0  0  0
    5.5427   -0.4042   -9.3868 N   0  0  0  0  0  0  0  0  0  0  0  0
    8.3621    1.0680   -7.3596 C   0  0  0  0  0  0  0  0  0  0  0  0
    7.1367    1.2093   -6.8221 C   0  0  0  0  0  0  0  0  0  0  0  0
   -8.8575    2.6023    2.6029 C   0  0  0  0  0  0  0  0  0  0  0  0
   -8.2975    3.2001    1.4804 C   0  0  0  0  0  0  0  0  0  0  0  0
   -7.1567    2.5191    1.0084 C   0  0  0  0  0  0  0  0  0  0  0  0
   -6.8007    1.4306    1.8105 C   0  0  0  0  0  0  0  0  0  0  0  0
   -7.9111    1.2948    3.0643 S   0  0  0  0  0  0  0  0  0  0  0  0
   -8.8283    4.3735    0.9313 O   0  0  0  0  0  0  0  0  0  0  0  0
   -8.0287    5.4914    0.5575 C   0  0  0  0  0  0  0  0  0  0  0  0
   -8.9303    6.6278    0.1061 C   0  0  0  0  0  0  0  0  0  0  0  0
   -6.4466    2.8957   -0.1347 O   0  0  0  0  0  0  0  0  0  0  0  0
   -6.7056    2.3196   -1.4133 C   0  0  0  0  0  0  0  0  0  0  0  0
   -7.7295    3.1385   -2.1848 C   0  0  0  0  0  0  0  0  0  0  0  0
    5.7368    1.5449   -3.3656 C   0  0  0  0  0  0  0  0  0  0  0  0
    5.9389    1.9401   -4.7040 C   0  0  0  0  0  0  0  0  0  0  0  0
    6.8680    1.1555   -5.3784 C   0  0  0  0  0  0  0  0  0  0  0  0
    7.3158   -0.1171   -4.3682 S   0  0  0  0  0  0  0  0  0  0  0  0
    4.8727    2.1699   -2.4551 O   0  0  0  0  0  0  0  0  0  0  0  0
    5.2162    2.9466   -5.3436 O   0  0  0  0  0  0  0  0  0  0  0  0
    4.7382    3.5838   -2.3144 C   0  0  0  0  0  0  0  0  0  0  0  0
    6.0184    4.1940   -1.7545 C   0  0  0  0  0  0  0  0  0  0  0  0
    3.8329    2.7820   -5.6419 C   0  0  0  0  0  0  0  0  0  0  0  0
    3.2749    4.0748   -6.2110 C   0  0  0  0  0  0  0  0  0  0  0  0
    6.2023    1.0435   -0.2312 H   0  0  0  0  0  0  0  0  0  0  0  0
    1.1795   -5.5538    0.6642 H   0  0  0  0  0  0  0  0  0  0  0  0
    1.6876   -7.9279    0.6515 H   0  0  0  0  0  0  0  0  0  0  0  0
    2.9077   -9.7903   -0.3477 H   0  0  0  0  0  0  0  0  0  0  0  0
    4.2855   -9.4783   -1.4489 H   0  0  0  0  0  0  0  0  0  0  0  0
    4.3816   -9.3056    1.6384 H   0  0  0  0  0  0  0  0  0  0  0  0
    5.0048  -10.6614    0.6231 H   0  0  0  0  0  0  0  0  0  0  0  0
    5.7782   -9.0339    0.5150 H   0  0  0  0  0  0  0  0  0  0  0  0
    5.3326   -7.1674   -1.5170 H   0  0  0  0  0  0  0  0  0  0  0  0
    4.8418   -4.7751   -1.5117 H   0  0  0  0  0  0  0  0  0  0  0  0
    2.2533   -4.8166   -2.8911 H   0  0  0  0  0  0  0  0  0  0  0  0
    1.9203   -3.8844   -5.1066 H   0  0  0  0  0  0  0  0  0  0  0  0
    2.3339   -1.8922   -6.5727 H   0  0  0  0  0  0  0  0  0  0  0  0
    2.2111   -0.2372   -5.8997 H   0  0  0  0  0  0  0  0  0  0  0  0
    0.2185   -0.8440   -7.2839 H   0  0  0  0  0  0  0  0  0  0  0  0
   -0.2440   -0.5106   -5.5732 H   0  0  0  0  0  0  0  0  0  0  0  0
   -0.1512   -2.2178   -6.1724 H   0  0  0  0  0  0  0  0  0  0  0  0
    1.9374    0.0997   -3.4677 H   0  0  0  0  0  0  0  0  0  0  0  0
    2.2968   -0.8166   -1.2300 H   0  0  0  0  0  0  0  0  0  0  0  0
    1.7454   -1.2313    3.4395 H   0  0  0  0  0  0  0  0  0  0  0  0
   -1.4352    1.0980    1.6393 H   0  0  0  0  0  0  0  0  0  0  0  0
   -0.6854    3.3676    2.0942 H   0  0  0  0  0  0  0  0  0  0  0  0
    0.6787    4.8978    3.3595 H   0  0  0  0  0  0  0  0  0  0  0  0
    1.6990    4.2638    4.6878 H   0  0  0  0  0  0  0  0  0  0  0  0
   -1.2849    5.0314    4.9476 H   0  0  0  0  0  0  0  0  0  0  0  0
   -0.2041    4.4665    6.2876 H   0  0  0  0  0  0  0  0  0  0  0  0
    0.1194    6.0381    5.4694 H   0  0  0  0  0  0  0  0  0  0  0  0
    0.9486    2.0917    5.8719 H   0  0  0  0  0  0  0  0  0  0  0  0
    0.1720   -0.1837    5.4479 H   0  0  0  0  0  0  0  0  0  0  0  0
   -2.8075   -0.3900    5.3026 H   0  0  0  0  0  0  0  0  0  0  0  0
   -3.6901   -1.7126    7.1585 H   0  0  0  0  0  0  0  0  0  0  0  0
   -3.5190   -3.6836    8.5905 H   0  0  0  0  0  0  0  0  0  0  0  0
   -2.4271   -5.0340    8.1574 H   0  0  0  0  0  0  0  0  0  0  0  0
   -4.0605   -5.8459    6.4527 H   0  0  0  0  0  0  0  0  0  0  0  0
   -4.8321   -5.7106    8.0745 H   0  0  0  0  0  0  0  0  0  0  0  0
   -5.1568   -4.4515    6.8189 H   0  0  0  0  0  0  0  0  0  0  0  0
   -1.3919   -5.1106    5.8468 H   0  0  0  0  0  0  0  0  0  0  0  0
   -0.5221   -3.8190    3.9785 H   0  0  0  0  0  0  0  0  0  0  0  0
   -0.2011   -3.4229   -0.6328 H   0  0  0  0  0  0  0  0  0  0  0  0
   -5.8007   -0.2632   -0.3298 H   0  0  0  0  0  0  0  0  0  0  0  0
  -10.9470    2.5223    3.1677 H   0  0  0  0  0  0  0  0  0  0  0  0
  -11.9588    5.5605    7.7886 H   0  0  0  0  0  0  0  0  0  0  0  0
  -10.4382    6.6590    9.3681 H   0  0  0  0  0  0  0  0  0  0  0  0
   -8.0213    6.8807    8.8556 H   0  0  0  0  0  0  0  0  0  0  0  0
   -7.1085    5.9564    6.7257 H   0  0  0  0  0  0  0  0  0  0  0  0
   12.4255    1.7524   -6.3771 H   0  0  0  0  0  0  0  0  0  0  0  0
   13.9073    2.1786   -8.3366 H   0  0  0  0  0  0  0  0  0  0  0  0
   12.9679    2.1438  -10.6320 H   0  0  0  0  0  0  0  0  0  0  0  0
   10.5812    1.6960  -11.0016 H   0  0  0  0  0  0  0  0  0  0  0  0
    6.2877    1.4047   -7.4584 H   0  0  0  0  0  0  0  0  0  0  0  0
   -7.4316    5.8257    1.4314 H   0  0  0  0  0  0  0  0  0  0  0  0
   -7.3414    5.2280   -0.2654 H   0  0  0  0  0  0  0  0  0  0  0  0
   -8.3158    7.5142   -0.1569 H   0  0  0  0  0  0  0  0  0  0  0  0
   -9.6308    6.9048    0.9228 H   0  0  0  0  0  0  0  0  0  0  0  0
   -9.5166    6.3172   -0.7861 H   0  0  0  0  0  0  0  0  0  0  0  0
   -5.7572    2.2886   -1.9885 H   0  0  0  0  0  0  0  0  0  0  0  0
   -7.0888    1.2841   -1.3098 H   0  0  0  0  0  0  0  0  0  0  0  0
   -8.6898    3.1708   -1.6246 H   0  0  0  0  0  0  0  0  0  0  0  0
   -7.9129    2.6682   -3.1731 H   0  0  0  0  0  0  0  0  0  0  0  0
   -7.3556    4.1719   -2.3498 H   0  0  0  0  0  0  0  0  0  0  0  0
    4.4807    4.0641   -3.2762 H   0  0  0  0  0  0  0  0  0  0  0  0
    3.9070    3.7872   -1.6072 H   0  0  0  0  0  0  0  0  0  0  0  0
    6.2619    3.7409   -0.7706 H   0  0  0  0  0  0  0  0  0  0  0  0
    6.8600    4.0247   -2.4578 H   0  0  0  0  0  0  0  0  0  0  0  0
    5.8789    5.2872   -1.6265 H   0  0  0  0  0  0  0  0  0  0  0  0
    3.7112    1.9689   -6.3884 H   0  0  0  0  0  0  0  0  0  0  0  0
    3.2689    2.5093   -4.7256 H   0  0  0  0  0  0  0  0  0  0  0  0
    3.4038    4.9043   -5.4816 H   0  0  0  0  0  0  0  0  0  0  0  0
    3.8039    4.3337   -7.1528 H   0  0  0  0  0  0  0  0  0  0  0  0
    2.1925    3.9511   -6.4285 H   0  0  0  0  0  0  0  0  0  0  0  0
  1  2  1  0
  2  3  2  0
  3  4  1  0
  4  5  2  0
  5  6  1  0
  2  6  1  0
  5  7  1  0
  7  8  1  0
  8  9  1  0
  9 10  2  0
 10 11  1  0
 11 12  2  0
 12 13  1  0
 13 14  1  0
 12 15  1  0
 15 16  2  0
  9 16  1  0
  8 17  1  0
 17 18  2  0
 18 19  1  0
 19 20  2  0
 20 21  1  0
 21 22  1  0
 20 23  1  0
 23 24  2  0
 17 24  1  0
  8 25  1  0
 25 26  2  0
 26 27  1  0
  7 27  2  0
 27 28  1  0
  4 28  1  0
 26 29  1  0
 29 30  2  0
 30 31  1  0
 31 32  1  0
 32 33  2  0
 33 34  1  0
 34 35  2  0
 35 36  1  0
 36 37  1  0
 35 38  1  0
 38 39  2  0
 32 39  1  0
 31 40  1  0
 40 41  2  0
 41 42  1  0
 42 43  2  0
 43 44  1  0
 44 45  1  0
 43 46  1  0
 46 47  2  0
 40 47  1  0
 31 48  1  0
 48 49  2  0
 49 50  1  0
 30 50  1  0
 50 51  2  0
 25 51  1  0
 49 52  1  0
 52 53  1  0
 53 54  2  0
 48 54  1  0
 54 55  1  0
 55 56  1  0
 56 57  2  0
 53 57  1  0
 58 59  2  0
 59 60  1  0
 60 61  2  0
 61 62  1  0
 62 63  3  0
 61 64  1  0
 64 65  3  0
 60 66  1  0
 66 67  2  0
 67 68  1  0
 68 69  2  0
 69 70  1  0
 70 71  2  0
 66 71  1  0
 71 72  1  0
 59 72  1  0
 72 73  2  0
 74 75  2  0
 74 76  1  0
 76 77  2  0
 77 78  1  0
 78 79  2  0
 79 80  1  0
 80 81  2  0
 76 81  1  0
 81 82  1  0
 82 83  2  0
 83 84  1  0
 84 85  3  0
 83 86  1  0
 86 87  3  0
 82 88  1  0
 74 88  1  0
 88 89  2  0
 58 90  1  0
 90 91  2  0
 91 92  1  0
 92 93  2  0
 93 94  1  0
 94 90  1  0
 91 95  1  0
 95 96  1  0
 96 97  1  0
 92 98  1  0
 98 99  1  0
 99100  1  0
 93 56  1  0
  1101  2  0
101102  1  0
102103  2  0
103104  1  0
104  1  1  0
101105  1  0
102106  1  0
105107  1  0
107108  1  0
106109  1  0
103 89  1  0
109110  1  0
  3111  1  0
 10112  1  0
 11113  1  0
 13114  1  0
 13115  1  0
 14116  1  0
 14117  1  0
 14118  1  0
 15119  1  0
 16120  1  0
 18121  1  0
 19122  1  0
 21123  1  0
 21124  1  0
 22125  1  0
 22126  1  0
 22127  1  0
 23128  1  0
 24129  1  0
 29130  1  0
 33131  1  0
 34132  1  0
 36133  1  0
 36134  1  0
 37135  1  0
 37136  1  0
 37137  1  0
 38138  1  0
 39139  1  0
 41140  1  0
 42141  1  0
 44142  1  0
 44143  1  0
 45144  1  0
 45145  1  0
 45146  1  0
 46147  1  0
 47148  1  0
 51149  1  0
 57150  1  0
 58151  1  0
 67152  1  0
 68153  1  0
 69154  1  0
 70155  1  0
 77156  1  0
 78157  1  0
 79158  1  0
 80159  1  0
 89160  1  0
 96161  1  0
 96162  1  0
 97163  1  0
 97164  1  0
 97165  1  0
 99166  1  0
 99167  1  0
100168  1  0
100169  1  0
100170  1  0
107171  1  0
107172  1  0
108173  1  0
108174  1  0
108175  1  0
109176  1  0
109177  1  0
110178  1  0
110179  1  0
110180  1  0
M  END

