IT-M.sdf
     RDKit          3D

144158  0  0  0  0  0  0  0  0999 V2000
    3.8980   -6.0847   -0.4157 C   0  0  0  0  0  0  0  0  0  0  0  0
    3.4027   -5.0894    0.1837 O   0  0  0  0  0  0  0  0  0  0  0  0
    4.8369   -7.0264    0.1562 C   0  0  0  0  0  0  0  0  0  0  0  0
    5.4189   -7.0450    1.4225 C   0  0  0  0  0  0  0  0  0  0  0  0
    6.3220   -8.0741    1.7282 C   0  0  0  0  0  0  0  0  0  0  0  0
    6.6298   -9.0700    0.7654 C   0  0  0  0  0  0  0  0  0  0  0  0
    5.9982   -9.0414   -0.4914 C   0  0  0  0  0  0  0  0  0  0  0  0
    5.1080   -8.0041   -0.7786 C   0  0  0  0  0  0  0  0  0  0  0  0
    4.3340   -7.8008   -2.0264 C   0  0  0  0  0  0  0  0  0  0  0  0
    4.8580   -8.0693   -3.2257 C   0  0  0  0  0  0  0  0  0  0  0  0
    4.4277   -9.2995   -3.8265 C   0  0  0  0  0  0  0  0  0  0  0  0
    4.0858  -10.3280   -4.2477 N   0  0  0  0  0  0  0  0  0  0  0  0
    6.2232   -7.6969   -3.4955 C   0  0  0  0  0  0  0  0  0  0  0  0
    7.3302   -7.4031   -3.6754 N   0  0  0  0  0  0  0  0  0  0  0  0
    3.5859   -6.5438   -1.7820 C   0  0  0  0  0  0  0  0  0  0  0  0
    2.7384   -5.9835   -2.6622 C   0  0  0  0  0  0  0  0  0  0  0  0
    2.0914   -4.6771   -2.4786 C   0  0  0  0  0  0  0  0  0  0  0  0
    0.7307   -4.4286   -2.7039 C   0  0  0  0  0  0  0  0  0  0  0  0
    0.4566   -3.0622   -2.6521 C   0  0  0  0  0  0  0  0  0  0  0  0
    1.5440   -2.2668   -2.4415 C   0  0  0  0  0  0  0  0  0  0  0  0
    2.9347   -3.1992   -2.2789 S   0  0  0  0  0  0  0  0  0  0  0  0
    1.2427   -0.9181   -2.3841 C   0  0  0  0  0  0  0  0  0  0  0  0
    1.9917    0.3432   -2.0118 C   0  0  0  0  0  0  0  0  0  0  0  0
    2.7704    0.9579   -3.1869 C   0  0  0  0  0  0  0  0  0  0  0  0
    3.4832    2.1528   -2.9775 C   0  0  0  0  0  0  0  0  0  0  0  0
    4.1077    2.8131   -4.0395 C   0  0  0  0  0  0  0  0  0  0  0  0
    4.0530    2.2842   -5.3342 C   0  0  0  0  0  0  0  0  0  0  0  0
    4.6560    3.0416   -6.4834 C   0  0  0  0  0  0  0  0  0  0  0  0
    3.6615    4.0517   -7.0528 C   0  0  0  0  0  0  0  0  0  0  0  0
    3.3359    1.0959   -5.5592 C   0  0  0  0  0  0  0  0  0  0  0  0
    2.7136    0.4377   -4.5000 C   0  0  0  0  0  0  0  0  0  0  0  0
    2.8610    0.1018   -0.7713 C   0  0  0  0  0  0  0  0  0  0  0  0
    4.2228   -0.2379   -0.9188 C   0  0  0  0  0  0  0  0  0  0  0  0
    5.0483   -0.3423    0.2029 C   0  0  0  0  0  0  0  0  0  0  0  0
    4.5331   -0.1576    1.4928 C   0  0  0  0  0  0  0  0  0  0  0  0
    5.4531   -0.1514    2.6804 C   0  0  0  0  0  0  0  0  0  0  0  0
    6.0100    1.2476    2.9093 C   0  0  0  0  0  0  0  0  0  0  0  0
    3.1651    0.0927    1.6501 C   0  0  0  0  0  0  0  0  0  0  0  0
    2.3259    0.1861    0.5357 C   0  0  0  0  0  0  0  0  0  0  0  0
    0.7823    1.2516   -1.7551 C   0  0  0  0  0  0  0  0  0  0  0  0
   -0.4139    0.6613   -2.1815 C   0  0  0  0  0  0  0  0  0  0  0  0
   -0.0966   -0.7017   -2.5598 C   0  0  0  0  0  0  0  0  0  0  0  0
   -0.9729   -2.1464   -2.7399 S   0  0  0  0  0  0  0  0  0  0  0  0
   -1.6582    1.2742   -1.9891 C   0  0  0  0  0  0  0  0  0  0  0  0
   -1.6712    2.4943   -1.2804 C   0  0  0  0  0  0  0  0  0  0  0  0
   -2.8846    3.2581   -0.7482 C   0  0  0  0  0  0  0  0  0  0  0  0
   -3.3278    4.3951   -1.6834 C   0  0  0  0  0  0  0  0  0  0  0  0
   -2.6960    4.6377   -2.9268 C   0  0  0  0  0  0  0  0  0  0  0  0
   -2.9629    5.8072   -3.6465 C   0  0  0  0  0  0  0  0  0  0  0  0
   -3.8760    6.7474   -3.1534 C   0  0  0  0  0  0  0  0  0  0  0  0
   -4.1290    8.0240   -3.9115 C   0  0  0  0  0  0  0  0  0  0  0  0
   -5.0110    7.7675   -5.1264 C   0  0  0  0  0  0  0  0  0  0  0  0
   -4.5597    6.4801   -1.9571 C   0  0  0  0  0  0  0  0  0  0  0  0
   -4.2796    5.3295   -1.2251 C   0  0  0  0  0  0  0  0  0  0  0  0
   -4.0022    2.2864   -0.3527 C   0  0  0  0  0  0  0  0  0  0  0  0
   -3.8062    1.3665    0.6994 C   0  0  0  0  0  0  0  0  0  0  0  0
   -4.8098    0.4558    1.0489 C   0  0  0  0  0  0  0  0  0  0  0  0
   -6.0133    0.4134    0.3245 C   0  0  0  0  0  0  0  0  0  0  0  0
   -7.0877   -0.5833    0.6816 C   0  0  0  0  0  0  0  0  0  0  0  0
   -8.3469    0.1219    1.1980 C   0  0  0  0  0  0  0  0  0  0  0  0
   -6.1783    1.2735   -0.7758 C   0  0  0  0  0  0  0  0  0  0  0  0
   -5.1882    2.1921   -1.1110 C   0  0  0  0  0  0  0  0  0  0  0  0
   -2.2040    3.9461    0.4178 C   0  0  0  0  0  0  0  0  0  0  0  0
   -0.8355    3.9382    0.2965 C   0  0  0  0  0  0  0  0  0  0  0  0
   -0.4840    3.0159   -0.7532 C   0  0  0  0  0  0  0  0  0  0  0  0
    0.7630    2.4437   -1.0135 C   0  0  0  0  0  0  0  0  0  0  0  0
   -0.0874    4.1974    1.8009 S   0  0  0  0  0  0  0  0  0  0  0  0
   -1.5679    4.4309    2.5886 C   0  0  0  0  0  0  0  0  0  0  0  0
   -2.6096    4.2450    1.7217 C   0  0  0  0  0  0  0  0  0  0  0  0
   -4.0304    4.0142    2.5895 S   0  0  0  0  0  0  0  0  0  0  0  0
   -3.2748    4.1811    4.1025 C   0  0  0  0  0  0  0  0  0  0  0  0
   -1.9005    4.4121    3.9373 C   0  0  0  0  0  0  0  0  0  0  0  0
   -3.8891    3.8001    5.3831 C   0  0  0  0  0  0  0  0  0  0  0  0
   -3.6033    2.6297    5.9932 C   0  0  0  0  0  0  0  0  0  0  0  0
   -3.8979    2.2652    7.4146 C   0  0  0  0  0  0  0  0  0  0  0  0
   -4.9478    2.6979    8.1588 C   0  0  0  0  0  0  0  0  0  0  0  0
   -5.1394    2.3265    9.5359 C   0  0  0  0  0  0  0  0  0  0  0  0
   -5.3055    2.0402   10.6504 N   0  0  0  0  0  0  0  0  0  0  0  0
   -6.0320    3.4440    7.5752 C   0  0  0  0  0  0  0  0  0  0  0  0
   -6.9123    4.0142    7.0918 N   0  0  0  0  0  0  0  0  0  0  0  0
   -2.9508    1.1582    7.7450 C   0  0  0  0  0  0  0  0  0  0  0  0
   -2.6725    0.5075    8.9609 C   0  0  0  0  0  0  0  0  0  0  0  0
   -1.7191   -0.5342    8.9827 C   0  0  0  0  0  0  0  0  0  0  0  0
   -1.0796   -0.9282    7.7925 C   0  0  0  0  0  0  0  0  0  0  0  0
   -1.3399   -0.2655    6.5881 C   0  0  0  0  0  0  0  0  0  0  0  0
   -2.2758    0.7687    6.5971 C   0  0  0  0  0  0  0  0  0  0  0  0
   -2.6681    1.6131    5.4922 C   0  0  0  0  0  0  0  0  0  0  0  0
   -2.2743    1.4759    4.3022 O   0  0  0  0  0  0  0  0  0  0  0  0
   -1.4166   -1.2627   10.2627 C   0  0  0  0  0  0  0  0  0  0  0  0
    7.5933  -10.1702    1.0911 C   0  0  0  0  0  0  0  0  0  0  0  0
    5.1842   -6.2801    2.1527 H   0  0  0  0  0  0  0  0  0  0  0  0
    6.7777   -8.1084    2.7083 H   0  0  0  0  0  0  0  0  0  0  0  0
    6.2054   -9.8074   -1.2294 H   0  0  0  0  0  0  0  0  0  0  0  0
    2.5030   -6.5194   -3.5752 H   0  0  0  0  0  0  0  0  0  0  0  0
   -0.0115   -5.1996   -2.8925 H   0  0  0  0  0  0  0  0  0  0  0  0
    3.5358    2.5926   -1.9921 H   0  0  0  0  0  0  0  0  0  0  0  0
    4.6025    3.7512   -3.8482 H   0  0  0  0  0  0  0  0  0  0  0  0
    4.9651    2.3357   -7.2828 H   0  0  0  0  0  0  0  0  0  0  0  0
    5.5748    3.5743   -6.1474 H   0  0  0  0  0  0  0  0  0  0  0  0
    4.1580    4.6602   -7.8347 H   0  0  0  0  0  0  0  0  0  0  0  0
    3.2904    4.7340   -6.2556 H   0  0  0  0  0  0  0  0  0  0  0  0
    2.8039    3.5145   -7.5115 H   0  0  0  0  0  0  0  0  0  0  0  0
    3.2440    0.6917   -6.5615 H   0  0  0  0  0  0  0  0  0  0  0  0
    2.1628   -0.4668   -4.7250 H   0  0  0  0  0  0  0  0  0  0  0  0
    4.6553   -0.3814   -1.8960 H   0  0  0  0  0  0  0  0  0  0  0  0
    6.1034   -0.5490    0.0584 H   0  0  0  0  0  0  0  0  0  0  0  0
    6.2878   -0.8678    2.5224 H   0  0  0  0  0  0  0  0  0  0  0  0
    4.9015   -0.4787    3.5970 H   0  0  0  0  0  0  0  0  0  0  0  0
    5.1858    1.9780    3.0563 H   0  0  0  0  0  0  0  0  0  0  0  0
    6.6488    1.2534    3.8140 H   0  0  0  0  0  0  0  0  0  0  0  0
    6.6287    1.5620    2.0412 H   0  0  0  0  0  0  0  0  0  0  0  0
    2.7382    0.2321    2.6383 H   0  0  0  0  0  0  0  0  0  0  0  0
    1.2750    0.3714    0.6951 H   0  0  0  0  0  0  0  0  0  0  0  0
   -2.5766    0.7845   -2.2922 H   0  0  0  0  0  0  0  0  0  0  0  0
   -1.9523    3.9621   -3.3284 H   0  0  0  0  0  0  0  0  0  0  0  0
   -2.4419    5.9842   -4.5789 H   0  0  0  0  0  0  0  0  0  0  0  0
   -3.1622    8.4628   -4.2388 H   0  0  0  0  0  0  0  0  0  0  0  0
   -4.6203    8.7758   -3.2564 H   0  0  0  0  0  0  0  0  0  0  0  0
   -4.4820    7.1051   -5.8493 H   0  0  0  0  0  0  0  0  0  0  0  0
   -5.9638    7.2893   -4.8179 H   0  0  0  0  0  0  0  0  0  0  0  0
   -5.2454    8.7284   -5.6276 H   0  0  0  0  0  0  0  0  0  0  0  0
   -5.2831    7.1905   -1.5749 H   0  0  0  0  0  0  0  0  0  0  0  0
   -4.7893    5.1690   -0.2832 H   0  0  0  0  0  0  0  0  0  0  0  0
   -2.8786    1.3615    1.2555 H   0  0  0  0  0  0  0  0  0  0  0  0
   -4.6442   -0.2213    1.8770 H   0  0  0  0  0  0  0  0  0  0  0  0
   -6.7239   -1.2833    1.4708 H   0  0  0  0  0  0  0  0  0  0  0  0
   -7.3373   -1.1861   -0.2135 H   0  0  0  0  0  0  0  0  0  0  0  0
   -9.0792   -0.6358    1.5418 H   0  0  0  0  0  0  0  0  0  0  0  0
   -8.1004    0.7906    2.0516 H   0  0  0  0  0  0  0  0  0  0  0  0
   -8.8107    0.7199    0.3812 H   0  0  0  0  0  0  0  0  0  0  0  0
   -7.0873    1.2338   -1.3665 H   0  0  0  0  0  0  0  0  0  0  0  0
   -5.3636    2.8233   -1.9695 H   0  0  0  0  0  0  0  0  0  0  0  0
    1.6566    2.8452   -0.5542 H   0  0  0  0  0  0  0  0  0  0  0  0
   -1.1780    4.4049    4.7416 H   0  0  0  0  0  0  0  0  0  0  0  0
   -4.4846    4.5483    5.8735 H   0  0  0  0  0  0  0  0  0  0  0  0
   -3.1444    0.8029    9.8800 H   0  0  0  0  0  0  0  0  0  0  0  0
   -0.3645   -1.7361    7.7988 H   0  0  0  0  0  0  0  0  0  0  0  0
   -0.8226   -0.5452    5.6758 H   0  0  0  0  0  0  0  0  0  0  0  0
   -0.3299   -1.4936   10.3217 H   0  0  0  0  0  0  0  0  0  0  0  0
   -1.6878   -0.6470   11.1492 H   0  0  0  0  0  0  0  0  0  0  0  0
   -1.9945   -2.2117   10.2910 H   0  0  0  0  0  0  0  0  0  0  0  0
    7.0387  -11.0637    1.4546 H   0  0  0  0  0  0  0  0  0  0  0  0
    8.1737  -10.4484    0.1834 H   0  0  0  0  0  0  0  0  0  0  0  0
    8.3180   -9.8506    1.8747 H   0  0  0  0  0  0  0  0  0  0  0  0
  1  2  2  0
  1  3  1  0
  3  4  2  0
  4  5  1  0
  5  6  2  0
  6  7  1  0
  7  8  2  0
  3  8  1  0
  8  9  1  0
  9 10  2  0
 10 11  1  0
 11 12  3  0
 10 13  1  0
 13 14  3  0
  9 15  1  0
  1 15  1  0
 15 16  2  0
 16 17  1  0
 17 18  2  0
 18 19  1  0
 19 20  2  0
 20 21  1  0
 17 21  1  0
 20 22  1  0
 22 23  1  0
 23 24  1  0
 24 25  2  0
 25 26  1  0
 26 27  2  0
 27 28  1  0
 28 29  1  0
 27 30  1  0
 30 31  2  0
 24 31  1  0
 23 32  1  0
 32 33  2  0
 33 34  1  0
 34 35  2  0
 35 36  1  0
 36 37  1  0
 35 38  1  0
 38 39  2  0
 32 39  1  0
 23 40  1  0
 40 41  2  0
 41 42  1  0
 22 42  2  0
 42 43  1  0
 19 43  1  0
 41 44  1  0
 44 45  2  0
 45 46  1  0
 46 47  1  0
 47 48  2  0
 48 49  1  0
 49 50  2  0
 50 51  1  0
 51 52  1  0
 50 53  1  0
 53 54  2  0
 47 54  1  0
 46 55  1  0
 55 56  2  0
 56 57  1  0
 57 58  2  0
 58 59  1  0
 59 60  1  0
 58 61  1  0
 61 62  2  0
 55 62  1  0
 46 63  1  0
 63 64  2  0
 64 65  1  0
 45 65  1  0
 65 66  2  0
 40 66  1  0
 64 67  1  0
 67 68  1  0
 68 69  2  0
 63 69  1  0
 69 70  1  0
 70 71  1  0
 71 72  2  0
 68 72  1  0
 71 73  1  0
 73 74  2  0
 74 75  1  0
 75 76  2  0
 76 77  1  0
 77 78  3  0
 76 79  1  0
 79 80  3  0
 75 81  1  0
 81 82  2  0
 82 83  1  0
 83 84  2  0
 84 85  1  0
 85 86  2  0
 81 86  1  0
 86 87  1  0
 74 87  1  0
 87 88  2  0
 83 89  1  0
  6 90  1  0
  4 91  1  0
  5 92  1  0
  7 93  1  0
 16 94  1  0
 18 95  1  0
 25 96  1  0
 26 97  1  0
 28 98  1  0
 28 99  1  0
 29100  1  0
 29101  1  0
 29102  1  0
 30103  1  0
 31104  1  0
 33105  1  0
 34106  1  0
 36107  1  0
 36108  1  0
 37109  1  0
 37110  1  0
 37111  1  0
 38112  1  0
 39113  1  0
 44114  1  0
 48115  1  0
 49116  1  0
 51117  1  0
 51118  1  0
 52119  1  0
 52120  1  0
 52121  1  0
 53122  1  0
 54123  1  0
 56124  1  0
 57125  1  0
 59126  1  0
 59127  1  0
 60128  1  0
 60129  1  0
 60130  1  0
 61131  1  0
 62132  1  0
 66133  1  0
 72134  1  0
 73135  1  0
 82136  1  0
 84137  1  0
 85138  1  0
 89139  1  0
 89140  1  0
 89141  1  0
 90142  1  0
 90143  1  0
 90144  1  0
M  END

