IT-OM-4.sdf
     RDKit          3D

146160  0  0  0  0  0  0  0  0999 V2000
    2.9536    0.0671    6.6748 C   0  0  0  0  0  0  0  0  0  0  0  0
    2.5624   -0.1575    5.4978 O   0  0  0  0  0  0  0  0  0  0  0  0
    4.0559   -0.6188    7.3220 C   0  0  0  0  0  0  0  0  0  0  0  0
    4.7600   -1.7467    6.8838 C   0  0  0  0  0  0  0  0  0  0  0  0
    5.7414   -2.2854    7.7404 C   0  0  0  0  0  0  0  0  0  0  0  0
    5.9813   -1.7032    8.9991 C   0  0  0  0  0  0  0  0  0  0  0  0
    5.2644   -0.5727    9.4113 C   0  0  0  0  0  0  0  0  0  0  0  0
    4.3203   -0.0076    8.5374 C   0  0  0  0  0  0  0  0  0  0  0  0
    3.4278    1.1705    8.7258 C   0  0  0  0  0  0  0  0  0  0  0  0
    3.6197    2.1813    9.6134 C   0  0  0  0  0  0  0  0  0  0  0  0
    2.7413    3.3201    9.7192 C   0  0  0  0  0  0  0  0  0  0  0  0
    2.0446    4.2422    9.8240 N   0  0  0  0  0  0  0  0  0  0  0  0
    4.7834    2.2569   10.4569 C   0  0  0  0  0  0  0  0  0  0  0  0
    5.7309    2.3429   11.1206 N   0  0  0  0  0  0  0  0  0  0  0  0
    2.4576    1.1161    7.5792 C   0  0  0  0  0  0  0  0  0  0  0  0
    1.3297    1.8357    7.4074 C   0  0  0  0  0  0  0  0  0  0  0  0
    0.4417    1.6939    6.2435 C   0  0  0  0  0  0  0  0  0  0  0  0
   -0.2465    0.5342    5.8543 C   0  0  0  0  0  0  0  0  0  0  0  0
   -0.9942    0.7761    4.7047 C   0  0  0  0  0  0  0  0  0  0  0  0
   -0.9058    2.0445    4.2093 C   0  0  0  0  0  0  0  0  0  0  0  0
    0.1258    2.9644    5.1563 S   0  0  0  0  0  0  0  0  0  0  0  0
   -1.4526    2.2007    2.9401 C   0  0  0  0  0  0  0  0  0  0  0  0
   -1.1033    3.1530    1.8140 C   0  0  0  0  0  0  0  0  0  0  0  0
   -2.1064    4.3180    1.8421 C   0  0  0  0  0  0  0  0  0  0  0  0
   -2.8624    4.6964    0.7096 C   0  0  0  0  0  0  0  0  0  0  0  0
   -3.8618    5.6728    0.8056 C   0  0  0  0  0  0  0  0  0  0  0  0
   -4.1154    6.3169    2.0228 C   0  0  0  0  0  0  0  0  0  0  0  0
   -5.2467    7.3012    2.1472 C   0  0  0  0  0  0  0  0  0  0  0  0
   -6.4951    6.6199    2.7042 C   0  0  0  0  0  0  0  0  0  0  0  0
   -3.3278    5.9992    3.1383 C   0  0  0  0  0  0  0  0  0  0  0  0
   -2.3342    5.0174    3.0486 C   0  0  0  0  0  0  0  0  0  0  0  0
    0.3727    3.5710    1.8622 C   0  0  0  0  0  0  0  0  0  0  0  0
    1.3703    2.5730    1.8617 C   0  0  0  0  0  0  0  0  0  0  0  0
    2.7215    2.9072    1.9469 C   0  0  0  0  0  0  0  0  0  0  0  0
    3.1080    4.2484    2.0562 C   0  0  0  0  0  0  0  0  0  0  0  0
    4.5658    4.6143    2.1266 C   0  0  0  0  0  0  0  0  0  0  0  0
    5.1219    4.8889    0.7350 C   0  0  0  0  0  0  0  0  0  0  0  0
    2.1308    5.2504    2.0362 C   0  0  0  0  0  0  0  0  0  0  0  0
    0.7792    4.9190    1.9379 C   0  0  0  0  0  0  0  0  0  0  0  0
   -1.3548    2.2062    0.6399 C   0  0  0  0  0  0  0  0  0  0  0  0
   -1.9855    1.0276    1.0485 C   0  0  0  0  0  0  0  0  0  0  0  0
   -2.0234    1.0297    2.4918 C   0  0  0  0  0  0  0  0  0  0  0  0
   -1.7505   -0.2467    3.5880 S   0  0  0  0  0  0  0  0  0  0  0  0
   -2.3060   -0.0007    0.1535 C   0  0  0  0  0  0  0  0  0  0  0  0
   -1.9357    0.1821   -1.1925 C   0  0  0  0  0  0  0  0  0  0  0  0
   -2.1668   -0.7512   -2.3829 C   0  0  0  0  0  0  0  0  0  0  0  0
   -1.7993   -2.2133   -2.0892 C   0  0  0  0  0  0  0  0  0  0  0  0
   -2.5070   -3.2780   -2.6966 C   0  0  0  0  0  0  0  0  0  0  0  0
   -2.1123   -4.6039   -2.5073 C   0  0  0  0  0  0  0  0  0  0  0  0
   -0.9793   -4.8998   -1.7434 C   0  0  0  0  0  0  0  0  0  0  0  0
   -0.5714   -6.3286   -1.5240 C   0  0  0  0  0  0  0  0  0  0  0  0
   -1.3438   -6.9325   -0.3528 C   0  0  0  0  0  0  0  0  0  0  0  0
   -0.2548   -3.8508   -1.1503 C   0  0  0  0  0  0  0  0  0  0  0  0
   -0.6523   -2.5227   -1.3318 C   0  0  0  0  0  0  0  0  0  0  0  0
   -3.6259   -0.5804   -2.8427 C   0  0  0  0  0  0  0  0  0  0  0  0
   -4.6752   -0.9880   -1.9944 C   0  0  0  0  0  0  0  0  0  0  0  0
   -6.0063   -0.8664   -2.3903 C   0  0  0  0  0  0  0  0  0  0  0  0
   -6.3301   -0.3168   -3.6380 C   0  0  0  0  0  0  0  0  0  0  0  0
   -7.7597   -0.2527   -4.0905 C   0  0  0  0  0  0  0  0  0  0  0  0
   -8.1741   -1.5638   -4.7525 C   0  0  0  0  0  0  0  0  0  0  0  0
   -5.3008    0.0960   -4.4921 C   0  0  0  0  0  0  0  0  0  0  0  0
   -3.9619   -0.0341   -4.1026 C   0  0  0  0  0  0  0  0  0  0  0  0
   -1.1744   -0.1356   -3.3539 C   0  0  0  0  0  0  0  0  0  0  0  0
   -0.6688    1.0605   -2.8914 C   0  0  0  0  0  0  0  0  0  0  0  0
   -1.1705    1.2876   -1.5610 C   0  0  0  0  0  0  0  0  0  0  0  0
   -0.8722    2.3280   -0.6749 C   0  0  0  0  0  0  0  0  0  0  0  0
    0.8831    1.3580   -3.5263 S   0  0  0  0  0  0  0  0  0  0  0  0
    0.8389   -0.0298   -4.4912 C   0  0  0  0  0  0  0  0  0  0  0  0
   -0.3208   -0.7164   -4.2898 C   0  0  0  0  0  0  0  0  0  0  0  0
   -0.2459   -2.1876   -5.0866 S   0  0  0  0  0  0  0  0  0  0  0  0
    1.3458   -1.9457   -5.6703 C   0  0  0  0  0  0  0  0  0  0  0  0
    1.7986   -0.6816   -5.2521 C   0  0  0  0  0  0  0  0  0  0  0  0
    2.1297   -2.8000   -6.5949 C   0  0  0  0  0  0  0  0  0  0  0  0
    1.9066   -4.0848   -6.9463 C   0  0  0  0  0  0  0  0  0  0  0  0
    2.6286   -4.8412   -8.0284 C   0  0  0  0  0  0  0  0  0  0  0  0
    3.2467   -4.3186   -9.1245 C   0  0  0  0  0  0  0  0  0  0  0  0
    3.2971   -2.9035   -9.3942 C   0  0  0  0  0  0  0  0  0  0  0  0
    3.3409   -1.7666   -9.6185 N   0  0  0  0  0  0  0  0  0  0  0  0
    3.7871   -5.1274  -10.1878 C   0  0  0  0  0  0  0  0  0  0  0  0
    4.2186   -5.7590  -11.0550 N   0  0  0  0  0  0  0  0  0  0  0  0
    2.2893   -6.2791   -7.8184 C   0  0  0  0  0  0  0  0  0  0  0  0
    2.7895   -7.4396   -8.4365 C   0  0  0  0  0  0  0  0  0  0  0  0
    2.2628   -8.6894   -8.0723 C   0  0  0  0  0  0  0  0  0  0  0  0
    1.2686   -8.7840   -7.0858 C   0  0  0  0  0  0  0  0  0  0  0  0
    0.8081   -7.6267   -6.4215 C   0  0  0  0  0  0  0  0  0  0  0  0
    1.3481   -6.3905   -6.8074 C   0  0  0  0  0  0  0  0  0  0  0  0
    1.1082   -5.0867   -6.2209 C   0  0  0  0  0  0  0  0  0  0  0  0
    0.4833   -4.9080   -5.1466 O   0  0  0  0  0  0  0  0  0  0  0  0
   -0.1593   -7.6725   -5.4077 O   0  0  0  0  0  0  0  0  0  0  0  0
   -0.8222   -8.8602   -4.9880 C   0  0  0  0  0  0  0  0  0  0  0  0
    4.4613   -2.3024    5.6302 O   0  0  0  0  0  0  0  0  0  0  0  0
    5.1549   -3.4039    5.0602 C   0  0  0  0  0  0  0  0  0  0  0  0
    6.3111   -3.1617    7.4591 H   0  0  0  0  0  0  0  0  0  0  0  0
    6.7085   -2.1442    9.6626 H   0  0  0  0  0  0  0  0  0  0  0  0
    5.4397   -0.1801   10.4018 H   0  0  0  0  0  0  0  0  0  0  0  0
    1.0317    2.5915    8.1114 H   0  0  0  0  0  0  0  0  0  0  0  0
   -0.1581   -0.4296    6.3403 H   0  0  0  0  0  0  0  0  0  0  0  0
   -2.7115    4.2283   -0.2499 H   0  0  0  0  0  0  0  0  0  0  0  0
   -4.4493    5.9090   -0.0702 H   0  0  0  0  0  0  0  0  0  0  0  0
   -4.9561    8.1354    2.8235 H   0  0  0  0  0  0  0  0  0  0  0  0
   -5.4845    7.7478    1.1559 H   0  0  0  0  0  0  0  0  0  0  0  0
   -6.7490    5.7185    2.1114 H   0  0  0  0  0  0  0  0  0  0  0  0
   -7.3543    7.3257    2.6649 H   0  0  0  0  0  0  0  0  0  0  0  0
   -6.3271    6.3271    3.7621 H   0  0  0  0  0  0  0  0  0  0  0  0
   -3.4942    6.4969    4.0874 H   0  0  0  0  0  0  0  0  0  0  0  0
   -1.7597    4.7871    3.9340 H   0  0  0  0  0  0  0  0  0  0  0  0
    1.1022    1.5216    1.8044 H   0  0  0  0  0  0  0  0  0  0  0  0
    3.4642    2.1183    1.9375 H   0  0  0  0  0  0  0  0  0  0  0  0
    5.1439    3.7916    2.5960 H   0  0  0  0  0  0  0  0  0  0  0  0
    4.6984    5.5172    2.7637 H   0  0  0  0  0  0  0  0  0  0  0  0
    5.1024    3.9591    0.1192 H   0  0  0  0  0  0  0  0  0  0  0  0
    4.5168    5.6731    0.2236 H   0  0  0  0  0  0  0  0  0  0  0  0
    6.1723    5.2454    0.8121 H   0  0  0  0  0  0  0  0  0  0  0  0
    2.4201    6.2910    2.0976 H   0  0  0  0  0  0  0  0  0  0  0  0
    0.0619    5.7264    1.9257 H   0  0  0  0  0  0  0  0  0  0  0  0
   -2.7803   -0.9131    0.4957 H   0  0  0  0  0  0  0  0  0  0  0  0
   -3.3548   -3.0908   -3.3414 H   0  0  0  0  0  0  0  0  0  0  0  0
   -2.6858   -5.3972   -2.9730 H   0  0  0  0  0  0  0  0  0  0  0  0
    0.5193   -6.3912   -1.3194 H   0  0  0  0  0  0  0  0  0  0  0  0
   -0.7672   -6.9236   -2.4420 H   0  0  0  0  0  0  0  0  0  0  0  0
   -2.4276   -6.9762   -0.5913 H   0  0  0  0  0  0  0  0  0  0  0  0
   -0.9824   -7.9639   -0.1700 H   0  0  0  0  0  0  0  0  0  0  0  0
   -1.1839   -6.3329    0.5669 H   0  0  0  0  0  0  0  0  0  0  0  0
    0.6230   -4.0679   -0.5538 H   0  0  0  0  0  0  0  0  0  0  0  0
   -0.0476   -1.7385   -0.8944 H   0  0  0  0  0  0  0  0  0  0  0  0
   -4.4580   -1.4368   -1.0352 H   0  0  0  0  0  0  0  0  0  0  0  0
   -6.7852   -1.2258   -1.7348 H   0  0  0  0  0  0  0  0  0  0  0  0
   -8.4265   -0.0470   -3.2255 H   0  0  0  0  0  0  0  0  0  0  0  0
   -7.8990    0.5766   -4.8169 H   0  0  0  0  0  0  0  0  0  0  0  0
   -9.2238   -1.4920   -5.1037 H   0  0  0  0  0  0  0  0  0  0  0  0
   -8.0988   -2.4007   -4.0250 H   0  0  0  0  0  0  0  0  0  0  0  0
   -7.5189   -1.7805   -5.6239 H   0  0  0  0  0  0  0  0  0  0  0  0
   -5.5272    0.4978   -5.4720 H   0  0  0  0  0  0  0  0  0  0  0  0
   -3.1992    0.2907   -4.8010 H   0  0  0  0  0  0  0  0  0  0  0  0
   -0.2707    3.1761   -0.9767 H   0  0  0  0  0  0  0  0  0  0  0  0
    2.7785   -0.2787   -5.4661 H   0  0  0  0  0  0  0  0  0  0  0  0
    2.9821   -2.2951   -7.0238 H   0  0  0  0  0  0  0  0  0  0  0  0
    3.5826   -7.4153   -9.1637 H   0  0  0  0  0  0  0  0  0  0  0  0
    2.6325   -9.5890   -8.5528 H   0  0  0  0  0  0  0  0  0  0  0  0
    0.8861   -9.7629   -6.8299 H   0  0  0  0  0  0  0  0  0  0  0  0
   -1.5372   -8.6137   -4.1746 H   0  0  0  0  0  0  0  0  0  0  0  0
   -1.3892   -9.3069   -5.8305 H   0  0  0  0  0  0  0  0  0  0  0  0
   -0.0805   -9.5891   -4.5962 H   0  0  0  0  0  0  0  0  0  0  0  0
    6.2327   -3.1644    4.9482 H   0  0  0  0  0  0  0  0  0  0  0  0
    4.7289   -3.6312    4.0607 H   0  0  0  0  0  0  0  0  0  0  0  0
    5.0319   -4.3058    5.7049 H   0  0  0  0  0  0  0  0  0  0  0  0
  1  2  2  0
  1  3  1  0
  3  4  2  0
  4  5  1  0
  5  6  2  0
  6  7  1  0
  7  8  2  0
  3  8  1  0
  8  9  1  0
  9 10  2  0
 10 11  1  0
 11 12  3  0
 10 13  1  0
 13 14  3  0
  9 15  1  0
  1 15  1  0
 15 16  2  0
 16 17  1  0
 17 18  2  0
 18 19  1  0
 19 20  2  0
 20 21  1  0
 17 21  1  0
 20 22  1  0
 22 23  1  0
 23 24  1  0
 24 25  2  0
 25 26  1  0
 26 27  2  0
 27 28  1  0
 28 29  1  0
 27 30  1  0
 30 31  2  0
 24 31  1  0
 23 32  1  0
 32 33  2  0
 33 34  1  0
 34 35  2  0
 35 36  1  0
 36 37  1  0
 35 38  1  0
 38 39  2  0
 32 39  1  0
 23 40  1  0
 40 41  2  0
 41 42  1  0
 22 42  2  0
 42 43  1  0
 19 43  1  0
 41 44  1  0
 44 45  2  0
 45 46  1  0
 46 47  1  0
 47 48  2  0
 48 49  1  0
 49 50  2  0
 50 51  1  0
 51 52  1  0
 50 53  1  0
 53 54  2  0
 47 54  1  0
 46 55  1  0
 55 56  2  0
 56 57  1  0
 57 58  2  0
 58 59  1  0
 59 60  1  0
 58 61  1  0
 61 62  2  0
 55 62  1  0
 46 63  1  0
 63 64  2  0
 64 65  1  0
 45 65  1  0
 65 66  2  0
 40 66  1  0
 64 67  1  0
 67 68  1  0
 68 69  2  0
 63 69  1  0
 69 70  1  0
 70 71  1  0
 71 72  2  0
 68 72  1  0
 71 73  1  0
 73 74  2  0
 74 75  1  0
 75 76  2  0
 76 77  1  0
 77 78  3  0
 76 79  1  0
 79 80  3  0
 75 81  1  0
 81 82  2  0
 82 83  1  0
 83 84  2  0
 84 85  1  0
 85 86  2  0
 81 86  1  0
 86 87  1  0
 74 87  1  0
 87 88  2  0
 85 89  1  0
 89 90  1  0
  4 91  1  0
 91 92  1  0
  5 93  1  0
  6 94  1  0
  7 95  1  0
 16 96  1  0
 18 97  1  0
 25 98  1  0
 26 99  1  0
 28100  1  0
 28101  1  0
 29102  1  0
 29103  1  0
 29104  1  0
 30105  1  0
 31106  1  0
 33107  1  0
 34108  1  0
 36109  1  0
 36110  1  0
 37111  1  0
 37112  1  0
 37113  1  0
 38114  1  0
 39115  1  0
 44116  1  0
 48117  1  0
 49118  1  0
 51119  1  0
 51120  1  0
 52121  1  0
 52122  1  0
 52123  1  0
 53124  1  0
 54125  1  0
 56126  1  0
 57127  1  0
 59128  1  0
 59129  1  0
 60130  1  0
 60131  1  0
 60132  1  0
 61133  1  0
 62134  1  0
 66135  1  0
 72136  1  0
 73137  1  0
 82138  1  0
 83139  1  0
 84140  1  0
 90141  1  0
 90142  1  0
 90143  1  0
 92144  1  0
 92145  1  0
 92146  1  0
M  END

