ITOIC.sdf
     RDKit          3D

174188  0  0  0  0  0  0  0  0999 V2000
   -0.7143   -2.7156   -2.6736 C   0  0  0  0  0  0  0  0  0  0  0  0
    0.0771   -2.1059   -3.6475 C   0  0  0  0  0  0  0  0  0  0  0  0
   -0.2803   -0.8946   -4.2497 C   0  0  0  0  0  0  0  0  0  0  0  0
   -1.4613   -0.2815   -3.8000 C   0  0  0  0  0  0  0  0  0  0  0  0
   -2.1566   -0.8129   -2.7176 C   0  0  0  0  0  0  0  0  0  0  0  0
   -1.8120   -2.0312   -2.1343 C   0  0  0  0  0  0  0  0  0  0  0  0
   -0.0726   -3.9896   -2.1416 C   0  0  0  0  0  0  0  0  0  0  0  0
    1.3043   -3.8198   -2.7603 C   0  0  0  0  0  0  0  0  0  0  0  0
    1.3510   -2.7831   -3.6621 C   0  0  0  0  0  0  0  0  0  0  0  0
    2.5349   -4.1291   -2.1695 C   0  0  0  0  0  0  0  0  0  0  0  0
    3.5397   -3.2354   -2.5385 C   0  0  0  0  0  0  0  0  0  0  0  0
    2.8850   -2.1002   -3.6140 S   0  0  0  0  0  0  0  0  0  0  0  0
   -2.0404    1.0684   -4.2116 C   0  0  0  0  0  0  0  0  0  0  0  0
   -2.7744    1.3734   -2.9076 C   0  0  0  0  0  0  0  0  0  0  0  0
   -2.9724    0.2354   -2.1645 C   0  0  0  0  0  0  0  0  0  0  0  0
   -2.8729    2.5621   -2.1687 C   0  0  0  0  0  0  0  0  0  0  0  0
   -3.1072    2.3000   -0.8160 C   0  0  0  0  0  0  0  0  0  0  0  0
   -3.1751    0.6342   -0.5532 S   0  0  0  0  0  0  0  0  0  0  0  0
    4.7969   -3.0911   -1.7849 C   0  0  0  0  0  0  0  0  0  0  0  0
   -3.0741    3.2872    0.2628 C   0  0  0  0  0  0  0  0  0  0  0  0
   -0.9353    2.0726   -4.5805 C   0  0  0  0  0  0  0  0  0  0  0  0
   -3.0825    0.8887   -5.3270 C   0  0  0  0  0  0  0  0  0  0  0  0
   -0.8096   -5.2124   -2.7150 C   0  0  0  0  0  0  0  0  0  0  0  0
    0.0209   -3.9838   -0.6081 C   0  0  0  0  0  0  0  0  0  0  0  0
   -0.1124   -6.3082   -3.2691 C   0  0  0  0  0  0  0  0  0  0  0  0
   -0.7998   -7.3898   -3.8213 C   0  0  0  0  0  0  0  0  0  0  0  0
   -2.2018   -7.4191   -3.8138 C   0  0  0  0  0  0  0  0  0  0  0  0
   -2.9036   -6.3635   -3.2252 C   0  0  0  0  0  0  0  0  0  0  0  0
   -2.2192   -5.2847   -2.6620 C   0  0  0  0  0  0  0  0  0  0  0  0
    0.4109   -2.8114    0.0719 C   0  0  0  0  0  0  0  0  0  0  0  0
    0.5363   -2.7934    1.4615 C   0  0  0  0  0  0  0  0  0  0  0  0
    0.3113   -3.9586    2.2084 C   0  0  0  0  0  0  0  0  0  0  0  0
   -0.0333   -5.1422    1.5390 C   0  0  0  0  0  0  0  0  0  0  0  0
   -0.1661   -5.1587    0.1484 C   0  0  0  0  0  0  0  0  0  0  0  0
   -0.0257    2.5232   -3.6057 C   0  0  0  0  0  0  0  0  0  0  0  0
    1.0004    3.4137   -3.9406 C   0  0  0  0  0  0  0  0  0  0  0  0
    1.1631    3.8425   -5.2644 C   0  0  0  0  0  0  0  0  0  0  0  0
    0.2903    3.3669   -6.2511 C   0  0  0  0  0  0  0  0  0  0  0  0
   -0.7383    2.4854   -5.9167 C   0  0  0  0  0  0  0  0  0  0  0  0
   -3.0196   -0.1902   -6.2416 C   0  0  0  0  0  0  0  0  0  0  0  0
   -3.9665   -0.3225   -7.2590 C   0  0  0  0  0  0  0  0  0  0  0  0
   -4.9764    0.6343   -7.4186 C   0  0  0  0  0  0  0  0  0  0  0  0
   -5.0319    1.7234   -6.5374 C   0  0  0  0  0  0  0  0  0  0  0  0
   -4.0893    1.8595   -5.5113 C   0  0  0  0  0  0  0  0  0  0  0  0
    2.2255    4.8493   -5.6227 C   0  0  0  0  0  0  0  0  0  0  0  0
   -6.0189    0.4640   -8.4889 C   0  0  0  0  0  0  0  0  0  0  0  0
    0.4000   -3.9359    3.7094 C   0  0  0  0  0  0  0  0  0  0  0  0
   -2.9438   -8.5437   -4.4866 C   0  0  0  0  0  0  0  0  0  0  0  0
   -0.9914   -3.8730    4.3335 C   0  0  0  0  0  0  0  0  0  0  0  0
   -3.0595   -8.2960   -5.9878 C   0  0  0  0  0  0  0  0  0  0  0  0
    1.6564    6.2668   -5.5739 C   0  0  0  0  0  0  0  0  0  0  0  0
   -7.2425   -0.2536   -7.9419 C   0  0  0  0  0  0  0  0  0  0  0  0
   -4.3572    4.3359    0.5774 S   0  0  0  0  0  0  0  0  0  0  0  0
   -3.8446    4.8141    2.1032 C   0  0  0  0  0  0  0  0  0  0  0  0
   -2.6716    4.1289    2.4180 C   0  0  0  0  0  0  0  0  0  0  0  0
   -2.2284    3.2780    1.3876 C   0  0  0  0  0  0  0  0  0  0  0  0
    5.4847   -4.3367   -0.8805 S   0  0  0  0  0  0  0  0  0  0  0  0
    6.5607   -3.3841   -0.0162 C   0  0  0  0  0  0  0  0  0  0  0  0
    6.3834   -2.0559   -0.4020 C   0  0  0  0  0  0  0  0  0  0  0  0
    5.3933   -1.8919   -1.3830 C   0  0  0  0  0  0  0  0  0  0  0  0
    4.9520   -0.6374   -1.8022 O   0  0  0  0  0  0  0  0  0  0  0  0
    5.5687    0.0416   -2.8888 C   0  0  0  0  0  0  0  0  0  0  0  0
    4.8610    1.3709   -3.1327 C   0  0  0  0  0  0  0  0  0  0  0  0
    7.2704   -3.8543    1.1796 C   0  0  0  0  0  0  0  0  0  0  0  0
    6.7007   -3.8695    2.4030 C   0  0  0  0  0  0  0  0  0  0  0  0
    5.3756   -3.3182    2.7294 C   0  0  0  0  0  0  0  0  0  0  0  0
    5.2310   -3.2954    4.1663 C   0  0  0  0  0  0  0  0  0  0  0  0
    6.3640   -3.8250    4.7608 C   0  0  0  0  0  0  0  0  0  0  0  0
    7.3155   -4.2916    3.7034 C   0  0  0  0  0  0  0  0  0  0  0  0
    4.1534   -2.8046    4.9072 C   0  0  0  0  0  0  0  0  0  0  0  0
    4.2269   -2.8640    6.3032 C   0  0  0  0  0  0  0  0  0  0  0  0
    5.3801   -3.3706    6.9310 C   0  0  0  0  0  0  0  0  0  0  0  0
    6.4584   -3.8490    6.1665 C   0  0  0  0  0  0  0  0  0  0  0  0
    4.5062   -2.9175    1.9116 O   0  0  0  0  0  0  0  0  0  0  0  0
    8.3889   -5.1092    3.8771 C   0  0  0  0  0  0  0  0  0  0  0  0
    9.1034   -5.7108    2.7820 C   0  0  0  0  0  0  0  0  0  0  0  0
    8.8367   -5.5453    5.1749 C   0  0  0  0  0  0  0  0  0  0  0  0
    9.2083   -5.9308    6.2002 N   0  0  0  0  0  0  0  0  0  0  0  0
    9.6766   -6.2316    1.9182 N   0  0  0  0  0  0  0  0  0  0  0  0
   -1.0895    2.4724    1.5392 O   0  0  0  0  0  0  0  0  0  0  0  0
   -0.1282    2.2149    0.5167 C   0  0  0  0  0  0  0  0  0  0  0  0
    0.5138    3.5114    0.0321 C   0  0  0  0  0  0  0  0  0  0  0  0
   -4.6496    5.6058    3.0345 C   0  0  0  0  0  0  0  0  0  0  0  0
   -4.1455    6.5774    3.8155 C   0  0  0  0  0  0  0  0  0  0  0  0
   -2.8908    7.3036    3.5563 C   0  0  0  0  0  0  0  0  0  0  0  0
   -2.8410    8.4512    4.4338 C   0  0  0  0  0  0  0  0  0  0  0  0
   -3.9684    8.4745    5.2433 C   0  0  0  0  0  0  0  0  0  0  0  0
   -4.8303    7.2893    4.9441 C   0  0  0  0  0  0  0  0  0  0  0  0
   -1.8709    9.4502    4.4818 C   0  0  0  0  0  0  0  0  0  0  0  0
   -2.0464   10.5144    5.3763 C   0  0  0  0  0  0  0  0  0  0  0  0
   -3.1859   10.5575    6.2005 C   0  0  0  0  0  0  0  0  0  0  0  0
   -4.1532    9.5458    6.1393 C   0  0  0  0  0  0  0  0  0  0  0  0
   -2.0569    7.0587    2.6437 O   0  0  0  0  0  0  0  0  0  0  0  0
   -5.9066    6.8528    5.6469 C   0  0  0  0  0  0  0  0  0  0  0  0
   -6.4609    7.5816    6.7574 C   0  0  0  0  0  0  0  0  0  0  0  0
   -6.5326    5.5774    5.4001 C   0  0  0  0  0  0  0  0  0  0  0  0
   -6.9216    8.1483    7.6567 N   0  0  0  0  0  0  0  0  0  0  0  0
   -7.0424    4.5542    5.2183 N   0  0  0  0  0  0  0  0  0  0  0  0
    7.0264   -0.9809    0.2181 O   0  0  0  0  0  0  0  0  0  0  0  0
    8.3286   -0.5394   -0.1507 C   0  0  0  0  0  0  0  0  0  0  0  0
    9.4077   -1.4917    0.3500 C   0  0  0  0  0  0  0  0  0  0  0  0
   -2.0601    4.2522    3.6746 O   0  0  0  0  0  0  0  0  0  0  0  0
   -0.6487    4.3330    3.8704 C   0  0  0  0  0  0  0  0  0  0  0  0
   -0.1876    3.2450    4.8322 C   0  0  0  0  0  0  0  0  0  0  0  0
    0.3593   -0.4215   -4.9855 H   0  0  0  0  0  0  0  0  0  0  0  0
   -2.3235   -2.3894   -1.2460 H   0  0  0  0  0  0  0  0  0  0  0  0
    2.6342   -4.8248   -1.3467 H   0  0  0  0  0  0  0  0  0  0  0  0
   -2.6425    3.5432   -2.5643 H   0  0  0  0  0  0  0  0  0  0  0  0
    0.9684   -6.3265   -3.2876 H   0  0  0  0  0  0  0  0  0  0  0  0
   -0.2406   -8.2008   -4.2667 H   0  0  0  0  0  0  0  0  0  0  0  0
   -3.9878   -6.3686   -3.2048 H   0  0  0  0  0  0  0  0  0  0  0  0
   -2.7997   -4.5024   -2.2003 H   0  0  0  0  0  0  0  0  0  0  0  0
    0.6207   -1.9013   -0.4758 H   0  0  0  0  0  0  0  0  0  0  0  0
    0.8114   -1.8725    1.9561 H   0  0  0  0  0  0  0  0  0  0  0  0
   -0.2081   -6.0537    2.0975 H   0  0  0  0  0  0  0  0  0  0  0  0
   -0.4121   -6.0999   -0.3252 H   0  0  0  0  0  0  0  0  0  0  0  0
   -0.1085    2.1849   -2.5825 H   0  0  0  0  0  0  0  0  0  0  0  0
    1.6662    3.7724   -3.1680 H   0  0  0  0  0  0  0  0  0  0  0  0
    0.4006    3.6892   -7.2772 H   0  0  0  0  0  0  0  0  0  0  0  0
   -1.3695    2.1330   -6.7208 H   0  0  0  0  0  0  0  0  0  0  0  0
   -2.2414   -0.9358   -6.1813 H   0  0  0  0  0  0  0  0  0  0  0  0
   -3.9059   -1.1728   -7.9296 H   0  0  0  0  0  0  0  0  0  0  0  0
   -5.8098    2.4705   -6.6404 H   0  0  0  0  0  0  0  0  0  0  0  0
   -4.1450    2.7192   -4.8608 H   0  0  0  0  0  0  0  0  0  0  0  0
    3.0847    4.7790   -4.9202 H   0  0  0  0  0  0  0  0  0  0  0  0
    2.6100    4.6506   -6.6460 H   0  0  0  0  0  0  0  0  0  0  0  0
   -6.3233    1.4592   -8.8835 H   0  0  0  0  0  0  0  0  0  0  0  0
   -5.6031   -0.1142   -9.3441 H   0  0  0  0  0  0  0  0  0  0  0  0
    0.9864   -3.0539    4.0484 H   0  0  0  0  0  0  0  0  0  0  0  0
    0.9279   -4.8458    4.0682 H   0  0  0  0  0  0  0  0  0  0  0  0
   -3.9641   -8.6468   -4.0554 H   0  0  0  0  0  0  0  0  0  0  0  0
   -2.4139   -9.5028   -4.3103 H   0  0  0  0  0  0  0  0  0  0  0  0
   -1.5411   -2.9833    3.9608 H   0  0  0  0  0  0  0  0  0  0  0  0
   -0.8945   -3.7952    5.4359 H   0  0  0  0  0  0  0  0  0  0  0  0
   -1.5666   -4.7895    4.0919 H   0  0  0  0  0  0  0  0  0  0  0  0
   -3.6153   -7.3549   -6.1812 H   0  0  0  0  0  0  0  0  0  0  0  0
   -3.6063   -9.1408   -6.4593 H   0  0  0  0  0  0  0  0  0  0  0  0
   -2.0502   -8.2280   -6.4461 H   0  0  0  0  0  0  0  0  0  0  0  0
    1.3641    6.5241   -4.5331 H   0  0  0  0  0  0  0  0  0  0  0  0
    0.7682    6.3553   -6.2340 H   0  0  0  0  0  0  0  0  0  0  0  0
    2.4232    6.9923   -5.9180 H   0  0  0  0  0  0  0  0  0  0  0  0
   -6.9611   -1.2570   -7.5532 H   0  0  0  0  0  0  0  0  0  0  0  0
   -7.7034    0.3382   -7.1225 H   0  0  0  0  0  0  0  0  0  0  0  0
   -7.9922   -0.3873   -8.7511 H   0  0  0  0  0  0  0  0  0  0  0  0
    5.5073   -0.5762   -3.8115 H   0  0  0  0  0  0  0  0  0  0  0  0
    6.6393    0.2384   -2.6573 H   0  0  0  0  0  0  0  0  0  0  0  0
    5.3947    1.9339   -3.9265 H   0  0  0  0  0  0  0  0  0  0  0  0
    4.8498    1.9780   -2.2040 H   0  0  0  0  0  0  0  0  0  0  0  0
    3.8173    1.1869   -3.4660 H   0  0  0  0  0  0  0  0  0  0  0  0
    8.2901   -4.1650    1.0348 H   0  0  0  0  0  0  0  0  0  0  0  0
    3.2851   -2.3878    4.4147 H   0  0  0  0  0  0  0  0  0  0  0  0
    3.4022   -2.5038    6.8990 H   0  0  0  0  0  0  0  0  0  0  0  0
    5.4326   -3.3957    8.0095 H   0  0  0  0  0  0  0  0  0  0  0  0
    7.3346   -4.1987    6.6848 H   0  0  0  0  0  0  0  0  0  0  0  0
    0.6651    1.5575    0.9378 H   0  0  0  0  0  0  0  0  0  0  0  0
   -0.5856    1.6770   -0.3364 H   0  0  0  0  0  0  0  0  0  0  0  0
    1.0505    4.0153    0.8667 H   0  0  0  0  0  0  0  0  0  0  0  0
   -0.2583    4.1976   -0.3789 H   0  0  0  0  0  0  0  0  0  0  0  0
    1.2488    3.2899   -0.7654 H   0  0  0  0  0  0  0  0  0  0  0  0
   -5.6930    5.3602    3.0735 H   0  0  0  0  0  0  0  0  0  0  0  0
   -1.0070    9.4187    3.8284 H   0  0  0  0  0  0  0  0  0  0  0  0
   -1.3127   11.3061    5.4250 H   0  0  0  0  0  0  0  0  0  0  0  0
   -3.3191   11.3901    6.8818 H   0  0  0  0  0  0  0  0  0  0  0  0
   -5.0281    9.6407    6.7617 H   0  0  0  0  0  0  0  0  0  0  0  0
    8.4055   -0.4387   -1.2536 H   0  0  0  0  0  0  0  0  0  0  0  0
    8.5040    0.4603    0.3036 H   0  0  0  0  0  0  0  0  0  0  0  0
    9.2720   -1.6912    1.4342 H   0  0  0  0  0  0  0  0  0  0  0  0
   10.4086   -1.0418    0.1928 H   0  0  0  0  0  0  0  0  0  0  0  0
    9.3667   -2.4427   -0.2190 H   0  0  0  0  0  0  0  0  0  0  0  0
   -0.0928    4.2481    2.9167 H   0  0  0  0  0  0  0  0  0  0  0  0
   -0.4035    5.3305    4.2965 H   0  0  0  0  0  0  0  0  0  0  0  0
    0.9201    3.2784    4.9199 H   0  0  0  0  0  0  0  0  0  0  0  0
   -0.4926    2.2473    4.4489 H   0  0  0  0  0  0  0  0  0  0  0  0
   -0.6374    3.4080    5.8357 H   0  0  0  0  0  0  0  0  0  0  0  0
  1  2  1  0
  2  3  2  0
  3  4  1  0
  4  5  2  0
  5  6  1  0
  6  1  2  0
  1  7  1  0
  7  8  1  0
  8  9  2  0
  9  2  1  0
  8 10  1  0
 10 11  2  0
 11 12  1  0
 12  9  1  0
  4 13  1  0
 13 14  1  0
 14 15  2  0
 15  5  1  0
 14 16  1  0
 16 17  2  0
 17 18  1  0
 18 15  1  0
 11 19  1  0
 17 20  1  0
 13 21  1  0
 13 22  1  0
  7 23  1  0
  7 24  1  0
 23 25  2  0
 25 26  1  0
 26 27  2  0
 27 28  1  0
 28 29  2  0
 29 23  1  0
 24 30  2  0
 30 31  1  0
 31 32  2  0
 32 33  1  0
 33 34  2  0
 34 24  1  0
 21 35  2  0
 35 36  1  0
 36 37  2  0
 37 38  1  0
 38 39  2  0
 39 21  1  0
 22 40  2  0
 40 41  1  0
 41 42  2  0
 42 43  1  0
 43 44  2  0
 44 22  1  0
 37 45  1  0
 42 46  1  0
 32 47  1  0
 27 48  1  0
 47 49  1  0
 48 50  1  0
 45 51  1  0
 46 52  1  0
 20 53  1  0
 53 54  1  0
 54 55  2  0
 55 56  1  0
 56 20  2  0
 19 57  1  0
 57 58  1  0
 58 59  2  0
 59 60  1  0
 60 19  2  0
 60 61  1  0
 61 62  1  0
 62 63  1  0
 58 64  1  0
 64 65  2  0
 65 66  1  0
 66 67  1  0
 67 68  2  0
 68 69  1  0
 69 65  1  0
 67 70  1  0
 70 71  2  0
 71 72  1  0
 72 73  2  0
 73 68  1  0
 66 74  2  0
 69 75  2  0
 75 76  1  0
 75 77  1  0
 77 78  3  0
 76 79  3  0
 56 80  1  0
 80 81  1  0
 81 82  1  0
 54 83  1  0
 83 84  2  0
 84 85  1  0
 85 86  1  0
 86 87  2  0
 87 88  1  0
 88 84  1  0
 86 89  1  0
 89 90  2  0
 90 91  1  0
 91 92  2  0
 92 87  1  0
 85 93  2  0
 88 94  2  0
 94 95  1  0
 94 96  1  0
 95 97  3  0
 96 98  3  0
 59 99  1  0
 99100  1  0
100101  1  0
 55102  1  0
102103  1  0
103104  1  0
  3105  1  0
  6106  1  0
 10107  1  0
 16108  1  0
 25109  1  0
 26110  1  0
 28111  1  0
 29112  1  0
 30113  1  0
 31114  1  0
 33115  1  0
 34116  1  0
 35117  1  0
 36118  1  0
 38119  1  0
 39120  1  0
 40121  1  0
 41122  1  0
 43123  1  0
 44124  1  0
 45125  1  0
 45126  1  0
 46127  1  0
 46128  1  0
 47129  1  0
 47130  1  0
 48131  1  0
 48132  1  0
 49133  1  0
 49134  1  0
 49135  1  0
 50136  1  0
 50137  1  0
 50138  1  0
 51139  1  0
 51140  1  0
 51141  1  0
 52142  1  0
 52143  1  0
 52144  1  0
 62145  1  0
 62146  1  0
 63147  1  0
 63148  1  0
 63149  1  0
 64150  1  0
 70151  1  0
 71152  1  0
 72153  1  0
 73154  1  0
 81155  1  0
 81156  1  0
 82157  1  0
 82158  1  0
 82159  1  0
 83160  1  0
 89161  1  0
 90162  1  0
 91163  1  0
 92164  1  0
100165  1  0
100166  1  0
101167  1  0
101168  1  0
101169  1  0
103170  1  0
103171  1  0
104172  1  0
104173  1  0
104174  1  0
M  END

