ITOTIC-2F.sdf
     RDKit          3D

166182  0  0  0  0  0  0  0  0999 V2000
   -3.4238   -3.5102   -4.2040 C   0  0  0  0  0  0  0  0  0  0  0  0
   -4.3111   -2.5432   -3.5315 C   0  0  0  0  0  0  0  0  0  0  0  0
   -4.8679   -2.7118   -2.2647 C   0  0  0  0  0  0  0  0  0  0  0  0
   -5.4217   -1.5264   -1.7923 C   0  0  0  0  0  0  0  0  0  0  0  0
   -5.3636   -0.4364   -2.6290 C   0  0  0  0  0  0  0  0  0  0  0  0
   -4.5027   -0.9198   -3.9971 S   0  0  0  0  0  0  0  0  0  0  0  0
   -5.6065    0.8087   -1.9920 C   0  0  0  0  0  0  0  0  0  0  0  0
   -5.2536    2.2758   -2.3190 C   0  0  0  0  0  0  0  0  0  0  0  0
   -4.7301    2.5215   -3.7481 C   0  0  0  0  0  0  0  0  0  0  0  0
   -5.3637    1.8685   -4.8323 C   0  0  0  0  0  0  0  0  0  0  0  0
   -4.9965    2.1184   -6.1571 C   0  0  0  0  0  0  0  0  0  0  0  0
   -4.0717    3.1216   -6.4555 C   0  0  0  0  0  0  0  0  0  0  0  0
   -3.6754    3.4023   -7.8824 C   0  0  0  0  0  0  0  0  0  0  0  0
   -2.2326    2.9851   -8.1451 C   0  0  0  0  0  0  0  0  0  0  0  0
   -3.5680    3.9013   -5.4094 C   0  0  0  0  0  0  0  0  0  0  0  0
   -3.9357    3.6391   -4.0835 C   0  0  0  0  0  0  0  0  0  0  0  0
   -6.5119    3.1478   -2.1863 C   0  0  0  0  0  0  0  0  0  0  0  0
   -7.7727    2.6769   -2.6166 C   0  0  0  0  0  0  0  0  0  0  0  0
   -8.8946    3.5103   -2.5874 C   0  0  0  0  0  0  0  0  0  0  0  0
   -8.7842    4.8358   -2.1437 C   0  0  0  0  0  0  0  0  0  0  0  0
  -10.0040    5.7120   -2.0646 C   0  0  0  0  0  0  0  0  0  0  0  0
  -10.7591    5.4666   -0.7600 C   0  0  0  0  0  0  0  0  0  0  0  0
   -7.5356    5.3183   -1.7290 C   0  0  0  0  0  0  0  0  0  0  0  0
   -6.4104    4.4949   -1.7703 C   0  0  0  0  0  0  0  0  0  0  0  0
   -4.3592    2.5063   -1.0781 C   0  0  0  0  0  0  0  0  0  0  0  0
   -4.7363    1.6118   -0.0621 C   0  0  0  0  0  0  0  0  0  0  0  0
   -5.6234    0.6170   -0.6192 C   0  0  0  0  0  0  0  0  0  0  0  0
   -5.5763   -1.0252   -0.2052 S   0  0  0  0  0  0  0  0  0  0  0  0
   -3.9868    1.4453    1.1106 C   0  0  0  0  0  0  0  0  0  0  0  0
   -2.8792    2.2773    1.3145 C   0  0  0  0  0  0  0  0  0  0  0  0
   -1.7191    2.0242    2.2926 C   0  0  0  0  0  0  0  0  0  0  0  0
   -2.0777    2.4060    3.7467 C   0  0  0  0  0  0  0  0  0  0  0  0
   -3.3670    2.1809    4.2799 C   0  0  0  0  0  0  0  0  0  0  0  0
   -3.6594    2.4757    5.6172 C   0  0  0  0  0  0  0  0  0  0  0  0
   -2.6635    2.9693    6.4694 C   0  0  0  0  0  0  0  0  0  0  0  0
   -2.9588    3.2832    7.9151 C   0  0  0  0  0  0  0  0  0  0  0  0
   -2.9523    4.7907    8.1583 C   0  0  0  0  0  0  0  0  0  0  0  0
   -1.3714    3.1633    5.9659 C   0  0  0  0  0  0  0  0  0  0  0  0
   -1.0853    2.8927    4.6297 C   0  0  0  0  0  0  0  0  0  0  0  0
   -1.1827    0.5947    2.1214 C   0  0  0  0  0  0  0  0  0  0  0  0
   -0.9871    0.0764    0.8230 C   0  0  0  0  0  0  0  0  0  0  0  0
   -0.4129   -1.1775    0.6258 C   0  0  0  0  0  0  0  0  0  0  0  0
    0.0448   -1.9281    1.7156 C   0  0  0  0  0  0  0  0  0  0  0  0
    0.7063   -3.2656    1.4899 C   0  0  0  0  0  0  0  0  0  0  0  0
    2.0420   -3.1073    0.7573 C   0  0  0  0  0  0  0  0  0  0  0  0
   -0.1329   -1.4257    3.0146 C   0  0  0  0  0  0  0  0  0  0  0  0
   -0.7441   -0.1810    3.2169 C   0  0  0  0  0  0  0  0  0  0  0  0
   -0.7142    2.9936    1.7016 C   0  0  0  0  0  0  0  0  0  0  0  0
   -1.2128    3.6999    0.6391 C   0  0  0  0  0  0  0  0  0  0  0  0
   -2.5449    3.2290    0.3448 C   0  0  0  0  0  0  0  0  0  0  0  0
   -3.2427    3.3480   -0.8636 C   0  0  0  0  0  0  0  0  0  0  0  0
    0.0247    4.3503   -0.3363 S   0  0  0  0  0  0  0  0  0  0  0  0
    1.2285    3.7623    0.6988 C   0  0  0  0  0  0  0  0  0  0  0  0
    0.6742    3.0341    1.7099 C   0  0  0  0  0  0  0  0  0  0  0  0
    1.8749    2.2839    2.5975 S   0  0  0  0  0  0  0  0  0  0  0  0
    3.1421    2.9722    1.6898 C   0  0  0  0  0  0  0  0  0  0  0  0
    2.6211    3.7541    0.6485 C   0  0  0  0  0  0  0  0  0  0  0  0
    7.7819    2.2753    4.2872 C   0  0  0  0  0  0  0  0  0  0  0  0
    7.7562    1.4349    5.3424 C   0  0  0  0  0  0  0  0  0  0  0  0
    8.6448    1.4755    6.5444 C   0  0  0  0  0  0  0  0  0  0  0  0
    9.9420    1.8862    6.5927 C   0  0  0  0  0  0  0  0  0  0  0  0
   10.7547    1.7435    7.7728 C   0  0  0  0  0  0  0  0  0  0  0  0
   11.4255    1.6304    8.7103 N   0  0  0  0  0  0  0  0  0  0  0  0
   10.6457    2.3637    5.4289 C   0  0  0  0  0  0  0  0  0  0  0  0
   11.2205    2.7439    4.5003 N   0  0  0  0  0  0  0  0  0  0  0  0
    7.9259    0.7026    7.5970 C   0  0  0  0  0  0  0  0  0  0  0  0
    8.1655    0.5879    8.9768 C   0  0  0  0  0  0  0  0  0  0  0  0
    7.3200   -0.2230    9.7504 C   0  0  0  0  0  0  0  0  0  0  0  0
    6.2379   -0.8990    9.1559 C   0  0  0  0  0  0  0  0  0  0  0  0
    5.9834   -0.7500    7.7868 C   0  0  0  0  0  0  0  0  0  0  0  0
    6.8311    0.0651    7.0364 C   0  0  0  0  0  0  0  0  0  0  0  0
    6.7219    0.4345    5.6445 C   0  0  0  0  0  0  0  0  0  0  0  0
    5.8918   -0.0567    4.8297 O   0  0  0  0  0  0  0  0  0  0  0  0
    1.0094   -5.9502   -4.4965 C   0  0  0  0  0  0  0  0  0  0  0  0
    0.3342   -5.6618   -3.4744 O   0  0  0  0  0  0  0  0  0  0  0  0
    2.3745   -6.4271   -4.4714 C   0  0  0  0  0  0  0  0  0  0  0  0
    3.1858   -6.6557   -3.3603 C   0  0  0  0  0  0  0  0  0  0  0  0
    4.5282   -7.0014   -3.5731 C   0  0  0  0  0  0  0  0  0  0  0  0
    5.0394   -7.0793   -4.8783 C   0  0  0  0  0  0  0  0  0  0  0  0
    4.2043   -6.8384   -5.9840 C   0  0  0  0  0  0  0  0  0  0  0  0
    2.8509   -6.5364   -5.7649 C   0  0  0  0  0  0  0  0  0  0  0  0
    1.7669   -6.2076   -6.7340 C   0  0  0  0  0  0  0  0  0  0  0  0
    1.7341   -6.5271   -8.0525 C   0  0  0  0  0  0  0  0  0  0  0  0
    2.8255   -7.2032   -8.7059 C   0  0  0  0  0  0  0  0  0  0  0  0
    3.6932   -7.7594   -9.2398 N   0  0  0  0  0  0  0  0  0  0  0  0
    0.5492   -6.3616   -8.8553 C   0  0  0  0  0  0  0  0  0  0  0  0
   -0.4011   -6.2379   -9.5067 N   0  0  0  0  0  0  0  0  0  0  0  0
    0.6198   -5.7289   -5.9011 C   0  0  0  0  0  0  0  0  0  0  0  0
   -0.4310   -4.9950   -6.3155 C   0  0  0  0  0  0  0  0  0  0  0  0
    6.7077    2.3864    3.2889 C   0  0  0  0  0  0  0  0  0  0  0  0
    6.8912    2.6736    1.9380 C   0  0  0  0  0  0  0  0  0  0  0  0
    5.6835    2.8976    1.2424 C   0  0  0  0  0  0  0  0  0  0  0  0
    4.5566    2.8246    2.0651 C   0  0  0  0  0  0  0  0  0  0  0  0
    5.0645    2.4818    3.6302 S   0  0  0  0  0  0  0  0  0  0  0  0
    5.5897    3.1681   -0.1335 O   0  0  0  0  0  0  0  0  0  0  0  0
    6.6868    3.1233   -1.0437 C   0  0  0  0  0  0  0  0  0  0  0  0
    7.0571    1.6788   -1.3634 C   0  0  0  0  0  0  0  0  0  0  0  0
   -3.3251   -4.8806   -3.9434 C   0  0  0  0  0  0  0  0  0  0  0  0
   -2.2887   -5.5096   -4.6523 C   0  0  0  0  0  0  0  0  0  0  0  0
   -1.5624   -4.6339   -5.4503 C   0  0  0  0  0  0  0  0  0  0  0  0
   -2.2354   -3.1000   -5.3291 S   0  0  0  0  0  0  0  0  0  0  0  0
   -4.1988   -5.5412   -3.0670 O   0  0  0  0  0  0  0  0  0  0  0  0
   -4.1326   -6.9256   -2.7389 C   0  0  0  0  0  0  0  0  0  0  0  0
   -3.0316   -7.1820   -1.7183 C   0  0  0  0  0  0  0  0  0  0  0  0
    7.5454   -0.3488   11.0822 F   0  0  0  0  0  0  0  0  0  0  0  0
    6.3489   -7.3733   -5.0700 F   0  0  0  0  0  0  0  0  0  0  0  0
   -4.7245   -3.5816   -1.6397 H   0  0  0  0  0  0  0  0  0  0  0  0
   -6.1692    1.1651   -4.6635 H   0  0  0  0  0  0  0  0  0  0  0  0
   -5.4682    1.5505   -6.9527 H   0  0  0  0  0  0  0  0  0  0  0  0
   -3.7916    4.4885   -8.0905 H   0  0  0  0  0  0  0  0  0  0  0  0
   -4.3404    2.8530   -8.5870 H   0  0  0  0  0  0  0  0  0  0  0  0
   -1.9895    3.1504   -9.2158 H   0  0  0  0  0  0  0  0  0  0  0  0
   -1.5369    3.5903   -7.5292 H   0  0  0  0  0  0  0  0  0  0  0  0
   -2.0898    1.9088   -7.9112 H   0  0  0  0  0  0  0  0  0  0  0  0
   -2.9353    4.7548   -5.6228 H   0  0  0  0  0  0  0  0  0  0  0  0
   -3.6945    4.3983   -3.3722 H   0  0  0  0  0  0  0  0  0  0  0  0
   -7.8896    1.6698   -2.9938 H   0  0  0  0  0  0  0  0  0  0  0  0
   -9.8475    3.1229   -2.9217 H   0  0  0  0  0  0  0  0  0  0  0  0
  -10.6814    5.5019   -2.9224 H   0  0  0  0  0  0  0  0  0  0  0  0
   -9.7141    6.7848   -2.1253 H   0  0  0  0  0  0  0  0  0  0  0  0
  -11.0910    4.4042   -0.7037 H   0  0  0  0  0  0  0  0  0  0  0  0
  -11.6492    6.1296   -0.7124 H   0  0  0  0  0  0  0  0  0  0  0  0
  -10.1019    5.6910    0.1072 H   0  0  0  0  0  0  0  0  0  0  0  0
   -7.4288    6.3416   -1.3924 H   0  0  0  0  0  0  0  0  0  0  0  0
   -5.4593    4.9165   -1.4877 H   0  0  0  0  0  0  0  0  0  0  0  0
   -4.1661    0.5974    1.7551 H   0  0  0  0  0  0  0  0  0  0  0  0
   -4.1673    1.7803    3.6803 H   0  0  0  0  0  0  0  0  0  0  0  0
   -4.6622    2.3057    5.9908 H   0  0  0  0  0  0  0  0  0  0  0  0
   -2.1872    2.8059    8.5617 H   0  0  0  0  0  0  0  0  0  0  0  0
   -3.9472    2.8687    8.2154 H   0  0  0  0  0  0  0  0  0  0  0  0
   -3.7244    5.2866    7.5320 H   0  0  0  0  0  0  0  0  0  0  0  0
   -3.1710    4.9989    9.2284 H   0  0  0  0  0  0  0  0  0  0  0  0
   -1.9572    5.2231    7.9149 H   0  0  0  0  0  0  0  0  0  0  0  0
   -0.5824    3.5286    6.6157 H   0  0  0  0  0  0  0  0  0  0  0  0
   -0.0777    3.0641    4.2989 H   0  0  0  0  0  0  0  0  0  0  0  0
   -1.2648    0.6491   -0.0530 H   0  0  0  0  0  0  0  0  0  0  0  0
   -0.2984   -1.5515   -0.3873 H   0  0  0  0  0  0  0  0  0  0  0  0
    0.8877   -3.7840    2.4572 H   0  0  0  0  0  0  0  0  0  0  0  0
    0.0281   -3.9122    0.8883 H   0  0  0  0  0  0  0  0  0  0  0  0
    2.7324   -2.4660    1.3467 H   0  0  0  0  0  0  0  0  0  0  0  0
    1.8812   -2.6521   -0.2446 H   0  0  0  0  0  0  0  0  0  0  0  0
    2.5089   -4.1084    0.6126 H   0  0  0  0  0  0  0  0  0  0  0  0
    0.2209   -1.9878    3.8718 H   0  0  0  0  0  0  0  0  0  0  0  0
   -0.8411    0.1742    4.2332 H   0  0  0  0  0  0  0  0  0  0  0  0
   -2.8328    4.0113   -1.5952 H   0  0  0  0  0  0  0  0  0  0  0  0
    3.2093    4.2863   -0.0879 H   0  0  0  0  0  0  0  0  0  0  0  0
    8.5696    3.0035    4.1877 H   0  0  0  0  0  0  0  0  0  0  0  0
    8.9634    1.1187    9.4663 H   0  0  0  0  0  0  0  0  0  0  0  0
    5.5932   -1.5161    9.7652 H   0  0  0  0  0  0  0  0  0  0  0  0
    5.1370   -1.2411    7.3253 H   0  0  0  0  0  0  0  0  0  0  0  0
    2.7970   -6.5497   -2.3551 H   0  0  0  0  0  0  0  0  0  0  0  0
    5.1807   -7.1745   -2.7228 H   0  0  0  0  0  0  0  0  0  0  0  0
    4.6423   -6.8464   -6.9682 H   0  0  0  0  0  0  0  0  0  0  0  0
   -0.4576   -4.5962   -7.3193 H   0  0  0  0  0  0  0  0  0  0  0  0
    7.8700    2.7346    1.4831 H   0  0  0  0  0  0  0  0  0  0  0  0
    6.3772    3.6284   -1.9814 H   0  0  0  0  0  0  0  0  0  0  0  0
    7.5618    3.6746   -0.6329 H   0  0  0  0  0  0  0  0  0  0  0  0
    7.8403    1.6540   -2.1519 H   0  0  0  0  0  0  0  0  0  0  0  0
    7.4468    1.1692   -0.4569 H   0  0  0  0  0  0  0  0  0  0  0  0
    6.1570    1.1325   -1.7228 H   0  0  0  0  0  0  0  0  0  0  0  0
   -2.0694   -6.5680   -4.5981 H   0  0  0  0  0  0  0  0  0  0  0  0
   -5.1036   -7.2275   -2.2920 H   0  0  0  0  0  0  0  0  0  0  0  0
   -3.9804   -7.5426   -3.6489 H   0  0  0  0  0  0  0  0  0  0  0  0
   -3.0531   -8.2484   -1.4109 H   0  0  0  0  0  0  0  0  0  0  0  0
   -3.1932   -6.5411   -0.8244 H   0  0  0  0  0  0  0  0  0  0  0  0
   -2.0352   -6.9529   -2.1521 H   0  0  0  0  0  0  0  0  0  0  0  0
  1  2  1  0
  2  3  2  0
  3  4  1  0
  4  5  2  0
  5  6  1  0
  2  6  1  0
  5  7  1  0
  7  8  1  0
  8  9  1  0
  9 10  2  0
 10 11  1  0
 11 12  2  0
 12 13  1  0
 13 14  1  0
 12 15  1  0
 15 16  2  0
  9 16  1  0
  8 17  1  0
 17 18  2  0
 18 19  1  0
 19 20  2  0
 20 21  1  0
 21 22  1  0
 20 23  1  0
 23 24  2  0
 17 24  1  0
  8 25  1  0
 25 26  2  0
 26 27  1  0
  7 27  2  0
 27 28  1  0
  4 28  1  0
 26 29  1  0
 29 30  2  0
 30 31  1  0
 31 32  1  0
 32 33  2  0
 33 34  1  0
 34 35  2  0
 35 36  1  0
 36 37  1  0
 35 38  1  0
 38 39  2  0
 32 39  1  0
 31 40  1  0
 40 41  2  0
 41 42  1  0
 42 43  2  0
 43 44  1  0
 44 45  1  0
 43 46  1  0
 46 47  2  0
 40 47  1  0
 31 48  1  0
 48 49  2  0
 49 50  1  0
 30 50  1  0
 50 51  2  0
 25 51  1  0
 49 52  1  0
 52 53  1  0
 53 54  2  0
 48 54  1  0
 54 55  1  0
 55 56  1  0
 56 57  2  0
 53 57  1  0
 58 59  2  0
 59 60  1  0
 60 61  2  0
 61 62  1  0
 62 63  3  0
 61 64  1  0
 64 65  3  0
 60 66  1  0
 66 67  2  0
 67 68  1  0
 68 69  2  0
 69 70  1  0
 70 71  2  0
 66 71  1  0
 71 72  1  0
 59 72  1  0
 72 73  2  0
 74 75  2  0
 74 76  1  0
 76 77  2  0
 77 78  1  0
 78 79  2  0
 79 80  1  0
 80 81  2  0
 76 81  1  0
 81 82  1  0
 82 83  2  0
 83 84  1  0
 84 85  3  0
 83 86  1  0
 86 87  3  0
 82 88  1  0
 74 88  1  0
 88 89  2  0
 58 90  1  0
 90 91  2  0
 91 92  1  0
 92 93  2  0
 93 94  1  0
 94 90  1  0
 92 95  1  0
 95 96  1  0
 96 97  1  0
 93 56  1  0
  1 98  2  0
 98 99  1  0
 99100  2  0
100101  1  0
101  1  1  0
 98102  1  0
102103  1  0
103104  1  0
100 89  1  0
 68105  1  0
 79106  1  0
  3107  1  0
 10108  1  0
 11109  1  0
 13110  1  0
 13111  1  0
 14112  1  0
 14113  1  0
 14114  1  0
 15115  1  0
 16116  1  0
 18117  1  0
 19118  1  0
 21119  1  0
 21120  1  0
 22121  1  0
 22122  1  0
 22123  1  0
 23124  1  0
 24125  1  0
 29126  1  0
 33127  1  0
 34128  1  0
 36129  1  0
 36130  1  0
 37131  1  0
 37132  1  0
 37133  1  0
 38134  1  0
 39135  1  0
 41136  1  0
 42137  1  0
 44138  1  0
 44139  1  0
 45140  1  0
 45141  1  0
 45142  1  0
 46143  1  0
 47144  1  0
 51145  1  0
 57146  1  0
 58147  1  0
 67148  1  0
 69149  1  0
 70150  1  0
 77151  1  0
 78152  1  0
 80153  1  0
 89154  1  0
 91155  1  0
 96156  1  0
 96157  1  0
 97158  1  0
 97159  1  0
 97160  1  0
 99161  1  0
103162  1  0
103163  1  0
104164  1  0
104165  1  0
104166  1  0
M  END

