S-WSeSe-Cl.sdf
     RDKit          3D

 97108  0  0  0  0  0  0  0  0999 V2000
    6.5302   -0.6514   -3.0860 C   0  0  0  0  0  0  0  0  0  0  0  0
    5.8621   -0.3111   -2.0710 O   0  0  0  0  0  0  0  0  0  0  0  0
    7.3609    0.2360   -3.8726 C   0  0  0  0  0  0  0  0  0  0  0  0
    7.5018    1.6153   -3.7397 C   0  0  0  0  0  0  0  0  0  0  0  0
    8.2777    2.3076   -4.6795 C   0  0  0  0  0  0  0  0  0  0  0  0
    8.8849    1.6080   -5.7448 C   0  0  0  0  0  0  0  0  0  0  0  0
    8.7273    0.2157   -5.8569 C   0  0  0  0  0  0  0  0  0  0  0  0
    7.9754   -0.4707   -4.8889 C   0  0  0  0  0  0  0  0  0  0  0  0
    7.6361   -1.9177   -4.7593 C   0  0  0  0  0  0  0  0  0  0  0  0
    8.2837   -2.9602   -5.3421 C   0  0  0  0  0  0  0  0  0  0  0  0
    9.3348   -2.7792   -6.3017 C   0  0  0  0  0  0  0  0  0  0  0  0
   10.1863   -2.6553   -7.0747 N   0  0  0  0  0  0  0  0  0  0  0  0
    8.0619   -4.3254   -4.9422 C   0  0  0  0  0  0  0  0  0  0  0  0
    7.8936   -5.4275   -4.6261 N   0  0  0  0  0  0  0  0  0  0  0  0
    6.6010   -1.9916   -3.6829 C   0  0  0  0  0  0  0  0  0  0  0  0
    5.7418   -2.9947   -3.4382 C   0  0  0  0  0  0  0  0  0  0  0  0
    4.6837   -2.8816   -2.4185 C   0  0  0  0  0  0  0  0  0  0  0  0
    3.1703   -1.6502   -0.3699 Se  0  0  0  0  0  2  0  0  0  0  0  0
    2.8374   -2.1935   -0.5355 C   0  0  0  0  0  0  0  0  0  0  0  0
    2.6928   -3.3771   -1.2699 C   0  0  0  0  0  0  0  0  0  0  0  0
    3.6454   -3.7828   -2.1967 C   0  0  0  0  0  0  0  0  0  0  0  0
    3.4874   -5.0536   -3.0000 C   0  0  0  0  0  0  0  0  0  0  0  0
    2.7889   -4.7782   -4.3286 C   0  0  0  0  0  0  0  0  0  0  0  0
    1.2159   -4.1721   -0.9017 S   0  0  0  0  0  0  0  0  0  0  0  0
    0.7718   -2.9711    0.1697 C   0  0  0  0  0  0  0  0  0  0  0  0
    1.7099   -2.0101    0.2550 C   0  0  0  0  0  0  0  0  0  0  0  0
    1.3936   -1.0540    1.1581 N   0  0  0  0  0  0  0  0  0  0  0  0
    2.3711   -0.1995    1.8482 C   0  0  0  0  0  0  0  0  0  0  0  0
    3.4020   -1.0365    2.6083 C   0  0  0  0  0  0  0  0  0  0  0  0
    0.1509   -1.4266    1.5941 C   0  0  0  0  0  0  0  0  0  0  0  0
   -0.2248   -2.6608    1.0497 C   0  0  0  0  0  0  0  0  0  0  0  0
   -1.3854   -3.3321    1.4461 C   0  0  0  0  0  0  0  0  0  0  0  0
   -1.7779   -4.5361    0.9596 N   0  0  0  0  0  0  0  0  0  0  0  0
   -3.1858   -4.7333    1.8118 S   0  0  0  0  0  0  0  0  0  0  0  0
   -3.3595   -3.3849    2.7610 N   0  0  0  0  0  0  0  0  0  0  0  0
   -2.2288   -2.7174    2.4214 C   0  0  0  0  0  0  0  0  0  0  0  0
   -1.8815   -1.4493    2.9160 C   0  0  0  0  0  0  0  0  0  0  0  0
   -0.7453   -0.7583    2.4608 C   0  0  0  0  0  0  0  0  0  0  0  0
   -0.8757    0.5872    2.6954 N   0  0  0  0  0  0  0  0  0  0  0  0
   -0.3553    1.6887    1.8708 C   0  0  0  0  0  0  0  0  0  0  0  0
    0.2373    2.7946    2.7382 C   0  0  0  0  0  0  0  0  0  0  0  0
   -2.0450    0.6877    3.3773 C   0  0  0  0  0  0  0  0  0  0  0  0
   -2.6543   -0.5119    3.5443 C   0  0  0  0  0  0  0  0  0  0  0  0
   -4.3072   -0.3319    3.7729 S   0  0  0  0  0  0  0  0  0  0  0  0
   -4.2016    1.3743    3.7297 C   0  0  0  0  0  0  0  0  0  0  0  0
   -2.8954    1.7861    3.4692 C   0  0  0  0  0  0  0  0  0  0  0  0
   -4.0333    2.3460    3.7095 Se  0  0  0  0  0  2  0  0  0  0  0  0
   -4.8993    3.6091    3.5155 C   0  0  0  0  0  0  0  0  0  0  0  0
   -5.2535    2.2791    3.7267 C   0  0  0  0  0  0  0  0  0  0  0  0
   -6.6927    1.8402    3.8724 C   0  0  0  0  0  0  0  0  0  0  0  0
   -7.0731    1.7427    5.3464 C   0  0  0  0  0  0  0  0  0  0  0  0
   -5.7785    4.6449    2.9590 C   0  0  0  0  0  0  0  0  0  0  0  0
   -6.1052    4.6920    1.6487 C   0  0  0  0  0  0  0  0  0  0  0  0
   -6.7872    5.8098    0.9106 C   0  0  0  0  0  0  0  0  0  0  0  0
   -7.4828    6.8485    1.4481 C   0  0  0  0  0  0  0  0  0  0  0  0
   -7.8448    6.9010    2.8366 C   0  0  0  0  0  0  0  0  0  0  0  0
   -8.1342    6.9518    3.9567 N   0  0  0  0  0  0  0  0  0  0  0  0
   -7.9274    7.9729    0.6723 C   0  0  0  0  0  0  0  0  0  0  0  0
   -8.2805    8.8938    0.0621 N   0  0  0  0  0  0  0  0  0  0  0  0
   -6.5662    5.5236   -0.5426 C   0  0  0  0  0  0  0  0  0  0  0  0
   -6.9537    6.2251   -1.6944 C   0  0  0  0  0  0  0  0  0  0  0  0
   -6.6124    5.7147   -2.9602 C   0  0  0  0  0  0  0  0  0  0  0  0
   -5.8992    4.5010   -3.0761 C   0  0  0  0  0  0  0  0  0  0  0  0
   -5.5407    3.7957   -1.9195 C   0  0  0  0  0  0  0  0  0  0  0  0
   -5.8907    4.3237   -0.6764 C   0  0  0  0  0  0  0  0  0  0  0  0
   -5.6038    3.7702    0.6217 C   0  0  0  0  0  0  0  0  0  0  0  0
   -5.0082    2.6748    0.8176 O   0  0  0  0  0  0  0  0  0  0  0  0
   -5.4566    3.8466   -4.6470 Cl  0  0  0  0  0  0  0  0  0  0  0  0
    8.4470    4.0489   -4.5250 Cl  0  0  0  0  0  0  0  0  0  0  0  0
    9.8208    2.4452   -6.9761 Cl  0  0  0  0  0  0  0  0  0  0  0  0
   -7.0756    6.6266   -4.3924 Cl  0  0  0  0  0  0  0  0  0  0  0  0
    7.0059    2.1448   -2.9333 H   0  0  0  0  0  0  0  0  0  0  0  0
    9.1624   -0.2907   -6.6948 H   0  0  0  0  0  0  0  0  0  0  0  0
    5.7635   -3.8741   -4.0540 H   0  0  0  0  0  0  0  0  0  0  0  0
    4.4741   -5.5256   -3.1871 H   0  0  0  0  0  0  0  0  0  0  0  0
    2.9019   -5.8007   -2.4268 H   0  0  0  0  0  0  0  0  0  0  0  0
    3.3868   -4.0728   -4.9440 H   0  0  0  0  0  0  0  0  0  0  0  0
    1.7797   -4.3452   -4.1541 H   0  0  0  0  0  0  0  0  0  0  0  0
    2.6734   -5.7288   -4.8912 H   0  0  0  0  0  0  0  0  0  0  0  0
    1.8737    0.4320    2.6027 H   0  0  0  0  0  0  0  0  0  0  0  0
    2.8858    0.4545    1.1114 H   0  0  0  0  0  0  0  0  0  0  0  0
    4.0227   -1.6297    1.9070 H   0  0  0  0  0  0  0  0  0  0  0  0
    4.0737   -0.3690    3.1938 H   0  0  0  0  0  0  0  0  0  0  0  0
    2.8874   -1.7257    3.3108 H   0  0  0  0  0  0  0  0  0  0  0  0
   -1.1821    2.1201    1.2692 H   0  0  0  0  0  0  0  0  0  0  0  0
    0.3928    1.3459    1.1365 H   0  0  0  0  0  0  0  0  0  0  0  0
    0.6889    3.5683    2.0860 H   0  0  0  0  0  0  0  0  0  0  0  0
   -0.5545    3.2692    3.3540 H   0  0  0  0  0  0  0  0  0  0  0  0
    1.0173    2.3912    3.4123 H   0  0  0  0  0  0  0  0  0  0  0  0
   -7.3798    2.5557    3.3753 H   0  0  0  0  0  0  0  0  0  0  0  0
   -6.8531    0.8558    3.3825 H   0  0  0  0  0  0  0  0  0  0  0  0
   -6.4662    0.9614    5.8505 H   0  0  0  0  0  0  0  0  0  0  0  0
   -8.1427    1.4664    5.4387 H   0  0  0  0  0  0  0  0  0  0  0  0
   -6.9079    2.7165    5.8560 H   0  0  0  0  0  0  0  0  0  0  0  0
   -6.0043    5.4544    3.6258 H   0  0  0  0  0  0  0  0  0  0  0  0
   -7.5090    7.1436   -1.6524 H   0  0  0  0  0  0  0  0  0  0  0  0
   -4.9899    2.8672   -1.9919 H   0  0  0  0  0  0  0  0  0  0  0  0
  1  2  2  0
  1  3  1  0
  3  4  2  0
  4  5  1  0
  5  6  2  0
  6  7  1  0
  7  8  2  0
  3  8  1  0
  8  9  1  0
  9 10  2  0
 10 11  1  0
 11 12  3  0
 10 13  1  0
 13 14  3  0
  9 15  1  0
  1 15  1  0
 15 16  2  0
 16 17  1  0
 17 18  1  0
 18 19  1  0
 19 20  2  0
 20 21  1  0
 21 22  1  0
 22 23  1  0
 17 21  2  0
 20 24  1  0
 24 25  1  0
 25 26  2  0
 19 26  1  0
 26 27  1  0
 27 28  1  0
 28 29  1  0
 27 30  1  0
 30 31  2  0
 25 31  1  0
 31 32  1  0
 32 33  2  0
 33 34  1  0
 34 35  1  0
 35 36  2  0
 32 36  1  0
 36 37  1  0
 37 38  2  0
 30 38  1  0
 38 39  1  0
 39 40  1  0
 40 41  1  0
 39 42  1  0
 42 43  2  0
 37 43  1  0
 43 44  1  0
 44 45  1  0
 45 46  2  0
 42 46  1  0
 46 47  1  0
 47 48  1  0
 48 49  2  0
 45 49  1  0
 49 50  1  0
 50 51  1  0
 48 52  1  0
 52 53  2  0
 53 54  1  0
 54 55  2  0
 55 56  1  0
 56 57  3  0
 55 58  1  0
 58 59  3  0
 54 60  1  0
 60 61  2  0
 61 62  1  0
 62 63  2  0
 63 64  1  0
 64 65  2  0
 60 65  1  0
 65 66  1  0
 66 67  2  0
 53 66  1  0
 63 68  1  0
  5 69  1  0
  6 70  1  0
 62 71  1  0
  4 72  1  0
  7 73  1  0
 16 74  1  0
 22 75  1  0
 22 76  1  0
 23 77  1  0
 23 78  1  0
 23 79  1  0
 28 80  1  0
 28 81  1  0
 29 82  1  0
 29 83  1  0
 29 84  1  0
 40 85  1  0
 40 86  1  0
 41 87  1  0
 41 88  1  0
 41 89  1  0
 50 90  1  0
 50 91  1  0
 51 92  1  0
 51 93  1  0
 51 94  1  0
 52 95  1  0
 61 96  1  0
 64 97  1  0
M  END

