TTPTTT-IC.sdf
     RDKit          3D

117132  0  0  0  0  0  0  0  0999 V2000
   -1.6925    0.4958    1.8009 C   0  0  0  0  0  0  0  0  0  0  0  0
   -1.4900    1.5468    2.6638 C   0  0  0  0  0  0  0  0  0  0  0  0
   -0.8201    0.6477    0.6676 C   0  0  0  0  0  0  0  0  0  0  0  0
   -0.1011    1.8328    0.8378 C   0  0  0  0  0  0  0  0  0  0  0  0
   -0.4787    2.5437    2.1307 C   0  0  0  0  0  0  0  0  0  0  0  0
   -1.2109    3.8739    1.9079 C   0  0  0  0  0  0  0  0  0  0  0  0
    0.7825    2.6507    3.0024 C   0  0  0  0  0  0  0  0  0  0  0  0
   -0.5997   -0.2183   -0.4074 C   0  0  0  0  0  0  0  0  0  0  0  0
    0.3859    0.1534   -1.3371 C   0  0  0  0  0  0  0  0  0  0  0  0
    1.1140    1.3357   -1.1541 C   0  0  0  0  0  0  0  0  0  0  0  0
    0.8905    2.2049   -0.0837 C   0  0  0  0  0  0  0  0  0  0  0  0
    0.7771   -0.5620   -2.6335 C   0  0  0  0  0  0  0  0  0  0  0  0
    1.8504    0.3974   -3.1052 C   0  0  0  0  0  0  0  0  0  0  0  0
    2.0273    1.4524   -2.2540 C   0  0  0  0  0  0  0  0  0  0  0  0
    1.3081   -1.9589   -2.2868 C   0  0  0  0  0  0  0  0  0  0  0  0
   -0.3544   -0.5772   -3.6712 C   0  0  0  0  0  0  0  0  0  0  0  0
    2.5143    0.6150   -4.3030 C   0  0  0  0  0  0  0  0  0  0  0  0
    3.1655    1.8162   -4.3601 C   0  0  0  0  0  0  0  0  0  0  0  0
    2.9454    2.7095   -2.9347 S   0  0  0  0  0  0  0  0  0  0  0  0
   -2.1319   -2.1074    8.9169 C   0  0  0  0  0  0  0  0  0  0  0  0
   -1.5307   -3.3059    9.0575 C   0  0  0  0  0  0  0  0  0  0  0  0
   -1.4131   -4.0919   10.3282 C   0  0  0  0  0  0  0  0  0  0  0  0
   -0.2976   -5.0559   10.1035 C   0  0  0  0  0  0  0  0  0  0  0  0
    0.1329   -4.9666    8.7912 C   0  0  0  0  0  0  0  0  0  0  0  0
   -0.5895   -3.9175    8.1066 C   0  0  0  0  0  0  0  0  0  0  0  0
    0.3384   -5.9531   10.9805 C   0  0  0  0  0  0  0  0  0  0  0  0
    1.3765   -6.7645   10.4934 C   0  0  0  0  0  0  0  0  0  0  0  0
    1.7848   -6.6743    9.1532 C   0  0  0  0  0  0  0  0  0  0  0  0
    1.1670   -5.7608    8.2910 C   0  0  0  0  0  0  0  0  0  0  0  0
   -0.3422   -3.5344    6.9341 O   0  0  0  0  0  0  0  0  0  0  0  0
   -2.2729   -4.0619   11.3832 C   0  0  0  0  0  0  0  0  0  0  0  0
   -2.0945   -4.8665   12.5612 C   0  0  0  0  0  0  0  0  0  0  0  0
   -3.4932   -3.2984   11.3565 C   0  0  0  0  0  0  0  0  0  0  0  0
   -4.4765   -2.6871   11.3407 N   0  0  0  0  0  0  0  0  0  0  0  0
   -1.9663   -5.5052   13.5174 N   0  0  0  0  0  0  0  0  0  0  0  0
   -1.3608    0.4149   -3.6760 C   0  0  0  0  0  0  0  0  0  0  0  0
   -2.3364    0.4372   -4.6759 C   0  0  0  0  0  0  0  0  0  0  0  0
   -2.3102   -0.5044   -5.7048 C   0  0  0  0  0  0  0  0  0  0  0  0
   -1.3048   -1.4721   -5.7363 C   0  0  0  0  0  0  0  0  0  0  0  0
   -0.3303   -1.5045   -4.7357 C   0  0  0  0  0  0  0  0  0  0  0  0
    0.3961   -2.9964   -1.9906 C   0  0  0  0  0  0  0  0  0  0  0  0
    0.8493   -4.2636   -1.6155 C   0  0  0  0  0  0  0  0  0  0  0  0
    2.2182   -4.5188   -1.5214 C   0  0  0  0  0  0  0  0  0  0  0  0
    3.1358   -3.5067   -1.8045 C   0  0  0  0  0  0  0  0  0  0  0  0
    2.6893   -2.2337   -2.1730 C   0  0  0  0  0  0  0  0  0  0  0  0
   -1.5046    4.6997    3.0148 C   0  0  0  0  0  0  0  0  0  0  0  0
   -2.2275    5.8845    2.8530 C   0  0  0  0  0  0  0  0  0  0  0  0
   -2.6902    6.2561    1.5915 C   0  0  0  0  0  0  0  0  0  0  0  0
   -2.4330    5.4418    0.4879 C   0  0  0  0  0  0  0  0  0  0  0  0
   -1.7138    4.2543    0.6427 C   0  0  0  0  0  0  0  0  0  0  0  0
    1.5436    3.8384    3.0369 C   0  0  0  0  0  0  0  0  0  0  0  0
    2.7112    3.9188    3.8016 C   0  0  0  0  0  0  0  0  0  0  0  0
    3.1625    2.8062    4.5118 C   0  0  0  0  0  0  0  0  0  0  0  0
    2.4620    1.6016    4.4376 C   0  0  0  0  0  0  0  0  0  0  0  0
    1.2959    1.5168    3.6727 C   0  0  0  0  0  0  0  0  0  0  0  0
   -1.9167    1.2349    3.9514 C   0  0  0  0  0  0  0  0  0  0  0  0
   -2.3985   -0.0522    4.0612 C   0  0  0  0  0  0  0  0  0  0  0  0
   -2.2850   -0.8851    2.5936 S   0  0  0  0  0  0  0  0  0  0  0  0
   -1.5649    1.8923    5.4829 S   0  0  0  0  0  0  0  0  0  0  0  0
   -2.0765    0.4791    6.2705 C   0  0  0  0  0  0  0  0  0  0  0  0
   -2.4872   -0.4697    5.3746 C   0  0  0  0  0  0  0  0  0  0  0  0
   -1.9261    0.0295    7.5748 C   0  0  0  0  0  0  0  0  0  0  0  0
   -2.2020   -1.3409    7.6625 C   0  0  0  0  0  0  0  0  0  0  0  0
   -2.6668   -1.9527    6.1332 S   0  0  0  0  0  0  0  0  0  0  0  0
    3.9342    1.1368   -7.9170 C   0  0  0  0  0  0  0  0  0  0  0  0
    3.1350    0.9410   -8.9847 C   0  0  0  0  0  0  0  0  0  0  0  0
    3.5456    0.8366  -10.4215 C   0  0  0  0  0  0  0  0  0  0  0  0
    2.3840    0.2131  -11.1144 C   0  0  0  0  0  0  0  0  0  0  0  0
    1.3033    0.1477  -10.2515 C   0  0  0  0  0  0  0  0  0  0  0  0
    1.6965    0.6377   -8.9497 C   0  0  0  0  0  0  0  0  0  0  0  0
    0.9058    0.8480   -7.9918 O   0  0  0  0  0  0  0  0  0  0  0  0
    4.6108    1.4345  -11.0204 C   0  0  0  0  0  0  0  0  0  0  0  0
    5.5887    2.2009  -10.2942 C   0  0  0  0  0  0  0  0  0  0  0  0
    6.3816    2.8228   -9.7246 N   0  0  0  0  0  0  0  0  0  0  0  0
    4.7549    1.4820  -12.4527 C   0  0  0  0  0  0  0  0  0  0  0  0
    4.8697    1.5401  -13.6032 N   0  0  0  0  0  0  0  0  0  0  0  0
    2.2829   -0.3444  -12.3986 C   0  0  0  0  0  0  0  0  0  0  0  0
    1.0570   -0.8955  -12.8078 C   0  0  0  0  0  0  0  0  0  0  0  0
   -0.0438   -0.9114  -11.9340 C   0  0  0  0  0  0  0  0  0  0  0  0
    0.0796   -0.3993  -10.6352 C   0  0  0  0  0  0  0  0  0  0  0  0
    2.5915   -0.1598   -5.7860 S   0  0  0  0  0  0  0  0  0  0  0  0
    3.4675    1.1106   -6.5224 C   0  0  0  0  0  0  0  0  0  0  0  0
    3.7294    2.1240   -5.5920 C   0  0  0  0  0  0  0  0  0  0  0  0
   -1.1781   -1.1245   -0.5169 H   0  0  0  0  0  0  0  0  0  0  0  0
    1.4635    3.1141    0.0366 H   0  0  0  0  0  0  0  0  0  0  0  0
   -2.5114   -1.5963    9.7882 H   0  0  0  0  0  0  0  0  0  0  0  0
    0.0795   -6.0298   12.0207 H   0  0  0  0  0  0  0  0  0  0  0  0
    1.8717   -7.4604   11.1593 H   0  0  0  0  0  0  0  0  0  0  0  0
    2.5882   -7.3020    8.7890 H   0  0  0  0  0  0  0  0  0  0  0  0
    1.4934   -5.6684    7.2616 H   0  0  0  0  0  0  0  0  0  0  0  0
   -1.3940    1.1826   -2.9152 H   0  0  0  0  0  0  0  0  0  0  0  0
   -3.1086    1.1951   -4.6602 H   0  0  0  0  0  0  0  0  0  0  0  0
   -3.0637   -0.4814   -6.4817 H   0  0  0  0  0  0  0  0  0  0  0  0
   -1.2746   -2.1928   -6.5439 H   0  0  0  0  0  0  0  0  0  0  0  0
    0.4520   -2.2501   -4.8051 H   0  0  0  0  0  0  0  0  0  0  0  0
   -0.6704   -2.8282   -2.0579 H   0  0  0  0  0  0  0  0  0  0  0  0
    0.1364   -5.0468   -1.3926 H   0  0  0  0  0  0  0  0  0  0  0  0
    2.5657   -5.5007   -1.2260 H   0  0  0  0  0  0  0  0  0  0  0  0
    4.1959   -3.7058   -1.7289 H   0  0  0  0  0  0  0  0  0  0  0  0
    3.4320   -1.4708   -2.3600 H   0  0  0  0  0  0  0  0  0  0  0  0
   -1.1697    4.4278    4.0077 H   0  0  0  0  0  0  0  0  0  0  0  0
   -2.4365    6.5118    3.7112 H   0  0  0  0  0  0  0  0  0  0  0  0
   -3.2564    7.1715    1.4680 H   0  0  0  0  0  0  0  0  0  0  0  0
   -2.8052    5.7248   -0.4873 H   0  0  0  0  0  0  0  0  0  0  0  0
   -1.5669    3.6372   -0.2328 H   0  0  0  0  0  0  0  0  0  0  0  0
    1.2409    4.7112    2.4727 H   0  0  0  0  0  0  0  0  0  0  0  0
    3.2697    4.8458    3.8377 H   0  0  0  0  0  0  0  0  0  0  0  0
    4.0663    2.8705    5.1027 H   0  0  0  0  0  0  0  0  0  0  0  0
    2.8263    0.7314    4.9663 H   0  0  0  0  0  0  0  0  0  0  0  0
    0.7949    0.5599    3.6095 H   0  0  0  0  0  0  0  0  0  0  0  0
   -1.5588    0.6360    8.3918 H   0  0  0  0  0  0  0  0  0  0  0  0
    4.9883    1.3072   -8.0428 H   0  0  0  0  0  0  0  0  0  0  0  0
    3.1263   -0.4015  -13.0663 H   0  0  0  0  0  0  0  0  0  0  0  0
    0.9631   -1.3260  -13.7958 H   0  0  0  0  0  0  0  0  0  0  0  0
   -0.9813   -1.3484  -12.2544 H   0  0  0  0  0  0  0  0  0  0  0  0
   -0.7513   -0.4484   -9.9419 H   0  0  0  0  0  0  0  0  0  0  0  0
    4.2461    3.0481   -5.8160 H   0  0  0  0  0  0  0  0  0  0  0  0
  1  3  1  0
  3  4  1  0
  4  5  1  0
  5  2  1  0
  5  6  1  0
  5  7  1  0
  3  8  2  0
  8  9  1  0
  9 10  2  0
 10 11  1  0
 11  4  2  0
  9 12  1  0
 12 13  1  0
 13 14  2  0
 14 10  1  0
 12 15  1  0
 12 16  1  0
 13 17  1  0
 17 18  2  0
 18 19  1  0
 19 14  1  0
 20 21  2  0
 21 22  1  0
 22 23  1  0
 23 24  2  0
 24 25  1  0
 25 21  1  0
 23 26  1  0
 26 27  2  0
 27 28  1  0
 28 29  2  0
 29 24  1  0
 25 30  2  0
 22 31  2  0
 31 32  1  0
 31 33  1  0
 33 34  3  0
 32 35  3  0
 16 36  2  0
 36 37  1  0
 37 38  2  0
 38 39  1  0
 39 40  2  0
 40 16  1  0
 15 41  2  0
 41 42  1  0
 42 43  2  0
 43 44  1  0
 44 45  2  0
 45 15  1  0
  6 46  2  0
 46 47  1  0
 47 48  2  0
 48 49  1  0
 49 50  2  0
 50  6  1  0
  7 51  2  0
 51 52  1  0
 52 53  2  0
 53 54  1  0
 54 55  2  0
 55  7  1  0
  1  2  2  0
  2 56  1  0
 56 57  2  0
 57 58  1  0
 58  1  1  0
 56 59  1  0
 59 60  1  0
 60 61  2  0
 61 57  1  0
 60 62  1  0
 62 63  2  0
 63 64  1  0
 64 61  1  0
 63 20  1  0
 65 66  2  0
 66 67  1  0
 67 68  1  0
 68 69  2  0
 69 70  1  0
 70 66  1  0
 70 71  2  0
 67 72  2  0
 72 73  1  0
 73 74  3  0
 72 75  1  0
 75 76  3  0
 68 77  1  0
 77 78  2  0
 78 79  1  0
 79 80  2  0
 80 69  1  0
 17 81  1  0
 81 82  1  0
 82 83  2  0
 83 18  1  0
 65 82  1  0
  8 84  1  0
 11 85  1  0
 20 86  1  0
 26 87  1  0
 27 88  1  0
 28 89  1  0
 29 90  1  0
 36 91  1  0
 37 92  1  0
 38 93  1  0
 39 94  1  0
 40 95  1  0
 41 96  1  0
 42 97  1  0
 43 98  1  0
 44 99  1  0
 45100  1  0
 46101  1  0
 47102  1  0
 48103  1  0
 49104  1  0
 50105  1  0
 51106  1  0
 52107  1  0
 53108  1  0
 54109  1  0
 55110  1  0
 62111  1  0
 65112  1  0
 77113  1  0
 78114  1  0
 79115  1  0
 80116  1  0
 83117  1  0
M  END

