PDBT-Cl.sdf
     RDKit          3D

272307  0  0  0  0  0  0  0  0999 V2000
   -3.1464   -4.3258   10.5687 C   0  0  0  0  0  0  0  0  0  0  0  0
   -1.8047   -4.1392   10.8807 C   0  0  0  0  0  0  0  0  0  0  0  0
   -1.3889   -2.8067   10.8053 C   0  0  0  0  0  0  0  0  0  0  0  0
   -2.3999   -1.9180   10.4425 C   0  0  0  0  0  0  0  0  0  0  0  0
   -3.8019   -2.8219   10.2158 S   0  0  0  0  0  0  0  0  0  0  0  0
   -2.1501   -0.6412    9.7439 C   0  0  0  0  0  0  0  0  0  0  0  0
   -2.7993   -0.3596    8.2245 S   0  0  0  0  0  0  0  0  0  0  0  0
   -1.6716    0.7571    7.6804 C   0  0  0  0  0  0  0  0  0  0  0  0
   -0.7202    0.9281    8.7040 C   0  0  0  0  0  0  0  0  0  0  0  0
   -1.0256    0.1851    9.8697 C   0  0  0  0  0  0  0  0  0  0  0  0
    0.5873    1.6255    8.5999 C   0  0  0  0  0  0  0  0  0  0  0  0
    1.4392    1.7270    9.8079 C   0  0  0  0  0  0  0  0  0  0  0  0
    1.0655    1.0856   11.0096 C   0  0  0  0  0  0  0  0  0  0  0  0
   -0.1835    0.2913   11.0797 C   0  0  0  0  0  0  0  0  0  0  0  0
    2.6573    2.4168    9.9075 C   0  0  0  0  0  0  0  0  0  0  0  0
    3.2491    2.2118   11.4661 S   0  0  0  0  0  0  0  0  0  0  0  0
    1.9809    1.2810   12.0534 C   0  0  0  0  0  0  0  0  0  0  0  0
   -1.6129    1.1576    6.2637 C   0  0  0  0  0  0  0  0  0  0  0  0
   -1.1645    2.3557    5.7146 C   0  0  0  0  0  0  0  0  0  0  0  0
   -1.1912    2.3671    4.3117 C   0  0  0  0  0  0  0  0  0  0  0  0
   -2.1173    0.1568    5.0114 S   0  0  0  0  0  0  0  0  0  0  0  0
    1.0031    2.0529    7.4927 O   0  0  0  0  0  0  0  0  0  0  0  0
   -0.5559   -0.2400   12.1585 O   0  0  0  0  0  0  0  0  0  0  0  0
    3.3776    3.2003    8.8484 C   0  0  0  0  0  0  0  0  0  0  0  0
    4.2516    2.2968    7.9837 C   0  0  0  0  0  0  0  0  0  0  0  0
    1.9313    0.7213   13.4465 C   0  0  0  0  0  0  0  0  0  0  0  0
    2.4521   -0.7105   13.4739 C   0  0  0  0  0  0  0  0  0  0  0  0
   -3.7234   -5.5849   10.0719 C   0  0  0  0  0  0  0  0  0  0  0  0
   -2.9687   -6.5674    9.4130 C   0  0  0  0  0  0  0  0  0  0  0  0
   -3.7848   -7.4179    8.6787 C   0  0  0  0  0  0  0  0  0  0  0  0
   -5.1237   -7.1607    8.7387 C   0  0  0  0  0  0  0  0  0  0  0  0
   -5.3776   -5.8188    9.7224 S   0  0  0  0  0  0  0  0  0  0  0  0
   -3.4477   -8.5280    7.4645 S   0  0  0  0  0  0  0  0  0  0  0  0
   -5.0807   -8.6865    7.0067 C   0  0  0  0  0  0  0  0  0  0  0  0
   -5.8986   -7.8720    7.8140 C   0  0  0  0  0  0  0  0  0  0  0  0
   -5.5853   -9.4133    5.9166 C   0  0  0  0  0  0  0  0  0  0  0  0
   -6.9710   -9.3202    5.6768 C   0  0  0  0  0  0  0  0  0  0  0  0
   -7.7997   -8.5460    6.5117 C   0  0  0  0  0  0  0  0  0  0  0  0
   -7.2853   -7.7898    7.5788 C   0  0  0  0  0  0  0  0  0  0  0  0
   -7.7093   -9.8546    4.6143 C   0  0  0  0  0  0  0  0  0  0  0  0
   -9.0352   -9.5386    4.6211 C   0  0  0  0  0  0  0  0  0  0  0  0
   -9.4054   -8.5561    5.9323 S   0  0  0  0  0  0  0  0  0  0  0  0
   -7.3589  -10.7246    3.2215 S   0  0  0  0  0  0  0  0  0  0  0  0
   -8.9631  -10.7049    2.6413 C   0  0  0  0  0  0  0  0  0  0  0  0
   -9.7745   -9.9983    3.5359 C   0  0  0  0  0  0  0  0  0  0  0  0
   -4.6697  -10.1019    4.9984 C   0  0  0  0  0  0  0  0  0  0  0  0
   -8.1712   -6.9255    8.3672 C   0  0  0  0  0  0  0  0  0  0  0  0
   -3.7411   -9.4708    4.1814 C   0  0  0  0  0  0  0  0  0  0  0  0
   -2.9717  -10.3660    3.4282 C   0  0  0  0  0  0  0  0  0  0  0  0
   -3.2771  -11.7028    3.6779 C   0  0  0  0  0  0  0  0  0  0  0  0
   -4.5160  -11.7681    4.8210 S   0  0  0  0  0  0  0  0  0  0  0  0
   -8.2969   -5.5527    8.2122 C   0  0  0  0  0  0  0  0  0  0  0  0
   -9.9371   -5.9367    9.8315 C   0  0  0  0  0  0  0  0  0  0  0  0
   -9.3035   -7.4601    9.4932 S   0  0  0  0  0  0  0  0  0  0  0  0
  -11.0869   -5.6740   10.7551 C   0  0  0  0  0  0  0  0  0  0  0  0
  -12.4077   -5.6620    9.9907 C   0  0  0  0  0  0  0  0  0  0  0  0
   -2.6451  -12.8925    3.0258 C   0  0  0  0  0  0  0  0  0  0  0  0
   -3.3290  -13.2160    1.7031 C   0  0  0  0  0  0  0  0  0  0  0  0
   -1.7095    1.2008    3.7707 C   0  0  0  0  0  0  0  0  0  0  0  0
   -9.2837   -4.9978    9.0343 C   0  0  0  0  0  0  0  0  0  0  0  0
   -9.6618   -3.2816    9.0243 Cl  0  0  0  0  0  0  0  0  0  0  0  0
   -1.7268   -9.8272    2.3113 Cl  0  0  0  0  0  0  0  0  0  0  0  0
   -1.0169   -1.4016   -9.1332 C   0  0  0  0  0  0  0  0  0  0  0  0
   -1.2323   -2.1977  -10.2565 C   0  0  0  0  0  0  0  0  0  0  0  0
   -1.0007   -1.5151  -11.4671 C   0  0  0  0  0  0  0  0  0  0  0  0
   -0.6120   -0.1881  -11.2817 C   0  0  0  0  0  0  0  0  0  0  0  0
   -0.5333    0.1122   -9.6380 S   0  0  0  0  0  0  0  0  0  0  0  0
   -0.0667    0.7590  -12.2627 C   0  0  0  0  0  0  0  0  0  0  0  0
    1.2604    1.7082  -11.8756 S   0  0  0  0  0  0  0  0  0  0  0  0
    1.0278    2.9288  -12.9949 C   0  0  0  0  0  0  0  0  0  0  0  0
   -0.1222    2.6035  -13.7203 C   0  0  0  0  0  0  0  0  0  0  0  0
   -0.7389    1.3969  -13.3134 C   0  0  0  0  0  0  0  0  0  0  0  0
   -0.7143    3.4391  -14.7856 C   0  0  0  0  0  0  0  0  0  0  0  0
   -1.9380    2.9504  -15.4660 C   0  0  0  0  0  0  0  0  0  0  0  0
   -2.5844    1.7728  -15.0287 C   0  0  0  0  0  0  0  0  0  0  0  0
   -2.0341    0.9805  -13.8989 C   0  0  0  0  0  0  0  0  0  0  0  0
   -2.5606    3.5497  -16.5706 C   0  0  0  0  0  0  0  0  0  0  0  0
   -3.9232    2.6452  -16.9548 S   0  0  0  0  0  0  0  0  0  0  0  0
   -3.7296    1.4632  -15.7741 C   0  0  0  0  0  0  0  0  0  0  0  0
    1.4738    4.2828  -12.6624 C   0  0  0  0  0  0  0  0  0  0  0  0
    2.8011    4.6950  -12.7517 C   0  0  0  0  0  0  0  0  0  0  0  0
    3.1658    5.6439  -11.7855 C   0  0  0  0  0  0  0  0  0  0  0  0
    0.7850    5.0912  -11.3581 S   0  0  0  0  0  0  0  0  0  0  0  0
   -0.1759    4.5313  -15.1104 O   0  0  0  0  0  0  0  0  0  0  0  0
   -2.6516   -0.0138  -13.4416 O   0  0  0  0  0  0  0  0  0  0  0  0
   -2.1290    4.7731  -17.3285 C   0  0  0  0  0  0  0  0  0  0  0  0
   -2.6281    6.0445  -16.6481 C   0  0  0  0  0  0  0  0  0  0  0  0
   -4.6772    0.3121  -15.5901 C   0  0  0  0  0  0  0  0  0  0  0  0
   -5.7067    0.6162  -14.5053 C   0  0  0  0  0  0  0  0  0  0  0  0
   -0.8814   -1.8204   -7.7402 C   0  0  0  0  0  0  0  0  0  0  0  0
    0.3253   -1.6333   -7.0532 C   0  0  0  0  0  0  0  0  0  0  0  0
    0.1121   -1.4888   -5.6920 C   0  0  0  0  0  0  0  0  0  0  0  0
   -1.1848   -1.5571   -5.2789 C   0  0  0  0  0  0  0  0  0  0  0  0
   -2.1701   -1.7842   -6.6236 S   0  0  0  0  0  0  0  0  0  0  0  0
    1.1104   -0.9534   -4.4550 S   0  0  0  0  0  0  0  0  0  0  0  0
   -0.1708   -0.8036   -3.3438 C   0  0  0  0  0  0  0  0  0  0  0  0
   -1.3881   -1.1878   -3.9422 C   0  0  0  0  0  0  0  0  0  0  0  0
   -0.0941   -0.3516   -2.0161 C   0  0  0  0  0  0  0  0  0  0  0  0
   -1.3015   -0.2970   -1.2934 C   0  0  0  0  0  0  0  0  0  0  0  0
   -2.5088   -0.7322   -1.8743 C   0  0  0  0  0  0  0  0  0  0  0  0
   -2.5874   -1.1733   -3.2061 C   0  0  0  0  0  0  0  0  0  0  0  0
   -1.5152    0.1380    0.0179 C   0  0  0  0  0  0  0  0  0  0  0  0
   -2.7963   -0.0003    0.4606 C   0  0  0  0  0  0  0  0  0  0  0  0
   -3.7820   -0.6272   -0.7448 S   0  0  0  0  0  0  0  0  0  0  0  0
   -0.5708    0.8034    1.2391 S   0  0  0  0  0  0  0  0  0  0  0  0
   -1.8562    0.8762    2.3540 C   0  0  0  0  0  0  0  0  0  0  0  0
   -3.0262    0.3777    1.7773 C   0  0  0  0  0  0  0  0  0  0  0  0
    1.2086   -0.0292   -1.4135 C   0  0  0  0  0  0  0  0  0  0  0  0
   -3.8532   -1.6734   -3.7519 C   0  0  0  0  0  0  0  0  0  0  0  0
    2.0882    0.9542   -1.8523 C   0  0  0  0  0  0  0  0  0  0  0  0
    3.3352    0.9020   -1.2136 C   0  0  0  0  0  0  0  0  0  0  0  0
    3.4380   -0.1226   -0.2753 C   0  0  0  0  0  0  0  0  0  0  0  0
    1.9925   -0.9807   -0.2693 S   0  0  0  0  0  0  0  0  0  0  0  0
   -4.6933   -0.9915   -4.6239 C   0  0  0  0  0  0  0  0  0  0  0  0
   -5.9779   -2.9036   -4.2242 C   0  0  0  0  0  0  0  0  0  0  0  0
   -4.5940   -3.1115   -3.2896 S   0  0  0  0  0  0  0  0  0  0  0  0
   -7.1511   -3.8379   -4.2235 C   0  0  0  0  0  0  0  0  0  0  0  0
   -8.0458   -3.5839   -3.0145 C   0  0  0  0  0  0  0  0  0  0  0  0
    4.6719   -0.5345    0.4648 C   0  0  0  0  0  0  0  0  0  0  0  0
    5.4300   -1.6054   -0.3064 C   0  0  0  0  0  0  0  0  0  0  0  0
    2.1398    5.9709  -10.8986 C   0  0  0  0  0  0  0  0  0  0  0  0
   -5.8823   -1.6798   -4.8901 C   0  0  0  0  0  0  0  0  0  0  0  0
   -7.1295   -1.0287   -5.9423 Cl  0  0  0  0  0  0  0  0  0  0  0  0
    4.6575    1.9753   -1.6427 Cl  0  0  0  0  0  0  0  0  0  0  0  0
    5.4137    4.4386    1.5495 C   0  0  0  0  0  0  0  0  0  0  0  0
    6.6232    4.9297    2.0271 C   0  0  0  0  0  0  0  0  0  0  0  0
    7.3149    4.0162    2.8357 C   0  0  0  0  0  0  0  0  0  0  0  0
    6.6602    2.7957    2.9993 C   0  0  0  0  0  0  0  0  0  0  0  0
    5.2277    2.8652    2.1137 S   0  0  0  0  0  0  0  0  0  0  0  0
    7.2859    1.5705    3.5465 C   0  0  0  0  0  0  0  0  0  0  0  0
    8.9537    1.3352    3.5808 S   0  0  0  0  0  0  0  0  0  0  0  0
    8.9481   -0.2996    3.9594 C   0  0  0  0  0  0  0  0  0  0  0  0
    7.6166   -0.7020    4.0907 C   0  0  0  0  0  0  0  0  0  0  0  0
    6.6848    0.3411    3.8760 C   0  0  0  0  0  0  0  0  0  0  0  0
    7.1515   -2.0611    4.4531 C   0  0  0  0  0  0  0  0  0  0  0  0
    5.7120   -2.3668    4.3079 C   0  0  0  0  0  0  0  0  0  0  0  0
    4.7793   -1.3251    4.1252 C   0  0  0  0  0  0  0  0  0  0  0  0
    5.2360    0.0845    4.0540 C   0  0  0  0  0  0  0  0  0  0  0  0
    5.1356   -3.6408    4.3582 C   0  0  0  0  0  0  0  0  0  0  0  0
    3.4653   -3.4478    4.2076 S   0  0  0  0  0  0  0  0  0  0  0  0
    3.4566   -1.7744    4.0350 C   0  0  0  0  0  0  0  0  0  0  0  0
   10.1584   -1.1358    3.9739 C   0  0  0  0  0  0  0  0  0  0  0  0
   11.3834   -0.7724    4.5167 C   0  0  0  0  0  0  0  0  0  0  0  0
   12.3881   -1.7247    4.3077 C   0  0  0  0  0  0  0  0  0  0  0  0
   10.3465   -2.6198    3.1960 S   0  0  0  0  0  0  0  0  0  0  0  0
    7.9440   -2.9085    4.9410 O   0  0  0  0  0  0  0  0  0  0  0  0
    4.4272    1.0321    4.2259 O   0  0  0  0  0  0  0  0  0  0  0  0
    5.8559   -4.9438    4.5992 C   0  0  0  0  0  0  0  0  0  0  0  0
    5.0317   -6.1625    4.1955 C   0  0  0  0  0  0  0  0  0  0  0  0
    2.2138   -0.9479    3.8996 C   0  0  0  0  0  0  0  0  0  0  0  0
    1.7377   -0.4817    5.2695 C   0  0  0  0  0  0  0  0  0  0  0  0
    4.5930    5.0465    0.4930 C   0  0  0  0  0  0  0  0  0  0  0  0
    3.3070    4.6114    0.1354 C   0  0  0  0  0  0  0  0  0  0  0  0
    2.9248    5.1576   -1.0858 C   0  0  0  0  0  0  0  0  0  0  0  0
    3.8339    5.9786   -1.6870 C   0  0  0  0  0  0  0  0  0  0  0  0
    5.2073    6.0811   -0.7214 S   0  0  0  0  0  0  0  0  0  0  0  0
    1.6786    4.7744   -2.1444 S   0  0  0  0  0  0  0  0  0  0  0  0
    2.3394    5.6946   -3.4216 C   0  0  0  0  0  0  0  0  0  0  0  0
    3.5419    6.3075   -3.0148 C   0  0  0  0  0  0  0  0  0  0  0  0
    1.8892    5.7358   -4.7521 C   0  0  0  0  0  0  0  0  0  0  0  0
    2.6905    6.4358   -5.6748 C   0  0  0  0  0  0  0  0  0  0  0  0
    3.8920    7.0509   -5.2693 C   0  0  0  0  0  0  0  0  0  0  0  0
    4.3426    7.0125   -3.9376 C   0  0  0  0  0  0  0  0  0  0  0  0
    2.5161    6.5729   -7.0557 C   0  0  0  0  0  0  0  0  0  0  0  0
    3.5222    7.2194   -7.7057 C   0  0  0  0  0  0  0  0  0  0  0  0
    4.7027    7.7104   -6.6183 S   0  0  0  0  0  0  0  0  0  0  0  0
    1.4520    5.9450   -8.1890 S   0  0  0  0  0  0  0  0  0  0  0  0
    2.3375    6.4944   -9.5377 C   0  0  0  0  0  0  0  0  0  0  0  0
    3.4732    7.1909   -9.0945 C   0  0  0  0  0  0  0  0  0  0  0  0
    0.6744    5.0097   -5.1412 C   0  0  0  0  0  0  0  0  0  0  0  0
    5.5940    7.6707   -3.5468 C   0  0  0  0  0  0  0  0  0  0  0  0
   -0.6221    5.3968   -4.8297 C   0  0  0  0  0  0  0  0  0  0  0  0
   -1.5838    4.4741   -5.2543 C   0  0  0  0  0  0  0  0  0  0  0  0
   -1.0428    3.3522   -5.8798 C   0  0  0  0  0  0  0  0  0  0  0  0
    0.6328    3.5085   -5.9047 S   0  0  0  0  0  0  0  0  0  0  0  0
    6.8628    7.3476   -4.0146 C   0  0  0  0  0  0  0  0  0  0  0  0
    7.3665    9.2504   -2.7452 C   0  0  0  0  0  0  0  0  0  0  0  0
    5.6948    9.0621   -2.6110 S   0  0  0  0  0  0  0  0  0  0  0  0
    8.1389   10.4413   -2.2508 C   0  0  0  0  0  0  0  0  0  0  0  0
    7.7890   10.7767   -0.8032 C   0  0  0  0  0  0  0  0  0  0  0  0
   -1.8082    2.2297   -6.5114 C   0  0  0  0  0  0  0  0  0  0  0  0
   -2.2712    2.6239   -7.9091 C   0  0  0  0  0  0  0  0  0  0  0  0
   11.9659   -2.8330    3.5842 C   0  0  0  0  0  0  0  0  0  0  0  0
    7.8519    8.2354   -3.5727 C   0  0  0  0  0  0  0  0  0  0  0  0
    9.5266    8.0914   -4.0901 Cl  0  0  0  0  0  0  0  0  0  0  0  0
   -3.3047    4.7267   -5.0110 Cl  0  0  0  0  0  0  0  0  0  0  0  0
   -1.1077   -4.9555   11.0173 H   0  0  0  0  0  0  0  0  0  0  0  0
   -0.3453   -2.5366   10.8444 H   0  0  0  0  0  0  0  0  0  0  0  0
   -0.8506    3.2066    6.2997 H   0  0  0  0  0  0  0  0  0  0  0  0
   -0.8638    3.2110    3.7167 H   0  0  0  0  0  0  0  0  0  0  0  0
    2.6533    3.7536    8.2161 H   0  0  0  0  0  0  0  0  0  0  0  0
    4.0232    3.9628    9.3347 H   0  0  0  0  0  0  0  0  0  0  0  0
    4.7582    2.9085    7.2060 H   0  0  0  0  0  0  0  0  0  0  0  0
    3.6332    1.5253    7.4784 H   0  0  0  0  0  0  0  0  0  0  0  0
    5.0227    1.7934    8.6054 H   0  0  0  0  0  0  0  0  0  0  0  0
    2.5583    1.3475   14.1145 H   0  0  0  0  0  0  0  0  0  0  0  0
    0.8980    0.7619   13.8474 H   0  0  0  0  0  0  0  0  0  0  0  0
    3.5320   -0.7262   13.2116 H   0  0  0  0  0  0  0  0  0  0  0  0
    1.8895   -1.3505   12.7589 H   0  0  0  0  0  0  0  0  0  0  0  0
    2.3329   -1.1292   14.4944 H   0  0  0  0  0  0  0  0  0  0  0  0
   -1.8890   -6.5728    9.3457 H   0  0  0  0  0  0  0  0  0  0  0  0
   -9.3006  -11.1479    1.7152 H   0  0  0  0  0  0  0  0  0  0  0  0
  -10.8325   -9.8071    3.3903 H   0  0  0  0  0  0  0  0  0  0  0  0
   -3.6214   -8.3950    4.1376 H   0  0  0  0  0  0  0  0  0  0  0  0
   -7.7035   -4.9705    7.5178 H   0  0  0  0  0  0  0  0  0  0  0  0
  -11.1235   -6.4616   11.5381 H   0  0  0  0  0  0  0  0  0  0  0  0
  -10.9386   -4.6978   11.2659 H   0  0  0  0  0  0  0  0  0  0  0  0
  -12.3743   -4.9215    9.1633 H   0  0  0  0  0  0  0  0  0  0  0  0
  -12.6141   -6.6686    9.5698 H   0  0  0  0  0  0  0  0  0  0  0  0
  -13.2289   -5.3865   10.6825 H   0  0  0  0  0  0  0  0  0  0  0  0
   -1.5662  -12.6932    2.8433 H   0  0  0  0  0  0  0  0  0  0  0  0
   -2.7151  -13.7640    3.7096 H   0  0  0  0  0  0  0  0  0  0  0  0
   -3.2583  -12.3548    1.0049 H   0  0  0  0  0  0  0  0  0  0  0  0
   -2.8338  -14.0943    1.2404 H   0  0  0  0  0  0  0  0  0  0  0  0
   -4.4007  -13.4557    1.8769 H   0  0  0  0  0  0  0  0  0  0  0  0
   -1.4724   -3.2509  -10.2041 H   0  0  0  0  0  0  0  0  0  0  0  0
   -1.0332   -2.0004  -12.4326 H   0  0  0  0  0  0  0  0  0  0  0  0
    3.5283    4.2039  -13.3820 H   0  0  0  0  0  0  0  0  0  0  0  0
    4.1917    5.9657  -11.6475 H   0  0  0  0  0  0  0  0  0  0  0  0
   -2.5392    4.7276  -18.3599 H   0  0  0  0  0  0  0  0  0  0  0  0
   -1.0223    4.7965  -17.4233 H   0  0  0  0  0  0  0  0  0  0  0  0
   -2.2615    6.9300  -17.2105 H   0  0  0  0  0  0  0  0  0  0  0  0
   -3.7397    6.0609  -16.6353 H   0  0  0  0  0  0  0  0  0  0  0  0
   -2.2489    6.1078  -15.6077 H   0  0  0  0  0  0  0  0  0  0  0  0
   -5.2091    0.1241  -16.5446 H   0  0  0  0  0  0  0  0  0  0  0  0
   -4.1208   -0.6175  -15.3436 H   0  0  0  0  0  0  0  0  0  0  0  0
   -6.4297   -0.2232  -14.4393 H   0  0  0  0  0  0  0  0  0  0  0  0
   -5.2132    0.7426  -13.5183 H   0  0  0  0  0  0  0  0  0  0  0  0
   -6.2631    1.5441  -14.7582 H   0  0  0  0  0  0  0  0  0  0  0  0
    1.2777   -1.4452   -7.5313 H   0  0  0  0  0  0  0  0  0  0  0  0
   -3.9782    0.2807    2.2865 H   0  0  0  0  0  0  0  0  0  0  0  0
    1.8542    1.6565   -2.6401 H   0  0  0  0  0  0  0  0  0  0  0  0
   -4.4557   -0.0221   -5.0410 H   0  0  0  0  0  0  0  0  0  0  0  0
   -6.7793   -4.8856   -4.1935 H   0  0  0  0  0  0  0  0  0  0  0  0
   -7.7407   -3.7184   -5.1581 H   0  0  0  0  0  0  0  0  0  0  0  0
   -8.4099   -2.5334   -3.0127 H   0  0  0  0  0  0  0  0  0  0  0  0
   -7.4860   -3.7775   -2.0749 H   0  0  0  0  0  0  0  0  0  0  0  0
   -8.9174   -4.2700   -3.0537 H   0  0  0  0  0  0  0  0  0  0  0  0
    5.3322    0.3402    0.6315 H   0  0  0  0  0  0  0  0  0  0  0  0
    4.3775   -0.9372    1.4509 H   0  0  0  0  0  0  0  0  0  0  0  0
    5.7061   -1.2327   -1.3147 H   0  0  0  0  0  0  0  0  0  0  0  0
    4.8044   -2.5165   -0.4099 H   0  0  0  0  0  0  0  0  0  0  0  0
    6.3567   -1.8696    0.2432 H   0  0  0  0  0  0  0  0  0  0  0  0
    7.0241    5.8966    1.7543 H   0  0  0  0  0  0  0  0  0  0  0  0
    8.2982    4.2220    3.2339 H   0  0  0  0  0  0  0  0  0  0  0  0
   11.5515    0.1629    5.0350 H   0  0  0  0  0  0  0  0  0  0  0  0
   13.3994   -1.6041    4.6694 H   0  0  0  0  0  0  0  0  0  0  0  0
    6.1173   -5.0205    5.6762 H   0  0  0  0  0  0  0  0  0  0  0  0
    6.7970   -4.9568    4.0094 H   0  0  0  0  0  0  0  0  0  0  0  0
    4.7376   -6.0944    3.1265 H   0  0  0  0  0  0  0  0  0  0  0  0
    4.1217   -6.2372    4.8256 H   0  0  0  0  0  0  0  0  0  0  0  0
    5.6377   -7.0811    4.3410 H   0  0  0  0  0  0  0  0  0  0  0  0
    2.3987   -0.0766    3.2361 H   0  0  0  0  0  0  0  0  0  0  0  0
    1.4158   -1.5558    3.4225 H   0  0  0  0  0  0  0  0  0  0  0  0
    2.5582    0.0206    5.8226 H   0  0  0  0  0  0  0  0  0  0  0  0
    0.9054    0.2368    5.1459 H   0  0  0  0  0  0  0  0  0  0  0  0
    1.3805   -1.3473    5.8639 H   0  0  0  0  0  0  0  0  0  0  0  0
    2.7398    3.8593    0.6712 H   0  0  0  0  0  0  0  0  0  0  0  0
    4.2576    7.5666   -9.7350 H   0  0  0  0  0  0  0  0  0  0  0  0
   -0.8649    6.3103   -4.2998 H   0  0  0  0  0  0  0  0  0  0  0  0
    7.0607    6.5146   -4.6775 H   0  0  0  0  0  0  0  0  0  0  0  0
    9.2289   10.2499   -2.3145 H   0  0  0  0  0  0  0  0  0  0  0  0
    7.9051   11.3115   -2.9009 H   0  0  0  0  0  0  0  0  0  0  0  0
    8.4051   11.6351   -0.4628 H   0  0  0  0  0  0  0  0  0  0  0  0
    7.9970    9.9041   -0.1472 H   0  0  0  0  0  0  0  0  0  0  0  0
    6.7165   11.0608   -0.7146 H   0  0  0  0  0  0  0  0  0  0  0  0
   -2.6856    1.9719   -5.8819 H   0  0  0  0  0  0  0  0  0  0  0  0
   -1.1616    1.3303   -6.5738 H   0  0  0  0  0  0  0  0  0  0  0  0
   -1.3935    2.8180   -8.5609 H   0  0  0  0  0  0  0  0  0  0  0  0
   -2.8996    3.5393   -7.8684 H   0  0  0  0  0  0  0  0  0  0  0  0
   -2.8730    1.7993   -8.3438 H   0  0  0  0  0  0  0  0  0  0  0  0
   12.5820   -3.6810    3.3110 H   0  0  0  0  0  0  0  0  0  0  0  0
  1  2  2  0
  2  3  1  0
  3  4  2  0
  4  5  1  0
  5  1  1  0
  4  6  1  0
  6  7  1  0
  7  8  1  0
  8  9  2  0
  9 10  1  0
 10  6  2  0
  9 11  1  0
 11 12  1  0
 12 13  1  0
 13 14  1  0
 14 10  1  0
 12 15  2  0
 15 16  1  0
 16 17  1  0
 17 13  2  0
  8 18  1  0
 18 19  2  0
 19 20  1  0
 20 59  2  0
 59 21  1  0
 21 18  1  0
 11 22  2  0
 14 23  2  0
 15 24  1  0
 24 25  1  0
 17 26  1  0
 26 27  1  0
  1 28  1  0
 28 29  2  0
 29 30  1  0
 30 31  2  0
 31 32  1  0
 32 28  1  0
 30 33  1  0
 33 34  1  0
 34 35  2  0
 35 31  1  0
 34 36  1  0
 36 37  2  0
 37 38  1  0
 38 39  2  0
 39 35  1  0
 37 40  1  0
 40 41  2  0
 41 42  1  0
 42 38  1  0
 40 43  1  0
 43 44  1  0
 44 45  2  0
 45 41  1  0
 36 46  1  0
 39 47  1  0
 46 48  2  0
 48 49  1  0
 49 50  2  0
 50 51  1  0
 51 46  1  0
 47 52  2  0
 52 60  1  0
 60 53  2  0
 53 54  1  0
 54 47  1  0
 53 55  1  0
 55 56  1  0
 50 57  1  0
 57 58  1  0
 60 61  1  0
 49 62  1  0
 63 64  2  0
 64 65  1  0
 65 66  2  0
 66 67  1  0
 67 63  1  0
 66 68  1  0
 68 69  1  0
 69 70  1  0
 70 71  2  0
 71 72  1  0
 72 68  2  0
 71 73  1  0
 73 74  1  0
 74 75  1  0
 75 76  1  0
 76 72  1  0
 74 77  2  0
 77 78  1  0
 78 79  1  0
 79 75  2  0
 70 80  1  0
 80 81  2  0
 81 82  1  0
 82121  2  0
121 83  1  0
 83 80  1  0
 73 84  2  0
 76 85  2  0
 77 86  1  0
 86 87  1  0
 79 88  1  0
 88 89  1  0
 63 90  1  0
 90 91  2  0
 91 92  1  0
 92 93  2  0
 93 94  1  0
 94 90  1  0
 92 95  1  0
 95 96  1  0
 96 97  2  0
 97 93  1  0
 96 98  1  0
 98 99  2  0
 99100  1  0
100101  2  0
101 97  1  0
 99102  1  0
102103  2  0
103104  1  0
104100  1  0
102105  1  0
105106  1  0
106107  2  0
107103  1  0
 98108  1  0
101109  1  0
108110  2  0
110111  1  0
111112  2  0
112113  1  0
113108  1  0
109114  2  0
114122  1  0
122115  2  0
115116  1  0
116109  1  0
115117  1  0
117118  1  0
112119  1  0
119120  1  0
122123  1  0
111124  1  0
125126  2  0
126127  1  0
127128  2  0
128129  1  0
129125  1  0
128130  1  0
130131  1  0
131132  1  0
132133  2  0
133134  1  0
134130  2  0
133135  1  0
135136  1  0
136137  1  0
137138  1  0
138134  1  0
136139  2  0
139140  1  0
140141  1  0
141137  2  0
132142  1  0
142143  2  0
143144  1  0
144183  2  0
183145  1  0
145142  1  0
135146  2  0
138147  2  0
139148  1  0
148149  1  0
141150  1  0
150151  1  0
125152  1  0
152153  2  0
153154  1  0
154155  2  0
155156  1  0
156152  1  0
154157  1  0
157158  1  0
158159  2  0
159155  1  0
158160  1  0
160161  2  0
161162  1  0
162163  2  0
163159  1  0
161164  1  0
164165  2  0
165166  1  0
166162  1  0
164167  1  0
167168  1  0
168169  2  0
169165  1  0
160170  1  0
163171  1  0
170172  2  0
172173  1  0
173174  2  0
174175  1  0
175170  1  0
171176  2  0
176184  1  0
184177  2  0
177178  1  0
178171  1  0
177179  1  0
179180  1  0
174181  1  0
181182  1  0
184185  1  0
173186  1  0
 59106  1  0
121168  1  0
  2187  1  0
  3188  1  0
 19189  1  0
 20190  1  0
 24191  1  0
 24192  1  0
 25193  1  0
 25194  1  0
 25195  1  0
 26196  1  0
 26197  1  0
 27198  1  0
 27199  1  0
 27200  1  0
 29201  1  0
 44202  1  0
 45203  1  0
 48204  1  0
 52205  1  0
 55206  1  0
 55207  1  0
 56208  1  0
 56209  1  0
 56210  1  0
 57211  1  0
 57212  1  0
 58213  1  0
 58214  1  0
 58215  1  0
 64216  1  0
 65217  1  0
 81218  1  0
 82219  1  0
 86220  1  0
 86221  1  0
 87222  1  0
 87223  1  0
 87224  1  0
 88225  1  0
 88226  1  0
 89227  1  0
 89228  1  0
 89229  1  0
 91230  1  0
107231  1  0
110232  1  0
114233  1  0
117234  1  0
117235  1  0
118236  1  0
118237  1  0
118238  1  0
119239  1  0
119240  1  0
120241  1  0
120242  1  0
120243  1  0
126244  1  0
127245  1  0
143246  1  0
144247  1  0
148248  1  0
148249  1  0
149250  1  0
149251  1  0
149252  1  0
150253  1  0
150254  1  0
151255  1  0
151256  1  0
151257  1  0
153258  1  0
169259  1  0
172260  1  0
176261  1  0
179262  1  0
179263  1  0
180264  1  0
180265  1  0
180266  1  0
181267  1  0
181268  1  0
182269  1  0
182270  1  0
182271  1  0
183272  1  0
M  END

