PDBT-T1.sdf
     RDKit          3D

272307  0  0  0  0  0  0  0  0999 V2000
    3.5036    6.1453    5.3126 C   0  0  0  0  0  0  0  0  0  0  0  0
    3.0794    7.4347    4.9961 C   0  0  0  0  0  0  0  0  0  0  0  0
    1.6880    7.5382    4.8140 C   0  0  0  0  0  0  0  0  0  0  0  0
    1.0113    6.3350    5.0048 C   0  0  0  0  0  0  0  0  0  0  0  0
    2.1517    5.1493    5.3472 S   0  0  0  0  0  0  0  0  0  0  0  0
   -0.4030    6.0577    4.6886 C   0  0  0  0  0  0  0  0  0  0  0  0
   -1.1895    6.6725    3.3347 S   0  0  0  0  0  0  0  0  0  0  0  0
   -2.4674    5.5724    3.3037 C   0  0  0  0  0  0  0  0  0  0  0  0
   -2.2614    4.6495    4.3455 C   0  0  0  0  0  0  0  0  0  0  0  0
   -1.1514    4.9704    5.1547 C   0  0  0  0  0  0  0  0  0  0  0  0
   -2.9380    3.3344    4.5251 C   0  0  0  0  0  0  0  0  0  0  0  0
   -2.5561    2.4830    5.6783 C   0  0  0  0  0  0  0  0  0  0  0  0
   -1.5183    2.8746    6.5458 C   0  0  0  0  0  0  0  0  0  0  0  0
   -0.8425    4.1795    6.3678 C   0  0  0  0  0  0  0  0  0  0  0  0
   -3.1029    1.2325    6.0003 C   0  0  0  0  0  0  0  0  0  0  0  0
   -2.2703    0.6210    7.3289 S   0  0  0  0  0  0  0  0  0  0  0  0
   -1.2191    1.9175    7.5240 C   0  0  0  0  0  0  0  0  0  0  0  0
   -3.4676    5.5115    2.2205 C   0  0  0  0  0  0  0  0  0  0  0  0
   -3.1697    5.5824    0.8639 C   0  0  0  0  0  0  0  0  0  0  0  0
   -4.2256    5.1686    0.0383 C   0  0  0  0  0  0  0  0  0  0  0  0
   -5.0704    5.0178    2.3780 S   0  0  0  0  0  0  0  0  0  0  0  0
   -3.7267    2.8891    3.6553 O   0  0  0  0  0  0  0  0  0  0  0  0
   -0.1200    4.6611    7.2758 O   0  0  0  0  0  0  0  0  0  0  0  0
   -4.2104    0.4937    5.3057 C   0  0  0  0  0  0  0  0  0  0  0  0
   -3.6761   -0.3109    4.1244 C   0  0  0  0  0  0  0  0  0  0  0  0
   -0.1716    1.9913    8.5970 C   0  0  0  0  0  0  0  0  0  0  0  0
   -0.7234    2.6729    9.8446 C   0  0  0  0  0  0  0  0  0  0  0  0
    4.8844    5.6553    5.4474 C   0  0  0  0  0  0  0  0  0  0  0  0
    6.0657    6.4018    5.3024 C   0  0  0  0  0  0  0  0  0  0  0  0
    7.1821    5.5684    5.3880 C   0  0  0  0  0  0  0  0  0  0  0  0
    6.9218    4.2463    5.5886 C   0  0  0  0  0  0  0  0  0  0  0  0
    5.2678    4.0132    5.6828 S   0  0  0  0  0  0  0  0  0  0  0  0
    8.8413    5.8182    5.2462 S   0  0  0  0  0  0  0  0  0  0  0  0
    9.2205    4.1610    5.4449 C   0  0  0  0  0  0  0  0  0  0  0  0
    8.0408    3.4146    5.6238 C   0  0  0  0  0  0  0  0  0  0  0  0
   10.4911    3.5575    5.4471 C   0  0  0  0  0  0  0  0  0  0  0  0
   10.5293    2.1555    5.6128 C   0  0  0  0  0  0  0  0  0  0  0  0
    9.3432    1.4126    5.7915 C   0  0  0  0  0  0  0  0  0  0  0  0
    8.0790    2.0184    5.7987 C   0  0  0  0  0  0  0  0  0  0  0  0
   11.6387    1.3009    5.5988 C   0  0  0  0  0  0  0  0  0  0  0  0
   11.3465   -0.0189    5.7713 C   0  0  0  0  0  0  0  0  0  0  0  0
    9.6901   -0.2510    5.9449 S   0  0  0  0  0  0  0  0  0  0  0  0
   13.2957    1.4681    5.3657 S   0  0  0  0  0  0  0  0  0  0  0  0
   13.6249   -0.1951    5.5154 C   0  0  0  0  0  0  0  0  0  0  0  0
   12.4309   -0.8904    5.7319 C   0  0  0  0  0  0  0  0  0  0  0  0
   11.7089    4.3662    5.3093 C   0  0  0  0  0  0  0  0  0  0  0  0
    6.8577    1.2237    5.9871 C   0  0  0  0  0  0  0  0  0  0  0  0
   12.1021    5.0481    4.1658 C   0  0  0  0  0  0  0  0  0  0  0  0
   13.3103    5.7391    4.3267 C   0  0  0  0  0  0  0  0  0  0  0  0
   13.8442    5.6197    5.6072 C   0  0  0  0  0  0  0  0  0  0  0  0
   12.8316    4.6445    6.5324 S   0  0  0  0  0  0  0  0  0  0  0  0
    6.2524    0.9652    7.2090 C   0  0  0  0  0  0  0  0  0  0  0  0
    5.0100    0.3364    7.0812 C   0  0  0  0  0  0  0  0  0  0  0  0
    4.6486    0.0932    5.7611 C   0  0  0  0  0  0  0  0  0  0  0  0
    5.8614    0.6769    4.7468 S   0  0  0  0  0  0  0  0  0  0  0  0
    3.3336   -0.4700    5.3094 C   0  0  0  0  0  0  0  0  0  0  0  0
    3.5269   -1.7388    4.4879 C   0  0  0  0  0  0  0  0  0  0  0  0
   15.1476    6.1928    6.0707 C   0  0  0  0  0  0  0  0  0  0  0  0
   16.2873    5.2039    5.8450 C   0  0  0  0  0  0  0  0  0  0  0  0
   -8.7603   -7.4320    0.0295 C   0  0  0  0  0  0  0  0  0  0  0  0
   -8.9249   -8.3447    1.0700 C   0  0  0  0  0  0  0  0  0  0  0  0
   -8.1078   -9.4754    0.9601 C   0  0  0  0  0  0  0  0  0  0  0  0
   -7.3183   -9.4810   -0.1838 C   0  0  0  0  0  0  0  0  0  0  0  0
   -7.6064   -8.0526   -1.0281 S   0  0  0  0  0  0  0  0  0  0  0  0
   -6.0921  -10.2724   -0.3382 C   0  0  0  0  0  0  0  0  0  0  0  0
   -4.8066  -10.1230    0.7343 S   0  0  0  0  0  0  0  0  0  0  0  0
   -3.6101  -10.7626   -0.2539 C   0  0  0  0  0  0  0  0  0  0  0  0
   -4.2194  -11.1278   -1.4578 C   0  0  0  0  0  0  0  0  0  0  0  0
   -5.5921  -10.8209   -1.5214 C   0  0  0  0  0  0  0  0  0  0  0  0
   -3.5180  -11.6924   -2.6297 C   0  0  0  0  0  0  0  0  0  0  0  0
   -4.2261  -11.7240   -3.9276 C   0  0  0  0  0  0  0  0  0  0  0  0
   -5.5908  -11.3709   -4.0098 C   0  0  0  0  0  0  0  0  0  0  0  0
   -6.3421  -10.9845   -2.7880 C   0  0  0  0  0  0  0  0  0  0  0  0
   -3.6537  -12.0221   -5.1703 C   0  0  0  0  0  0  0  0  0  0  0  0
   -4.8290  -11.8051   -6.3508 S   0  0  0  0  0  0  0  0  0  0  0  0
   -6.0885  -11.3853   -5.3188 C   0  0  0  0  0  0  0  0  0  0  0  0
   -2.2139  -10.3242   -0.1388 C   0  0  0  0  0  0  0  0  0  0  0  0
   -1.4714  -10.2152    1.0333 C   0  0  0  0  0  0  0  0  0  0  0  0
   -0.3273   -9.4063    0.8997 C   0  0  0  0  0  0  0  0  0  0  0  0
   -1.4819   -9.3681   -1.3059 S   0  0  0  0  0  0  0  0  0  0  0  0
   -2.3565  -12.1654   -2.5075 O   0  0  0  0  0  0  0  0  0  0  0  0
   -7.5899  -10.8190   -2.8164 O   0  0  0  0  0  0  0  0  0  0  0  0
   -2.2157  -12.3267   -5.4759 C   0  0  0  0  0  0  0  0  0  0  0  0
   -1.3679  -11.0571   -5.4525 C   0  0  0  0  0  0  0  0  0  0  0  0
   -7.4323  -10.9217   -5.8016 C   0  0  0  0  0  0  0  0  0  0  0  0
   -7.4882   -9.3991   -5.8615 C   0  0  0  0  0  0  0  0  0  0  0  0
   -9.2034   -6.0247    0.0408 C   0  0  0  0  0  0  0  0  0  0  0  0
   -9.6486   -5.3474    1.1854 C   0  0  0  0  0  0  0  0  0  0  0  0
   -9.6481   -3.9728    0.9840 C   0  0  0  0  0  0  0  0  0  0  0  0
   -9.2484   -3.5469   -0.2490 C   0  0  0  0  0  0  0  0  0  0  0  0
   -8.8382   -4.8851   -1.1801 S   0  0  0  0  0  0  0  0  0  0  0  0
   -9.7167   -2.6892    2.0635 S   0  0  0  0  0  0  0  0  0  0  0  0
   -9.2244   -1.5453    0.9015 C   0  0  0  0  0  0  0  0  0  0  0  0
   -9.0074   -2.1690   -0.3443 C   0  0  0  0  0  0  0  0  0  0  0  0
   -8.8799   -0.2041    1.1381 C   0  0  0  0  0  0  0  0  0  0  0  0
   -8.3587    0.5253    0.0519 C   0  0  0  0  0  0  0  0  0  0  0  0
   -8.1909   -0.0819   -1.2089 C   0  0  0  0  0  0  0  0  0  0  0  0
   -8.4887   -1.4380   -1.4328 C   0  0  0  0  0  0  0  0  0  0  0  0
   -7.8181    1.8185    0.0499 C   0  0  0  0  0  0  0  0  0  0  0  0
   -7.2415    2.2002   -1.1266 C   0  0  0  0  0  0  0  0  0  0  0  0
   -7.3706    0.9753   -2.2667 S   0  0  0  0  0  0  0  0  0  0  0  0
   -7.3802    2.9093    1.2462 S   0  0  0  0  0  0  0  0  0  0  0  0
   -6.4130    3.8740    0.2264 C   0  0  0  0  0  0  0  0  0  0  0  0
   -6.4485    3.3439   -1.0744 C   0  0  0  0  0  0  0  0  0  0  0  0
   -8.9142    0.3334    2.5050 C   0  0  0  0  0  0  0  0  0  0  0  0
   -5.3705    4.7856    0.7376 C   0  0  0  0  0  0  0  0  0  0  0  0
   -8.1875   -2.0579   -2.7275 C   0  0  0  0  0  0  0  0  0  0  0  0
   -7.8203    0.4167    3.3564 C   0  0  0  0  0  0  0  0  0  0  0  0
   -8.1608    0.8364    4.6467 C   0  0  0  0  0  0  0  0  0  0  0  0
   -9.5198    1.0802    4.8009 C   0  0  0  0  0  0  0  0  0  0  0  0
  -10.3062    0.7437    3.3506 S   0  0  0  0  0  0  0  0  0  0  0  0
   -7.0368   -2.7756   -3.0249 C   0  0  0  0  0  0  0  0  0  0  0  0
   -6.9499   -3.1368   -4.3746 C   0  0  0  0  0  0  0  0  0  0  0  0
   -8.0362   -2.7050   -5.1296 C   0  0  0  0  0  0  0  0  0  0  0  0
   -9.0877   -1.8459   -4.1335 S   0  0  0  0  0  0  0  0  0  0  0  0
   -8.1983   -2.8812   -6.6071 C   0  0  0  0  0  0  0  0  0  0  0  0
   -7.6404   -1.6778   -7.3594 C   0  0  0  0  0  0  0  0  0  0  0  0
  -10.2015    1.4405    6.0855 C   0  0  0  0  0  0  0  0  0  0  0  0
  -10.6319    0.1845    6.8353 C   0  0  0  0  0  0  0  0  0  0  0  0
    5.3534    2.1649   -5.2686 C   0  0  0  0  0  0  0  0  0  0  0  0
    5.3168    2.9064   -6.4448 C   0  0  0  0  0  0  0  0  0  0  0  0
    5.4567    4.2814   -6.2404 C   0  0  0  0  0  0  0  0  0  0  0  0
    5.5716    4.6235   -4.8986 C   0  0  0  0  0  0  0  0  0  0  0  0
    5.5289    3.2236   -3.9712 S   0  0  0  0  0  0  0  0  0  0  0  0
    5.3815    5.9726   -4.3548 C   0  0  0  0  0  0  0  0  0  0  0  0
    6.4816    6.7589   -3.3622 S   0  0  0  0  0  0  0  0  0  0  0  0
    5.5703    8.1559   -3.1206 C   0  0  0  0  0  0  0  0  0  0  0  0
    4.3677    8.0247   -3.8332 C   0  0  0  0  0  0  0  0  0  0  0  0
    4.2508    6.7859   -4.4974 C   0  0  0  0  0  0  0  0  0  0  0  0
    3.3044    9.0514   -3.9714 C   0  0  0  0  0  0  0  0  0  0  0  0
    2.0560    8.6939   -4.6931 C   0  0  0  0  0  0  0  0  0  0  0  0
    1.9073    7.4174   -5.2827 C   0  0  0  0  0  0  0  0  0  0  0  0
    2.9944    6.4179   -5.1919 C   0  0  0  0  0  0  0  0  0  0  0  0
    0.9375    9.5174   -4.8753 C   0  0  0  0  0  0  0  0  0  0  0  0
   -0.2220    8.6482   -5.7251 S   0  0  0  0  0  0  0  0  0  0  0  0
    0.6702    7.2292   -5.9126 C   0  0  0  0  0  0  0  0  0  0  0  0
    5.9886    9.2361   -2.2113 C   0  0  0  0  0  0  0  0  0  0  0  0
    7.2967    9.6779   -2.0465 C   0  0  0  0  0  0  0  0  0  0  0  0
    7.4411   10.6136   -1.0156 C   0  0  0  0  0  0  0  0  0  0  0  0
    5.0349    9.9650   -1.0298 S   0  0  0  0  0  0  0  0  0  0  0  0
    3.4760   10.2164   -3.5275 O   0  0  0  0  0  0  0  0  0  0  0  0
    2.8375    5.2612   -5.6690 O   0  0  0  0  0  0  0  0  0  0  0  0
    0.7031   10.9012   -4.3469 C   0  0  0  0  0  0  0  0  0  0  0  0
    0.2841   10.8618   -2.8801 C   0  0  0  0  0  0  0  0  0  0  0  0
    0.2087    5.9762   -6.6176 C   0  0  0  0  0  0  0  0  0  0  0  0
   -1.1947    6.0898   -7.2117 C   0  0  0  0  0  0  0  0  0  0  0  0
    6.2580   10.8918   -0.3419 C   0  0  0  0  0  0  0  0  0  0  0  0
    4.8551    0.7925   -5.1359 C   0  0  0  0  0  0  0  0  0  0  0  0
    3.6481    0.3616   -5.6919 C   0  0  0  0  0  0  0  0  0  0  0  0
    3.2818   -0.8699   -5.1727 C   0  0  0  0  0  0  0  0  0  0  0  0
    4.1495   -1.4252   -4.2756 C   0  0  0  0  0  0  0  0  0  0  0  0
    5.4228   -0.3549   -4.0094 S   0  0  0  0  0  0  0  0  0  0  0  0
    1.8359   -1.7172   -5.2175 S   0  0  0  0  0  0  0  0  0  0  0  0
    2.3538   -2.8517   -4.0615 C   0  0  0  0  0  0  0  0  0  0  0  0
    3.6737   -2.5817   -3.6436 C   0  0  0  0  0  0  0  0  0  0  0  0
    1.5890   -3.8772   -3.4985 C   0  0  0  0  0  0  0  0  0  0  0  0
    2.2110   -4.6668   -2.5171 C   0  0  0  0  0  0  0  0  0  0  0  0
    3.5393   -4.4226   -2.1089 C   0  0  0  0  0  0  0  0  0  0  0  0
    4.3118   -3.3845   -2.6695 C   0  0  0  0  0  0  0  0  0  0  0  0
    1.6786   -5.7641   -1.8473 C   0  0  0  0  0  0  0  0  0  0  0  0
    2.5070   -6.3657   -0.9531 C   0  0  0  0  0  0  0  0  0  0  0  0
    3.9985   -5.5829   -0.9389 S   0  0  0  0  0  0  0  0  0  0  0  0
    0.2392   -6.6053   -1.9371 S   0  0  0  0  0  0  0  0  0  0  0  0
    0.6891   -7.7572   -0.7741 C   0  0  0  0  0  0  0  0  0  0  0  0
    1.9873   -7.4915   -0.3089 C   0  0  0  0  0  0  0  0  0  0  0  0
    0.1686   -4.0367   -3.8389 C   0  0  0  0  0  0  0  0  0  0  0  0
   -0.1999   -8.8473   -0.3673 C   0  0  0  0  0  0  0  0  0  0  0  0
    5.7489   -3.2517   -2.3631 C   0  0  0  0  0  0  0  0  0  0  0  0
   -0.8883   -3.5057   -3.1100 C   0  0  0  0  0  0  0  0  0  0  0  0
   -2.1381   -3.9492   -3.5542 C   0  0  0  0  0  0  0  0  0  0  0  0
   -2.0585   -4.8307   -4.6275 C   0  0  0  0  0  0  0  0  0  0  0  0
   -0.4378   -5.0686   -5.0206 S   0  0  0  0  0  0  0  0  0  0  0  0
    6.7701   -3.2605   -3.3070 C   0  0  0  0  0  0  0  0  0  0  0  0
    8.0502   -3.2082   -2.7448 C   0  0  0  0  0  0  0  0  0  0  0  0
    8.0352   -3.1586   -1.3566 C   0  0  0  0  0  0  0  0  0  0  0  0
    6.4376   -3.1947   -0.8279 S   0  0  0  0  0  0  0  0  0  0  0  0
    9.2412   -3.1789   -0.4718 C   0  0  0  0  0  0  0  0  0  0  0  0
    9.7977   -4.5932   -0.3478 C   0  0  0  0  0  0  0  0  0  0  0  0
   -3.2050   -5.5922   -5.2195 C   0  0  0  0  0  0  0  0  0  0  0  0
   -3.6061   -6.7519   -4.3116 C   0  0  0  0  0  0  0  0  0  0  0  0
    3.7524    8.2724    4.8671 H   0  0  0  0  0  0  0  0  0  0  0  0
    1.1986    8.4541    4.5127 H   0  0  0  0  0  0  0  0  0  0  0  0
   -2.1878    5.8277    0.4787 H   0  0  0  0  0  0  0  0  0  0  0  0
   -4.1083    5.0528   -1.0315 H   0  0  0  0  0  0  0  0  0  0  0  0
   -4.6889   -0.2014    6.0277 H   0  0  0  0  0  0  0  0  0  0  0  0
   -4.9916    1.2052    4.9655 H   0  0  0  0  0  0  0  0  0  0  0  0
   -3.2152    0.3571    3.3689 H   0  0  0  0  0  0  0  0  0  0  0  0
   -2.9189   -1.0436    4.4739 H   0  0  0  0  0  0  0  0  0  0  0  0
   -4.5125   -0.8645    3.6508 H   0  0  0  0  0  0  0  0  0  0  0  0
    0.1598    0.9635    8.8612 H   0  0  0  0  0  0  0  0  0  0  0  0
    0.7263    2.5316    8.2258 H   0  0  0  0  0  0  0  0  0  0  0  0
   -1.2458    3.6179    9.5891 H   0  0  0  0  0  0  0  0  0  0  0  0
    0.1081    2.8994   10.5438 H   0  0  0  0  0  0  0  0  0  0  0  0
   -1.4417    1.9958   10.3516 H   0  0  0  0  0  0  0  0  0  0  0  0
    6.1041    7.4671    5.1154 H   0  0  0  0  0  0  0  0  0  0  0  0
   14.6061   -0.6474    5.4427 H   0  0  0  0  0  0  0  0  0  0  0  0
   12.3653   -1.9661    5.8388 H   0  0  0  0  0  0  0  0  0  0  0  0
   11.5434    5.0339    3.2384 H   0  0  0  0  0  0  0  0  0  0  0  0
   13.7802    6.3038    3.5320 H   0  0  0  0  0  0  0  0  0  0  0  0
    6.6717    1.2645    8.1598 H   0  0  0  0  0  0  0  0  0  0  0  0
    4.3808    0.1005    7.9261 H   0  0  0  0  0  0  0  0  0  0  0  0
    2.8104    0.2897    4.6931 H   0  0  0  0  0  0  0  0  0  0  0  0
    2.6957   -0.7037    6.1891 H   0  0  0  0  0  0  0  0  0  0  0  0
    4.1091   -1.5208    3.5667 H   0  0  0  0  0  0  0  0  0  0  0  0
    4.0659   -2.5063    5.0857 H   0  0  0  0  0  0  0  0  0  0  0  0
    2.5374   -2.1450    4.1924 H   0  0  0  0  0  0  0  0  0  0  0  0
   15.0768    6.4311    7.1534 H   0  0  0  0  0  0  0  0  0  0  0  0
   15.3579    7.1361    5.5216 H   0  0  0  0  0  0  0  0  0  0  0  0
   17.2383    5.6494    6.2057 H   0  0  0  0  0  0  0  0  0  0  0  0
   16.3905    4.9729    4.7629 H   0  0  0  0  0  0  0  0  0  0  0  0
   16.1007    4.2620    6.4061 H   0  0  0  0  0  0  0  0  0  0  0  0
   -9.5539   -8.1651    1.9306 H   0  0  0  0  0  0  0  0  0  0  0  0
   -8.0410  -10.2290    1.7341 H   0  0  0  0  0  0  0  0  0  0  0  0
   -1.7825  -10.6471    1.9751 H   0  0  0  0  0  0  0  0  0  0  0  0
    0.3258   -9.1696    1.7277 H   0  0  0  0  0  0  0  0  0  0  0  0
   -1.8151  -13.0676   -4.7536 H   0  0  0  0  0  0  0  0  0  0  0  0
   -2.1438  -12.7873   -6.4846 H   0  0  0  0  0  0  0  0  0  0  0  0
   -1.3699  -10.6021   -4.4399 H   0  0  0  0  0  0  0  0  0  0  0  0
   -1.7597  -10.3202   -6.1855 H   0  0  0  0  0  0  0  0  0  0  0  0
   -0.3219  -11.3052   -5.7249 H   0  0  0  0  0  0  0  0  0  0  0  0
   -7.6156  -11.3308   -6.8170 H   0  0  0  0  0  0  0  0  0  0  0  0
   -8.2364  -11.3109   -5.1435 H   0  0  0  0  0  0  0  0  0  0  0  0
   -6.7251   -9.0138   -6.5698 H   0  0  0  0  0  0  0  0  0  0  0  0
   -8.4918   -9.0798   -6.2153 H   0  0  0  0  0  0  0  0  0  0  0  0
   -7.3094   -8.9591   -4.8582 H   0  0  0  0  0  0  0  0  0  0  0  0
   -9.8264   -5.8119    2.1450 H   0  0  0  0  0  0  0  0  0  0  0  0
   -5.8224    3.6707   -1.8925 H   0  0  0  0  0  0  0  0  0  0  0  0
   -6.8115    0.1511    3.0624 H   0  0  0  0  0  0  0  0  0  0  0  0
   -7.4414    0.9375    5.4483 H   0  0  0  0  0  0  0  0  0  0  0  0
   -6.2705   -3.0054   -2.2951 H   0  0  0  0  0  0  0  0  0  0  0  0
   -6.1153   -3.6828   -4.7872 H   0  0  0  0  0  0  0  0  0  0  0  0
   -7.6629   -3.7979   -6.9369 H   0  0  0  0  0  0  0  0  0  0  0  0
   -9.2759   -3.0033   -6.8511 H   0  0  0  0  0  0  0  0  0  0  0  0
   -8.1740   -0.7516   -7.0566 H   0  0  0  0  0  0  0  0  0  0  0  0
   -7.7784   -1.8228   -8.4519 H   0  0  0  0  0  0  0  0  0  0  0  0
   -6.5544   -1.5596   -7.1491 H   0  0  0  0  0  0  0  0  0  0  0  0
   -9.5134    2.0371    6.7233 H   0  0  0  0  0  0  0  0  0  0  0  0
  -11.0970    2.0610    5.8632 H   0  0  0  0  0  0  0  0  0  0  0  0
   -9.7414   -0.4072    7.1427 H   0  0  0  0  0  0  0  0  0  0  0  0
  -11.2039    0.4717    7.7428 H   0  0  0  0  0  0  0  0  0  0  0  0
  -11.2832   -0.4460    6.1915 H   0  0  0  0  0  0  0  0  0  0  0  0
    5.1142    2.4772   -7.4157 H   0  0  0  0  0  0  0  0  0  0  0  0
    5.3747    5.0105   -7.0365 H   0  0  0  0  0  0  0  0  0  0  0  0
    8.1274    9.3266   -2.6471 H   0  0  0  0  0  0  0  0  0  0  0  0
    8.3902   11.0624   -0.7564 H   0  0  0  0  0  0  0  0  0  0  0  0
    1.6054   11.5328   -4.4754 H   0  0  0  0  0  0  0  0  0  0  0  0
   -0.1104   11.3779   -4.9352 H   0  0  0  0  0  0  0  0  0  0  0  0
    1.0872   10.4103   -2.2582 H   0  0  0  0  0  0  0  0  0  0  0  0
    0.0947   11.8933   -2.5195 H   0  0  0  0  0  0  0  0  0  0  0  0
   -0.6489   10.2670   -2.7628 H   0  0  0  0  0  0  0  0  0  0  0  0
    0.2179    5.1309   -5.8962 H   0  0  0  0  0  0  0  0  0  0  0  0
    0.9190    5.7432   -7.4395 H   0  0  0  0  0  0  0  0  0  0  0  0
   -1.2265    6.9005   -7.9701 H   0  0  0  0  0  0  0  0  0  0  0  0
   -1.9389    6.2959   -6.4136 H   0  0  0  0  0  0  0  0  0  0  0  0
   -1.4675    5.1350   -7.7075 H   0  0  0  0  0  0  0  0  0  0  0  0
    6.1540   11.5697    0.4931 H   0  0  0  0  0  0  0  0  0  0  0  0
    3.0202    0.9609   -6.3356 H   0  0  0  0  0  0  0  0  0  0  0  0
    2.5216   -8.0919    0.4150 H   0  0  0  0  0  0  0  0  0  0  0  0
   -0.7578   -2.8507   -2.2597 H   0  0  0  0  0  0  0  0  0  0  0  0
   -3.0689   -3.6692   -3.0796 H   0  0  0  0  0  0  0  0  0  0  0  0
    6.5968   -3.3232   -4.3761 H   0  0  0  0  0  0  0  0  0  0  0  0
    8.9587   -3.2308   -3.3322 H   0  0  0  0  0  0  0  0  0  0  0  0
    8.9709   -2.7993    0.5362 H   0  0  0  0  0  0  0  0  0  0  0  0
   10.0225   -2.5143   -0.8978 H   0  0  0  0  0  0  0  0  0  0  0  0
    9.0309   -5.2782    0.0757 H   0  0  0  0  0  0  0  0  0  0  0  0
   10.6778   -4.5873    0.3286 H   0  0  0  0  0  0  0  0  0  0  0  0
   10.1193   -4.9719   -1.3429 H   0  0  0  0  0  0  0  0  0  0  0  0
   -4.0715   -4.9138   -5.3544 H   0  0  0  0  0  0  0  0  0  0  0  0
   -2.9121   -5.9826   -6.2194 H   0  0  0  0  0  0  0  0  0  0  0  0
   -3.9914   -6.3639   -3.3433 H   0  0  0  0  0  0  0  0  0  0  0  0
   -4.3990   -7.3565   -4.7993 H   0  0  0  0  0  0  0  0  0  0  0  0
   -2.7316   -7.4109   -4.1204 H   0  0  0  0  0  0  0  0  0  0  0  0
  1  2  2  0
  2  3  1  0
  3  4  2  0
  4  5  1  0
  5  1  1  0
  4  6  1  0
  6  7  1  0
  7  8  1  0
  8  9  2  0
  9 10  1  0
 10  6  2  0
  9 11  1  0
 11 12  1  0
 12 13  1  0
 13 14  1  0
 14 10  1  0
 12 15  2  0
 15 16  1  0
 16 17  1  0
 17 13  2  0
  8 18  1  0
 18 19  2  0
 19 20  1  0
 20106  2  0
106 21  1  0
 21 18  1  0
 11 22  2  0
 14 23  2  0
 15 24  1  0
 24 25  1  0
 17 26  1  0
 26 27  1  0
  1 28  1  0
 28 29  2  0
 29 30  1  0
 30 31  2  0
 31 32  1  0
 32 28  1  0
 30 33  1  0
 33 34  1  0
 34 35  2  0
 35 31  1  0
 34 36  1  0
 36 37  2  0
 37 38  1  0
 38 39  2  0
 39 35  1  0
 37 40  1  0
 40 41  2  0
 41 42  1  0
 42 38  1  0
 40 43  1  0
 43 44  1  0
 44 45  2  0
 45 41  1  0
 36 46  1  0
 39 47  1  0
 46 48  2  0
 48 49  1  0
 49 50  2  0
 50 51  1  0
 51 46  1  0
 47 52  2  0
 52 53  1  0
 53 54  2  0
 54 55  1  0
 55 47  1  0
 54 56  1  0
 56 57  1  0
 50 58  1  0
 58 59  1  0
 60 61  2  0
 61 62  1  0
 62 63  2  0
 63 64  1  0
 64 60  1  0
 63 65  1  0
 65 66  1  0
 66 67  1  0
 67 68  2  0
 68 69  1  0
 69 65  2  0
 68 70  1  0
 70 71  1  0
 71 72  1  0
 72 73  1  0
 73 69  1  0
 71 74  2  0
 74 75  1  0
 75 76  1  0
 76 72  2  0
 67 77  1  0
 77 78  2  0
 78 79  1  0
 79167  2  0
167 80  1  0
 80 77  1  0
 70 81  2  0
 73 82  2  0
 74 83  1  0
 83 84  1  0
 76 85  1  0
 85 86  1  0
 60 87  1  0
 87 88  2  0
 88 89  1  0
 89 90  2  0
 90 91  1  0
 91 87  1  0
 89 92  1  0
 92 93  1  0
 93 94  2  0
 94 90  1  0
 93 95  1  0
 95 96  2  0
 96 97  1  0
 97 98  2  0
 98 94  1  0
 96 99  1  0
 99100  2  0
100101  1  0
101 97  1  0
 99102  1  0
102103  1  0
103104  2  0
104100  1  0
 95105  1  0
103106  1  0
 98107  1  0
105108  2  0
108109  1  0
109110  2  0
110111  1  0
111105  1  0
107112  2  0
112113  1  0
113114  2  0
114115  1  0
115107  1  0
114116  1  0
116117  1  0
110118  1  0
118119  1  0
120121  2  0
121122  1  0
122123  2  0
123124  1  0
124120  1  0
123125  1  0
125126  1  0
126127  1  0
127128  2  0
128129  1  0
129125  2  0
128130  1  0
130131  1  0
131132  1  0
132133  1  0
133129  1  0
131134  2  0
134135  1  0
135136  1  0
136132  2  0
127137  1  0
137138  2  0
138139  1  0
139147  2  0
147140  1  0
140137  1  0
130141  2  0
133142  2  0
134143  1  0
143144  1  0
136145  1  0
145146  1  0
120148  1  0
148149  2  0
149150  1  0
150151  2  0
151152  1  0
152148  1  0
150153  1  0
153154  1  0
154155  2  0
155151  1  0
154156  1  0
156157  2  0
157158  1  0
158159  2  0
159155  1  0
157160  1  0
160161  2  0
161162  1  0
162158  1  0
160163  1  0
163164  1  0
164165  2  0
165161  1  0
156166  1  0
164167  1  0
159168  1  0
166169  2  0
169170  1  0
170171  2  0
171172  1  0
172166  1  0
168173  2  0
173174  1  0
174175  2  0
175176  1  0
176168  1  0
175177  1  0
177178  1  0
171179  1  0
179180  1  0
  2181  1  0
  3182  1  0
 19183  1  0
 20184  1  0
 24185  1  0
 24186  1  0
 25187  1  0
 25188  1  0
 25189  1  0
 26190  1  0
 26191  1  0
 27192  1  0
 27193  1  0
 27194  1  0
 29195  1  0
 44196  1  0
 45197  1  0
 48198  1  0
 49199  1  0
 52200  1  0
 53201  1  0
 56202  1  0
 56203  1  0
 57204  1  0
 57205  1  0
 57206  1  0
 58207  1  0
 58208  1  0
 59209  1  0
 59210  1  0
 59211  1  0
 61212  1  0
 62213  1  0
 78214  1  0
 79215  1  0
 83216  1  0
 83217  1  0
 84218  1  0
 84219  1  0
 84220  1  0
 85221  1  0
 85222  1  0
 86223  1  0
 86224  1  0
 86225  1  0
 88226  1  0
104227  1  0
108228  1  0
109229  1  0
112230  1  0
113231  1  0
116232  1  0
116233  1  0
117234  1  0
117235  1  0
117236  1  0
118237  1  0
118238  1  0
119239  1  0
119240  1  0
119241  1  0
121242  1  0
122243  1  0
138244  1  0
139245  1  0
143246  1  0
143247  1  0
144248  1  0
144249  1  0
144250  1  0
145251  1  0
145252  1  0
146253  1  0
146254  1  0
146255  1  0
147256  1  0
149257  1  0
165258  1  0
169259  1  0
170260  1  0
173261  1  0
174262  1  0
177263  1  0
177264  1  0
178265  1  0
178266  1  0
178267  1  0
179268  1  0
179269  1  0
180270  1  0
180271  1  0
180272  1  0
M  END

