206
2D-PBTCl.sdf
C          5.07416        1.19259       -7.12402
C          3.86137        1.69793       -7.69479
C          2.91763        2.29868       -6.85861
C          3.04241        2.21571       -5.46686
C          4.15854        1.60118       -4.86405
C          5.19228        1.11530       -5.69588
C          3.30767        1.61132       -9.03343
C          2.13011        2.28845       -9.20953
S          1.68051        3.09101       -7.79306
C          4.43251        1.38598       -3.46128
C          5.67989        0.86993       -3.20832
S          6.46349        0.46707       -4.67383
C          6.09590        0.66606       -8.09383
C          1.91246        2.63673       -4.61629
C          6.97840       -0.40386       -8.04555
C          7.45161       -0.79890       -9.34786
C          6.98171        0.01510      -10.35834
S          6.37058        1.45465       -9.64689
C          1.84259        3.52396       -3.55337
C          0.51667        3.64178       -3.02249
C         -0.39705        2.88926       -3.73085
S          0.38547        1.87036       -4.85033
C          7.08148       -0.17615      -11.85738
C          5.98772       -1.08674      -12.41396
C         -1.89134        2.84462       -3.61337
C         -2.54473        4.01746       -4.33462
C          7.14457        2.25810        0.10250
S          7.21016        2.42322       -1.64809
C          6.33450        0.97195       -1.92969
C          6.36378        0.27819       -0.74143
C          6.20231        1.25852        0.29579
C          5.51180       -0.80408       -0.33555
C          4.26850       -0.33055        0.10965
S          4.65950        0.98028        1.33384
Cl         6.25062       -2.16111        0.50163
C          2.96759       -0.96192       -0.14372
S          2.70979       -1.95072       -1.57517
C          1.08017       -2.25151       -1.24562
C          0.71935       -1.64026       -0.03185
C          1.78382       -0.88221        0.56275
C          0.14553       -3.01953       -2.06204
O         -0.98205       -3.30564       -1.67815
O          0.55064       -3.25621       -3.35180
C         -0.49742       -3.64719       -4.29028
C         -0.68513       -5.15346       -4.43396
C         10.59623        5.99841        0.71110
C          9.68853        4.92593        1.06219
C          9.81657        4.26060        2.28123
C         10.89470        4.58187        3.12372
C         11.88937        5.53518        2.75636
C         11.72681        6.25951        1.55833
C          8.66257        4.25258        0.30029
C          7.97816        3.18690        0.87424
S          8.52104        3.05776        2.48424
C         13.11956        5.90344        3.44231
C         13.81904        6.94164        2.87657
S         13.07388        7.39130        1.40390
C         10.36138        6.70967       -0.60620
C         11.15653        3.76258        4.31431
C         11.21741        7.28634       -1.53893
C         10.58752        7.55636       -2.80825
C          9.24687        7.23521       -2.81768
S          8.73078        7.00707       -1.20026
C         11.36538        2.39764        4.36257
C         11.86692        1.97138        5.61138
C         12.00481        3.00993        6.50587
S         11.31543        4.45378        5.88552
C          8.28265        7.20998       -3.98353
C          8.35305        5.91626       -4.79841
C         12.68344        2.98550        7.83876
C         11.72044        2.72629        8.98250
C         15.74018        9.07025        5.53112
S         14.31811        9.06379        4.48498
C         14.83962        7.69498        3.58109
C         16.17868        7.54964        3.87674
C         16.32502        7.83869        5.27706
C         17.00660        6.39557        3.67249
C         16.82651        5.44720        4.69053
S         17.00295        6.38458        6.25855
Cl        18.62379        6.63468        3.02458
C         16.81789        3.98819        4.51262
S         16.34147        3.26599        2.97695
C         16.52852        1.65020        3.52596
C         16.96200        1.66510        4.84343
C         17.09140        2.97693        5.41219
C         16.28432        0.41658        2.75137
O         16.56888       -0.69366        3.18064
O         15.60804        0.61080        1.56717
C         15.05376       -0.58831        0.95452
C         15.98610       -1.26112       -0.04936
C         14.59737       13.71985        7.41722
C         15.34328       12.49812        7.17976
C         16.69914       12.43399        7.49100
C         17.36480       13.59025        7.96405
C         16.68743       14.85068        8.07633
C         15.30260       14.90565        7.83158
C         14.97542       11.25324        6.53148
C         15.92144       10.24337        6.40082
S         17.32414       10.78180        7.20713
C         17.23037       16.15740        8.41660
C         16.30652       17.16691        8.57008
S         14.75937       16.56953        8.13129
C         13.11933       13.68526        7.09299
C         18.81036       13.53858        8.16094
C         12.21959       14.61743        6.58331
C         11.01225       14.01062        6.06380
C         10.99385       12.64207        6.23671
S         12.15955       12.24602        7.42997
C         19.77689       13.15131        7.24888
C         21.09680       13.28996        7.75232
C         21.11140       13.84421        9.01560
S         19.53151       13.96801        9.65805
C         10.05864       11.60576        5.65276
C         10.48467       11.14136        4.25800
C         22.30959       14.31087        9.78591
C         22.72994       15.70488        9.32979
C         17.85963       19.77078       10.93023
S         16.50055       18.68428       10.91181
C         16.62142       18.46307        9.16852
C         17.23270       19.62854        8.74847
C         18.31128       19.85499        9.64776
C         17.82088       20.03514        7.50186
C         19.16768       19.63920        7.41873
S         19.97547       20.11365        8.93291
Cl        17.42041       21.66610        6.93147
C         19.83308       19.15366        6.23067
S         18.88946       18.54002        4.91451
C         20.26035       18.15060        3.97562
C         21.41965       18.48111        4.65561
C         21.17921       19.01946        5.95945
C         20.17991       17.58349        2.63495
O         21.11600       17.56741        1.84323
O         18.95127       17.04517        2.36945
C         18.77454       16.47408        1.05888
C         18.14881       17.50521        0.13810
H          3.74711        1.05202       -9.84778
H          1.53780        2.35635      -10.11102
H          3.78341        1.73912       -2.66654
H          7.17873       -0.98989       -7.15938
H          8.03882       -1.69126       -9.53131
H          2.69227        4.07579       -3.16888
H          0.24256        4.28795       -2.19644
H          8.05419       -0.62532      -12.09817
H          7.04192        0.78335      -12.38819
H          5.96999       -2.06010      -11.91133
H          6.15115       -1.27388      -13.48301
H          4.99483       -0.63611      -12.30942
H         -2.17875        2.85594       -2.55660
H         -2.28437        1.91135       -4.03612
H         -2.21094        4.97604       -3.92334
H         -3.63363        3.96582       -4.23277
H         -2.30674        4.01197       -5.40462
H         -0.28122       -1.71565        0.38520
H          1.66163       -0.31404        1.47595
H         -0.19462       -3.24714       -5.26484
H         -1.45859       -3.17408       -4.05329
H          0.27035       -5.68270       -4.48625
H         -1.25507       -5.37988       -5.34561
H         -1.25277       -5.56756       -3.59437
H          8.51469        4.49024       -0.74005
H         13.41799        5.49386        4.40014
H         12.28017        7.42075       -1.39472
H         11.11243        7.90876       -3.68874
H         11.26685        1.74483        3.50657
H         12.17436        0.95040        5.81859
H          8.50926        8.04618       -4.65676
H          7.24775        7.35315       -3.64934
H          9.36117        5.73456       -5.18655
H          7.67646        5.97101       -5.66122
H          8.05654        5.04513       -4.20452
H         13.23653        3.91705        8.01541
H         13.44322        2.19030        7.83620
H         10.95056        3.50137        9.03099
H         12.25769        2.71659        9.93785
H         11.22222        1.75795        8.86432
H         17.15444        0.74505        5.38635
H         17.38747        3.14575        6.43977
H         14.14558       -0.28307        0.42321
H         14.73264       -1.31469        1.71117
H         16.44053       -0.53200       -0.72270
H         15.43693       -2.00498       -0.63787
H         16.79880       -1.79201        0.46533
H         14.01310       11.14574        6.05918
H         18.27837       16.32775        8.63456
H         12.43108       15.66938        6.45005
H         10.24331       14.54453        5.51681
H         19.54400       12.80324        6.25033
H         21.99050       13.05939        7.18601
H          9.04723       12.02333        5.57950
H          9.98631       10.72466        6.30210
H         10.55806       11.97820        3.55517
H          9.75442       10.43142        3.84804
H         11.45457       10.63456        4.27954
H         23.14129       13.61490        9.61993
H         22.11299       14.31950       10.86315
H         22.94723       15.72450        8.25544
H         23.63040       16.02695        9.86142
H         21.93943       16.43917        9.52067
H         18.31429       20.13839       11.84154
H         22.40531       18.31874        4.23453
H         21.96874       19.29883        6.64698
H         18.10099       15.61640        1.16224
H         19.71245       16.09031        0.63950
H         17.27419       17.96387        0.61045
H         17.84239       17.05274       -0.80996
H         18.85804       18.31087       -0.07686
