254
2TC-TT-BDTFT.sdf
C         -3.88979        6.77622        3.69091
C         -4.26995        5.98300        2.57155
C         -3.25598        5.44624        1.76103
C         -1.90731        5.73728        2.02096
C         -1.54409        6.52566        3.13908
C         -2.54178        7.04501        3.96640
C         -5.56887        5.60730        2.05537
C         -5.52048        4.72857        1.00608
S         -3.93187        4.46592        0.49758
C         -0.26064        6.89918        3.64298
C         -0.27814        7.66996        4.77947
S         -1.85405        7.96680        5.27570
C         -4.91956        7.30417        4.60376
C         -0.84619        5.20650        1.13021
C         -5.04487        8.54811        5.20693
C         -6.24248        8.66161        5.94648
C         -7.03235        7.54563        5.86626
S         -6.16032        6.25485        5.17513
C         -0.66212        3.93593        0.60400
C          0.53156        3.83286       -0.14993
C          1.28072        4.98063       -0.15532
S          0.37816        6.26645        0.51511
C         -8.43709        7.34010        6.30666
C         -8.50078        6.57660        7.61591
C          2.66193        5.21291       -0.67986
C          3.72453        4.71645        0.29516
C          0.89027        8.10295        5.48032
S          2.25331        7.08508        5.42811
C          3.26479        8.28487        6.08415
C          2.50222        9.27211        6.70791
C          1.13635        9.21371        6.25775
C          4.68431        8.09528        6.02832
C          5.67190        8.83527        6.64000
C          6.65281        7.86881        6.93747
C          6.97918        7.32292        5.75045
S          5.49695        6.98785        4.91123
S          7.16556        6.71444        8.13001
C          8.37770        6.15578        6.96790
C          8.33333        6.96459        5.85639
C          9.31639        5.10495        7.24287
C          9.99596        4.23185        6.38858
C         10.79287        3.29620        7.15086
C         10.70941        3.52149        8.50339
S          9.71926        4.84385        8.86840
C          3.01452       10.22015        7.70364
O          3.87324        9.97000        8.52374
O          2.42143       11.45930        7.56595
C          2.64098       12.30813        8.70315
C          1.63774       11.91766        9.77460
C          9.90835        4.22635        4.92950
O          9.69906        5.21622        4.24051
O         10.01657        2.97283        4.39197
C          9.39387        2.85471        3.10537
C          7.95085        2.44994        3.34654
F         -6.59255        9.75117        6.57443
F          0.91010        2.72656       -0.73067
C         11.28807        1.72852       13.14707
C         11.55422        2.06325       11.80134
C         12.80180        1.76229       11.24328
C         13.79793        1.18364       12.03254
C         13.53454        0.85500       13.38389
C         12.27717        1.13887       13.93193
C         10.74910        2.73590       10.84496
C         11.31453        2.85087        9.60209
S         12.86678        2.21222        9.57026
C         14.34686        0.21455       14.36114
C         13.73861        0.04002       15.57903
S         12.17945        0.65574       15.58864
C          9.95464        2.01194       13.72394
C         15.13016        0.91436       11.44662
C          9.59537        2.56649       14.94516
C          8.20277        2.79708       15.03717
C          7.52211        2.47244       13.89322
S          8.52354        1.54330       12.86926
C         15.47895        0.33967       10.23168
C         16.87910        0.20576       10.08304
C         17.58716        0.62088       11.18013
S         16.55743        1.44190       12.26712
C          6.12169        2.80239       13.49504
C          6.02967        4.23121       12.96555
C         19.04009        0.46093       11.48661
C         19.33501       -0.93277       12.03126
C         14.32109       -0.62128       16.69396
S         15.42766       -1.87260       16.36301
C         15.91635       -1.92395       17.97152
C         15.10632       -1.18205       18.81139
C         14.14186       -0.43474       18.04555
C         17.12569       -2.61971       18.22971
C         18.37940       -2.12425       17.91212
C         19.16041       -2.66243       18.95054
C         18.94655       -3.99680       18.98959
S         17.21437       -4.22253       18.87695
S         19.89536       -2.18861       20.44431
C         20.29241       -3.87924       20.72829
C         20.12896       -4.55032       19.53506
C         20.95142       -4.34942       21.91215
C         21.01545       -5.62239       22.47866
C         21.84787       -5.60359       23.66383
C         22.30439       -4.34408       23.96617
S         21.85253       -3.21635       22.79062
C         15.23546       -1.15216       20.25762
O         16.30359       -1.35246       20.84784
O         14.04443       -0.99755       20.88316
C         13.99716       -1.55254       22.21182
C         13.68779       -3.03570       22.08311
C         20.30633       -6.80811       21.99237
O         19.51246       -6.81143       21.06033
O         20.55509       -7.91535       22.75866
C         19.56579       -8.94737       22.63749
C         18.43229       -8.61349       23.59191
F          7.64380        3.36322       16.07218
F         17.43313       -0.33223        9.03016
C         24.27011       -1.12478       27.27197
C         24.02661       -2.30220       26.53511
C         24.84184       -3.42083       26.73448
C         25.97273       -3.32661       27.55128
C         26.27677       -2.10788       28.20786
C         25.38173       -1.03558       28.10911
C         23.06392       -2.57735       25.52647
C         23.08731       -3.86616       25.05632
S         24.20604       -4.79996       25.89620
C         27.39416       -1.71742       29.01235
C         27.20295       -0.54071       29.68855
S         25.83800        0.26925       29.14772
C         23.32889        0.01135       27.16740
C         26.85313       -4.50363       27.71795
C         23.56589        1.37318       27.04517
C         22.36782        2.11626       26.92887
C         21.24172        1.33664       26.88918
S         21.62767       -0.27234       27.30274
C         27.30295       -5.43325       26.78874
C         28.24141       -6.33384       27.34401
C         28.53368       -6.06986       28.65574
S         27.40485       -4.95916       29.29229
C         19.83328        1.71809       26.57342
C         19.62122        1.83500       25.06785
C         29.63488       -6.60435       29.50911
C         30.93108       -5.83993       29.25312
C         28.01320       -0.05478       30.75642
S         28.60042       -1.18952       31.89138
C         29.60904       -0.02872       32.61357
C         29.34828        1.25041       32.13828
C         28.39406        1.23251       31.06017
C         30.66576       -0.50039       33.45216
C         31.74276       -1.24756       33.01677
C         32.79589       -0.78328       33.84585
C         32.38484       -0.93692       35.12545
S         30.70279       -0.46533       35.19816
S         34.12381        0.32212       33.88879
C         34.45402       -0.20814       35.53702
C         33.56309       -1.21392       35.87853
C         35.56321        0.32888       36.30923
C         35.73799        0.42681       37.69423
C         37.01401        1.03747       38.00874
C         37.73328        1.39972       36.89957
S         36.92686        0.99266       35.46970
C         30.03316        2.45170       32.64230
O         31.16251        2.44655       33.07639
O         29.20376        3.53937       32.67120
C         29.54701        4.45307       33.69609
C         28.89689        3.96390       34.98132
C         34.76603        0.04444       38.73308
O         33.63557       -0.36880       38.52414
O         35.23787        0.30456       39.99237
C         34.22001        0.49464       40.98532
C         33.76751        1.94243       40.90464
F         22.34838        3.41503       26.79700
F         28.84428       -7.25416       26.64132
H         -6.51501        5.93439        2.46514
H         -6.35192        4.25728        0.50033
H          0.67186        6.58480        3.19391
H         -4.33807        9.36048        5.10371
H         -1.33450        3.10378        0.76599
H         -8.98634        6.79328        5.53033
H         -8.93874        8.30950        6.41138
H         -8.02530        5.59375        7.52524
H         -9.54122        6.42252        7.91138
H         -7.98602        7.12598        8.40974
H          2.82840        6.28074       -0.86549
H          2.78184        4.70236       -1.64156
H          3.62834        5.19755        1.27522
H          4.72489        4.93750       -0.09138
H          3.65347        3.63374        0.44643
H          0.39137        9.95758        6.50294
H          5.60578        9.83777        7.03312
H          9.11007        7.07771        5.11154
H         11.39112        2.50739        6.70511
H          2.48134       13.34459        8.39040
H          3.67153       12.24106        9.07052
H          0.61966       12.03047        9.38979
H          1.75463       12.52784       10.67228
H          1.75100       10.86287       10.04948
H          9.92376        2.08588        2.53737
H          9.44548        3.77854        2.51310
H          7.91931        1.48982        3.87225
H          7.39479        2.36516        2.41086
H          7.44489        3.17600        3.99387
H          9.77024        3.13936       11.06658
H         15.35177       -0.13581       14.16651
H         10.29246        2.85215       15.72156
H         14.77091        0.00155        9.48644
H          5.45349        2.68549       14.35460
H          5.76814        2.11496       12.71765
H          6.30445        4.96035       13.73613
H          5.00806        4.45115       12.64076
H          6.69737        4.38704       12.10986
H         19.36150        1.20434       12.22563
H         19.63257        0.63513       10.58198
H         18.73954       -1.14870       12.92599
H         20.39229       -1.01890       12.30033
H         19.11007       -1.70620       11.28844
H         13.43438        0.27254       18.47755
H         18.57930       -1.24153       17.32331
H         20.70427       -5.40262       19.20993
H         22.04807       -6.47541       24.27820
H         13.20245       -1.04955       22.76983
H         14.93186       -1.38590       22.76143
H         12.72841       -3.17634       21.57323
H         13.64757       -3.52211       23.05952
H         14.44246       -3.53959       21.46926
H         20.03031       -9.89837       22.91714
H         19.20602       -9.05792       21.60749
H         18.80157       -8.61144       24.62315
H         17.61373       -9.33077       23.50751
H         18.04194       -7.60741       23.40091
H         22.38924       -1.82883       25.12993
H         28.25920       -2.34284       29.19208
H         24.54847        1.82580       27.02028
H         27.02382       -5.44490       25.74309
H         19.59125        2.67135       27.05511
H         19.13344        0.97348       26.97131
H         20.25180        2.62042       24.63665
H         18.57726        2.08071       24.85028
H         19.86202        0.89678       24.55438
H         29.78750       -7.66827       29.30049
H         29.37676       -6.51878       30.57106
H         31.26789       -5.96385       28.21760
H         31.72412       -6.20267       29.91367
H         30.80594       -4.76543       29.43275
H         28.07558        2.10397       30.50591
H         31.81420       -1.79244       32.08334
H         33.67944       -1.89652       36.72101
H         37.37046        1.22467       39.01571
H         38.69699        1.88622       36.85846
H         29.15097        5.44716       33.42887
H         30.63555        4.56763       33.81633
H         27.81158        3.90490       34.84005
H         29.11178        4.61921       35.82153
H         29.23879        2.95835       35.21673
H         34.66158        0.29071       41.96670
H         33.38197       -0.20071       40.85638
H         34.60313        2.60824       41.14907
H         32.94105        2.14309       41.58982
H         33.45527        2.19931       39.88726
