198
3BDT-4.sdf
C          1.06658        0.96170        0.01955
C          1.33445       -0.41380       -0.06260
C          0.29317       -1.36912       -0.05595
C         -1.05606       -0.93959        0.00790
C         -1.32107        0.43465       -0.04103
C         -0.28298        1.38538        0.00921
C         -2.29209       -1.67072        0.15269
C         -3.42463       -0.90349        0.02919
S         -3.01796        0.71693       -0.21743
C          2.29691        1.70613        0.11256
C          3.43234        0.94894       -0.02678
S          3.03510       -0.68459       -0.19852
C         -0.63474        2.82915        0.10100
C          0.61618       -2.82487       -0.13334
C         -1.64418        3.43325        0.84031
C         -1.71059        4.84533        0.67606
C         -0.69026        5.31717       -0.11681
S          0.17745        4.03103       -0.83135
C          1.66431       -3.54612        0.42575
C          1.64802       -4.93601        0.10228
C          0.53344       -5.28093       -0.62622
S         -0.32370       -3.89195       -1.11934
C         -0.34069        6.74287       -0.41528
C          0.53255        7.35256        0.67434
C          0.07725       -6.64676       -1.04401
C         -0.70075       -7.35242        0.06105
C         -7.08635       -1.52202       -0.49750
C         -6.88746       -2.68826        0.25989
C         -7.93489       -3.61281        0.46977
C         -9.22093       -3.37135       -0.07367
C         -9.40673       -2.22453       -0.85669
C         -8.36688       -1.29332       -1.06162
C        -10.45476       -4.11682        0.03210
C        -11.52041       -3.54849       -0.61720
S        -11.01517       -2.19812       -1.50241
C         -5.87150       -0.74649       -0.54689
C         -4.78920       -1.34770        0.04561
S         -5.26931       -2.73916        0.87283
C         -8.65166       -0.04499       -1.82442
C         -7.73605       -4.85320        1.26852
C         -9.77418        0.77126       -1.76836
C         -9.72556        1.88219       -2.65726
C         -8.52196        1.95778       -3.31933
S         -7.57494        0.56562       -3.02728
C         -8.57122       -5.43097        2.21614
C         -8.10033       -6.68352        2.70823
C         -6.85501       -6.99606        2.21307
S         -6.37037       -5.87804        1.01919
C         -8.04201        3.03950       -4.24090
C         -7.43815        4.21441       -3.48046
C         -5.98274       -8.16556        2.55777
C         -5.16469       -7.91965        3.81894
C          9.31310        3.23138       -0.05876
C          9.45880        2.09874       -0.88034
C          8.37583        1.22500       -1.12000
C          7.10052        1.49504       -0.57165
C          6.92532        2.69276        0.15079
C          8.01985        3.53760        0.45137
C          5.87998        0.74316       -0.57220
C          4.79273        1.40756       -0.06712
S          5.25125        2.93377        0.49886
C         10.58800        3.88906        0.12177
C         11.62337        3.34581       -0.61280
S         11.07018        2.01820       -1.50340
C          7.79155        4.70146        1.33825
C          8.48291        0.02982       -2.00878
C          6.99683        4.78442        2.47486
C          6.98882        6.07208        3.07890
C          7.84899        6.93842        2.44670
S          8.46968        6.25183        1.00964
C          7.54601       -0.46458       -2.90942
C          7.94216       -1.66732       -3.55720
C          9.23307       -2.01378       -3.23709
S          9.84498       -1.02592       -1.98552
C          8.22087        8.32927        2.86148
C          9.34917        8.32686        3.88922
C         10.06650       -3.10634       -3.83156
C         10.00702       -4.37812       -3.00491
C        -12.88437       -4.00139       -0.63745
S        -13.61053       -4.77627        0.69352
C        -15.11920       -4.97047       -0.11692
C        -15.07820       -4.41598       -1.39765
C        -13.77992       -3.87246       -1.67407
C        -16.22684       -4.37081       -2.37756
C        -15.92243       -3.72483       -3.72039
C        -16.20710       -5.65061        0.56329
C        -16.48620       -5.65309        1.92004
C        -17.63270       -6.43565        2.25003
C        -18.23591       -6.98093        1.13480
S        -17.31825       -6.66386       -0.26792
C        -19.42640       -7.74821        1.05255
C        -20.64076       -7.18914        0.93740
C        -20.97804       -5.73919        0.80080
N        -22.34907       -5.56294        0.70696
C        -23.12435       -6.69809        0.79860
S        -22.09479       -8.11917        0.92490
S        -24.78947       -6.81284        0.79091
C        -22.85403       -4.21083        0.46432
C        -23.04846       -3.39627        1.73466
O        -20.15617       -4.83756        0.75422
C         12.98458        3.78744       -0.69697
S         13.41837        5.43403       -0.66583
C         15.09402        5.09781       -0.91354
C         15.32926        3.72274       -0.97544
C         14.10019        2.99219       -0.83249
C         16.67322        3.06101       -1.16601
C         16.66638        1.54117       -1.19947
C         16.02459        6.21061       -1.04070
C         15.93127        7.46710       -0.47565
C         17.01858        8.32473       -0.83944
C         17.91979        7.70393       -1.67870
S         17.41954        6.11103       -2.03049
C         19.12420        8.18342       -2.25363
C         19.16316        8.77589       -3.45310
C         20.44071        9.21867       -4.07083
N         20.20245        9.84105       -5.29019
C         18.88617        9.90347       -5.69890
S         17.84750        9.15047       -4.49516
O         21.53486        9.05280       -3.55030
C         21.33096       10.41358       -6.01890
C         21.99251        9.42937       -6.97267
S         18.26662       10.58436       -7.09000
H         -2.34852       -2.74155        0.29659
H          2.34593        2.78044        0.22492
H         -2.33414        2.88863        1.47331
H         -2.44519        5.48129        1.15501
H          2.43756       -3.10996        1.04462
H          2.39606       -5.64775        0.43074
H         -1.26455        7.32843       -0.50055
H          0.17375        6.82492       -1.38022
H          0.03485        7.32477        1.65057
H          0.75350        8.39908        0.44004
H          1.48505        6.81944        0.77021
H          0.95104       -7.25225       -1.30992
H         -0.55040       -6.58823       -1.94069
H         -0.09459       -7.47235        0.96569
H         -1.00674       -8.34961       -0.27279
H         -1.60463       -6.79704        0.33463
H        -10.56503       -5.04026        0.58319
H         -5.77261        0.19697       -1.06492
H        -10.62210        0.57993       -1.12310
H        -10.52153        2.60844       -2.76908
H         -9.51369       -4.99878        2.52858
H         -8.63951       -7.30456        3.41362
H         -8.88748        3.40072       -4.83869
H         -7.30142        2.64844       -4.94751
H         -8.16242        4.66319       -2.79150
H         -7.11742        4.99184       -4.18222
H         -6.56464        3.90750       -2.89511
H         -5.30334       -8.39823        1.72947
H         -6.61177       -9.05124        2.70546
H         -4.50133       -7.05530        3.70561
H         -4.54378       -8.79431        4.04011
H         -5.80910       -7.73689        4.68580
H          5.79560       -0.25248       -0.99165
H         10.75148        4.74995        0.75378
H          6.41941        3.95629        2.86547
H          6.41491        6.32772        3.96225
H          6.58635        0.00165       -3.09267
H          7.32826       -2.21283       -4.26424
H          7.34454        8.82313        3.29587
H          8.51888        8.92905        1.99428
H          9.06719        7.77348        4.78877
H          9.59115        9.35258        4.18417
H         10.25811        7.86864        3.48371
H         11.10737       -2.77674       -3.93666
H          9.71002       -3.32039       -4.84764
H         10.38789       -4.21044       -1.99223
H         10.61410       -5.15999       -3.47120
H          8.97899       -4.74631       -2.92207
H        -13.50649       -3.40290       -2.61288
H        -17.06460       -3.83814       -1.91095
H        -16.54826       -5.39285       -2.59362
H        -15.61677       -2.67987       -3.60676
H        -16.81289       -3.75103       -4.35636
H        -15.12451       -4.26433       -4.24259
H        -15.90572       -5.10830        2.65531
H        -18.01608       -6.55763        3.25424
H        -19.31519       -8.82804        1.10996
H        -23.79954       -4.25937       -0.08895
H        -22.14045       -3.68588       -0.18002
H        -23.80418       -3.84308        2.38808
H        -23.37941       -2.38401        1.47775
H        -22.11728       -3.31024        2.30400
H         14.03448        1.91109       -0.84697
H         17.34614        3.39267       -0.36763
H         17.09078        3.38373       -2.12473
H         16.28298        1.11647       -0.26610
H         17.68492        1.16862       -1.34830
H         16.05272        1.16940       -2.02828
H         15.12164        7.77722        0.17478
H         17.11914        9.35278       -0.50074
H         20.04670        8.01139       -1.70188
H         22.07787       10.75721       -5.29360
H         21.00074       11.29600       -6.57551
H         22.35850        8.54349       -6.44431
H         22.84821        9.90726       -7.46377
H         21.30077        9.09565       -7.75212
