196
3BDT-5.sdf
C          1.06933        0.95564        0.02997
C          1.33855       -0.42283        0.00622
C          0.29575       -1.37511       -0.02717
C         -1.05387       -0.94512       -0.02488
C         -1.32061        0.43008       -0.03742
C         -0.27857        1.38031        0.00890
C         -2.28939       -1.68644       -0.01891
C         -3.41883       -0.91130       -0.01606
S         -3.01905        0.71775       -0.15601
C          2.29491        1.70722        0.08675
C          3.42540        0.93991        0.01522
S          3.04433       -0.69833        0.06534
C         -0.62664        2.82489        0.09337
C          0.56593       -2.84063       -0.05546
C         -1.65824        3.42746        0.80490
C         -1.72540        4.83728        0.64610
C         -0.68740        5.31727       -0.11790
S          0.21649        4.03867       -0.79730
C         -0.11750       -3.87380        0.57266
C          0.37186       -5.17194        0.25140
C          1.49092       -5.11467       -0.54477
S          1.81213       -3.51752       -1.03923
C         -0.35420        6.74510       -0.42561
C          0.51541        7.37523        0.65559
C          2.34721       -6.24232       -1.03000
C          3.43385       -6.60959       -0.02876
C         -7.07938       -1.51867       -0.49164
C         -6.87673       -2.69622        0.24649
C         -7.92884       -3.61516        0.46350
C         -9.22335       -3.35737       -0.05826
C         -9.41028       -2.20096       -0.82602
C         -8.36476       -1.27399       -1.03234
C        -10.46646       -4.09344        0.04900
C        -11.53659       -3.50850       -0.58023
S        -11.02238       -2.16070       -1.46089
C         -5.86375       -0.74765       -0.54707
C         -4.77596       -1.36115        0.01528
S         -5.24149       -2.76647        0.82019
C         -8.65133       -0.01282       -1.77162
C         -7.72642       -4.86731        1.24364
C         -9.78921        0.77815       -1.72389
C         -9.75005        1.90274       -2.59076
C         -8.53758        2.01462       -3.23042
S         -7.55719        0.65193       -2.92891
C         -8.57980       -5.48676        2.14664
C         -8.10098       -6.73895        2.62716
C         -6.83758       -7.01834        2.16217
S         -6.32596       -5.85261        1.03159
C         -8.07312        3.10321       -4.14816
C         -7.46452        4.27736       -3.39246
C         -5.96582       -8.19278        2.48125
C         -5.14281       -7.97412        3.74285
C          9.26681        3.22311       -0.40107
C          9.50629        1.96759        0.20061
C          8.44723        1.09120        0.51960
C          7.11797        1.45451        0.20778
C          6.88670        2.65621       -0.47472
C          7.93369        3.55302       -0.75180
C          5.87159        0.79487        0.49760
C          4.77478        1.39683       -0.05680
S          5.21333        2.77628       -0.91583
C         10.50389        3.95544       -0.52779
C         11.61548        3.27143       -0.11699
S         11.20257        1.72360        0.41330
C          7.61055        4.87621       -1.35069
C          8.67058       -0.26081        1.11395
C          6.51355        5.69006       -1.09736
C          6.49621        6.88419       -1.86484
C          7.62615        7.01192       -2.63698
S          8.57592        5.59556       -2.58050
C          7.96770       -1.43555        0.87125
C          8.40028       -2.54483        1.64700
C          9.51134       -2.23827        2.39464
S          9.86586       -0.57288        2.31638
C          8.02682        8.16932       -3.49720
C          8.78819        9.22929       -2.71185
C         10.33659       -3.15578        3.24193
C         11.41954       -3.85778        2.43171
C        -12.90560       -3.95339       -0.60403
S        -13.64040       -4.78041        0.69318
C        -15.13565       -4.98112       -0.14895
C        -15.08945       -4.37629       -1.40516
C        -13.79313       -3.79939       -1.64442
C        -16.20821       -4.35644       -2.40647
C        -15.88456       -3.70227       -3.73669
C        -16.21432       -5.75766        0.45445
C        -16.06259       -6.84230        1.29009
C        -17.29642       -7.48212        1.60187
C        -18.40495       -6.83696        1.08203
S        -17.88712       -5.45151        0.19369
C        -19.81026       -7.14937        1.14804
C        -20.39756       -7.77305        2.18999
C         12.98314        3.70591       -0.11839
S         13.59033        4.74745       -1.32349
C         15.20996        4.63748       -0.72624
C         15.25681        3.87582        0.43622
C         13.96308        3.34854        0.76542
C         16.50881        3.56130        1.21628
C         16.31346        2.66747        2.42878
C         16.29146        5.18934       -1.50352
C         16.33400        5.20171       -2.87583
C         17.58969        5.62802       -3.36906
C         18.47222        6.06883       -2.39068
S         17.71952        5.87444       -0.84633
C         19.81200        6.61370       -2.48065
C        -21.83119       -8.15730        2.21583
C        -19.69616       -8.16620        3.35555
N        -19.09704       -8.49653        4.30253
O        -22.32603       -8.77146        3.15453
O        -22.48783       -7.86654        1.06373
C        -23.67845       -8.64971        0.87605
C        -23.26266       -9.92438        0.16703
C         20.25411        7.34203       -3.53688
C         19.24423        7.59120       -4.64524
C         21.61931        7.87879       -3.57224
N         18.40645        7.79790       -5.56471
O         22.43469        7.71670       -2.67642
O         21.78972        8.64678       -4.67438
C         22.83185        9.62691       -4.57194
C         22.22134       10.87138       -3.95191
H         -2.36251       -2.76381       -0.02322
H          2.36183        2.78442        0.14332
H         -2.36776        2.87940        1.40903
H         -2.48263        5.46208        1.10186
H         -0.96837       -3.72570        1.22428
H         -0.06627       -6.09425        0.61265
H         -1.28569        7.31655       -0.51081
H          0.15361        6.82481       -1.39257
H          0.02514        7.34317        1.63466
H          0.71412        8.42466        0.41335
H          1.47849        6.86160        0.74566
H          2.81222       -5.98587       -1.98898
H          1.71386       -7.11796       -1.21212
H          4.10972       -5.76800        0.15882
H          4.03132       -7.44231       -0.41417
H          3.00623       -6.91667        0.93186
H        -10.58377       -5.02408        0.58103
H         -5.76043        0.20430       -1.04623
H        -10.64854        0.55445       -1.10332
H        -10.56532        2.60544       -2.71163
H         -9.54270       -5.08636        2.43506
H         -8.65526       -7.38694        3.29498
H         -8.92793        3.46090       -4.73420
H         -7.34018        2.71627       -4.86505
H         -8.18079        4.71972       -2.69133
H         -7.15875        5.05786       -4.09744
H         -6.58011        3.97381       -2.82185
H         -5.29153       -8.40768        1.64405
H         -6.59669       -9.07932        2.61095
H         -4.47620       -7.11050        3.64433
H         -4.52488       -8.85581        3.94285
H         -5.78380       -7.80602        4.61491
H          5.77315       -0.10845        1.08250
H         10.58146        4.95832       -0.92002
H          5.72830        5.43845       -0.39869
H          5.70556        7.62138       -1.81841
H          7.14287       -1.50974        0.17435
H          7.94051       -3.52478        1.61564
H          7.12481        8.62161       -3.92529
H          8.64009        7.83005       -4.33915
H          8.18998        9.62191       -1.88211
H          9.04544       10.06776       -3.36737
H          9.71856        8.82958       -2.29400
H          9.68185       -3.90927        3.69343
H         10.80073       -2.60493        4.06678
H         10.99038       -4.45260        1.61823
H         11.99173       -4.53208        3.07727
H         12.11837       -3.14006        1.98879
H        -13.50687       -3.33036       -2.57743
H        -17.05194       -3.81127       -1.97129
H        -16.52664       -5.38749       -2.59846
H        -15.58569       -2.65716       -3.59942
H        -16.76705       -3.71854       -4.38237
H        -15.07515       -4.23050       -4.25081
H        -15.10439       -7.21585        1.62166
H        -17.33630       -8.39349        2.18458
H        -20.41403       -6.85599        0.29140
H         13.75782        2.69924        1.62111
H         16.94130        4.50290        1.56517
H         17.22674        3.08053        0.54170
H         15.60150        3.11026        3.13367
H         17.26530        2.53341        2.94882
H         15.94137        1.67981        2.13680
H         15.53013        4.84800       -3.51047
H         17.78685        5.60215       -4.43140
H         20.47669        6.43614       -1.63628
H        -24.37928       -8.07533        0.26071
H        -24.19658       -8.87106        1.81871
H        -22.78544       -9.68226       -0.78796
H        -24.11862      -10.58116       -0.01256
H        -22.51849      -10.47040        0.75887
H         23.19363        9.84459       -5.58162
H         23.68538        9.26604       -3.98683
H         21.38635       11.22739       -4.56629
H         22.95863       11.66899       -3.85383
H         21.80454       10.64735       -2.96310
