148
B1.sdf
C          1.32602       -0.41935       -0.08868
C          1.05962        0.95500       -0.03458
C         -0.29902        1.39405        0.03335
C         -1.33580        0.42007        0.05208
C         -1.06668       -0.95482        0.03756
C          0.28947       -1.39269       -0.04791
S         -3.05236        0.69221        0.12164
C         -3.44872       -0.95231        0.07114
C         -2.30308       -1.70992        0.13831
S          3.03818       -0.69246       -0.24595
C          3.44822        0.93973       -0.08669
C          2.30290        1.70475       -0.07093
C          0.59254       -2.86185       -0.12031
C         -0.60570        2.86319        0.11188
C          4.81309        1.41836       -0.06395
C         -4.81984       -1.40277        0.02558
S          6.12950        0.52051        0.54895
C          7.27384        1.77382        0.23091
C          6.65712        2.87562       -0.36155
C          5.24252        2.65339       -0.49806
C         -5.89635       -0.78244       -0.57602
C         -7.15396       -1.46385       -0.38285
C         -6.96615       -2.63445        0.35514
S         -5.30678       -2.85878        0.75989
C          8.66509        1.59283        0.61620
C         -7.93075       -3.62778        0.79714
C          9.13511        0.90514        1.72069
C         10.56938        0.95191        1.88736
C         11.16178        1.67089        0.84734
S          9.98076        2.19844       -0.28671
S         -9.31077       -4.04430       -0.10743
C         -9.86935       -5.19303        1.04024
C         -8.95777       -5.34025        2.08537
C         -7.87016       -4.40310        1.93993
C         12.56240        1.99580        0.61910
S         13.83432        0.94432        1.08360
C         15.05915        1.98031        0.49091
C         14.51218        3.11433       -0.07164
C         13.08375        3.12118       -0.00109
C         16.41234        1.58619        0.63378
C         17.04822        0.82241       -0.26749
S         18.65619        0.25038       -0.03634
C         18.67392       -0.62530       -1.56082
N         17.48155       -0.43138       -2.22333
C         16.52237        0.32973       -1.57399
S         19.99639       -1.51459       -2.05278
O         15.41211        0.57958       -2.02371
C         17.17065       -0.93179       -3.56241
C         16.43815       -2.26479       -3.53925
C         11.30376        0.33491        3.05816
C         10.44622       -0.41164        4.06646
C          7.35147        4.15075       -0.77843
C          6.44707        5.23899       -1.33786
C         -8.48519       -0.94778       -0.88591
C         -8.44684        0.35396       -1.67174
C         -9.06712       -6.34502        3.20971
C         -7.93817       -6.33028        4.22957
C        -11.13928       -5.85742        0.79934
C        -11.71402       -6.14947       -0.42725
C        -12.97905       -6.79568       -0.31302
C        -13.33988       -7.01565        1.00051
S        -12.20199       -6.31323        2.06873
C        -14.49285       -7.67418        1.51503
C        -14.54107       -8.99979        1.69430
S        -15.95744       -9.79209        2.29149
C        -15.20759      -11.38336        2.24886
N        -13.89955      -11.27227        1.83038
C        -13.46764      -10.00731        1.46478
O        -12.36080       -9.75790        1.00922
C        -12.94476      -12.37893        1.75193
C        -12.86863      -13.00013        0.36483
S        -16.04141      -12.76312        2.67770
C         -0.15698       -3.74097       -0.92671
C          0.10306       -5.11993       -0.97474
C          1.19274       -5.65653       -0.29490
C          1.97279       -4.80861        0.48515
C          1.64751       -3.44921        0.60405
C         -1.62567        3.46869       -0.65009
C         -1.94950        4.83072       -0.52676
C         -1.19878        5.65970        0.30102
C         -0.14946        5.10293        1.02699
C          0.10591        3.72372        0.96951
S         -1.49329        7.41331        0.38437
C         -3.10759        7.43267        1.23220
C         -3.51822        8.87262        1.49518
S          1.57356       -7.39493       -0.33373
C          1.76034       -7.65218       -2.12857
C          2.19092       -9.08572       -2.38736
H         -2.34284       -2.78980        0.20166
H          2.34971        2.78537       -0.05146
H          4.55890        3.38051       -0.91778
H         -5.79568        0.14639       -1.12557
H          8.47327        0.40439        2.41270
H         -7.05772       -4.31632        2.65209
H         15.10195        3.89797       -0.53108
H         12.47486        3.92482       -0.39783
H         16.91262        1.88602        1.55151
H         18.08834       -1.02242       -4.15040
H         16.54100       -0.19234       -4.07122
H         17.05553       -3.05184       -3.09601
H         16.18331       -2.56610       -4.56079
H         15.50909       -2.20124       -2.96351
H         11.85112        1.12742        3.58456
H         12.03370       -0.38797        2.68052
H          9.70299        0.24552        4.52770
H         11.07784       -0.81956        4.86242
H          9.92475       -1.24989        3.59224
H          8.08295        3.91097       -1.55729
H          7.89305        4.55996        0.08347
H          5.91885        4.89209       -2.23282
H          7.04252        6.11233       -1.62129
H          5.70374        5.55984       -0.60086
H         -9.15360       -0.81395       -0.02605
H         -8.93195       -1.69654       -1.54735
H         -8.03819        1.17466       -1.07440
H         -9.46015        0.63331       -1.97951
H         -7.84162        0.24813       -2.57843
H         -9.12455       -7.34929        2.77108
H         -9.99295       -6.16585        3.76357
H         -6.96849       -6.53061        3.76307
H         -8.11227       -7.09933        4.98926
H         -7.88378       -5.36353        4.74167
H        -11.24738       -5.92365       -1.37861
H        -13.57841       -7.11123       -1.15735
H        -15.33910       -7.04519        1.75767
H        -13.20086      -13.14754        2.48694
H        -11.95222      -12.00017        2.02395
H        -13.82646      -13.43957        0.07081
H        -12.11239      -13.79225        0.35188
H        -12.59255      -12.25792       -0.39098
H         -0.98262       -3.37057       -1.53083
H         -0.56384       -5.76095       -1.54578
H          2.84058       -5.19205        1.01778
H          2.26087       -2.85524        1.27770
H         -2.20664        2.88674       -1.36220
H         -2.77837        5.23144       -1.10559
H          0.47891        5.73242        1.65309
H          0.89430        3.33658        1.61145
H         -3.03172        6.89074        2.18044
H         -3.86175        6.94084        0.61007
H         -2.79202        9.38774        2.13383
H         -4.48574        8.90114        2.00727
H         -3.62177        9.43777        0.56229
H          2.51269       -6.96120       -2.52269
H          0.81038       -7.45788       -2.63539
H          3.15519       -9.30679       -1.91680
H          2.30124       -9.25584       -3.46332
H          1.44957       -9.80068       -2.01388
