224
BDT3TR.sdf
C          1.08084        0.95696        0.02021
C          1.34796       -0.42347       -0.04577
C          0.30133       -1.37307       -0.01081
C         -1.04680       -0.93701        0.03117
C         -1.30992        0.43454       -0.03176
C         -0.27010        1.38250        0.01478
C         -2.28162       -1.67125        0.16371
C         -3.41459       -0.90824        0.02442
S         -3.00720        0.71218       -0.22454
C          2.31095        1.70415        0.09507
C          3.43965        0.94091       -0.04235
S          3.05150       -0.69188       -0.20313
C         -0.62192        2.82598        0.10172
C          0.54997       -2.84215       -0.09793
C         -1.64121        3.42686        0.82981
C         -1.71184        4.83774        0.66525
C         -0.68443        5.31333       -0.11578
S          0.19799        4.03103       -0.81908
C         -0.19797       -3.80823       -0.76162
C          0.29583       -5.13363       -0.60553
C          1.48733       -5.15551        0.08007
S          1.84933       -3.61931        0.72912
C         -0.33880        6.74038       -0.41346
C          0.54141        7.34919        0.67151
C          2.39332       -6.32445        0.32001
C          3.34206       -6.55399       -0.85066
C         -7.07666       -1.53790       -0.51266
C         -6.87947       -2.69947        0.25261
C         -7.92846       -3.62084        0.47064
C         -9.21575       -3.38250       -0.07266
C         -9.40125       -2.24245       -0.86428
C         -8.35897       -1.31246       -1.07573
C        -10.45143       -4.12561        0.03746
C        -11.51482       -3.56727       -0.62311
S        -11.00724       -2.22316       -1.51651
C         -5.86049       -0.76228       -0.56519
C         -4.77806       -1.35761        0.03271
S         -5.25743       -2.74971        0.85877
C         -8.64497       -0.06904       -1.84564
C         -7.73055       -4.85481        1.27873
C         -9.77528        0.73737       -1.80657
C         -9.72518        1.84598       -2.69759
C         -8.51411        1.92944       -3.34443
S         -7.55929        0.54712       -3.03649
C         -8.57184       -5.43334        2.21970
C         -8.09784       -6.67863        2.72520
C         -6.84608       -6.98591        2.24409
S         -6.35607       -5.87219        1.04948
C         -8.03083        3.00984       -4.26471
C         -7.43790        4.18944       -3.50340
C         -5.97080       -8.14850        2.60097
C         -5.15149       -7.88669        3.85782
C          9.28589        3.24950       -0.38894
C          9.53158        1.98241        0.17217
C          8.47281        1.09925        0.48342
C          7.13671        1.46277        0.19028
C          6.90323        2.67160       -0.47351
C          7.94856        3.58347       -0.72441
C          5.88862        0.80502        0.48650
C          4.79441        1.39732       -0.08560
S          5.23531        2.78749       -0.93406
C         10.52045        3.99687       -0.50653
C         11.64266        3.29308       -0.14945
S         11.23191        1.73267        0.35228
C          7.60964        4.91188       -1.29923
C          8.69848       -0.26328        1.04633
C          6.52506        5.73049       -1.01008
C          6.49467        6.93373       -1.76690
C          7.60996        7.06468       -2.56092
S          8.54337        5.63439       -2.55391
C          8.01443       -1.43985        0.75960
C          8.44364       -2.56089        1.52185
C          9.53786       -2.25731        2.29577
S          9.86694       -0.58313        2.27137
C          8.01322        8.24062       -3.39587
C          8.77507        9.27795       -2.57973
C         10.37757       -3.19094        3.10964
C          9.92851       -3.23393        4.55902
C        -12.87895       -4.02243       -0.64463
S        -13.61871       -4.76705        0.69674
C        -15.12968       -4.94606       -0.11169
C        -15.07435       -4.42877       -1.40654
C        -13.76607       -3.90673       -1.68841
C        -16.21689       -4.39569       -2.39290
C        -15.90932       -3.78081       -3.74710
C        -16.23534       -5.58747        0.57757
C        -16.49062       -5.60826        1.93602
C        -17.63467       -6.39463        2.26893
C        -18.29143       -6.89216        1.15665
S        -17.43107       -6.48327       -0.25341
C        -19.56205       -7.59149        1.11552
C         13.01461        3.71587       -0.19196
S         13.61293        4.73823       -1.40971
C         15.22886        4.64591       -0.82160
C         15.30725        3.87382        0.33890
C         14.01353        3.35595        0.68460
C         16.56155        3.59883        1.13526
C         16.38753        2.73026        2.37026
C         16.28279        5.31810       -1.55839
C         16.18485        6.45073       -2.34359
C         17.42274        6.79889       -2.96552
C         18.46640        5.97366       -2.58361
S         17.87739        4.71752       -1.60085
C         19.87750        6.12512       -2.88345
C         23.07317        8.13174       -3.74789
C         23.80156        8.77868       -2.82890
C         23.74809        8.62000       -1.34727
N         24.66039        9.46650       -0.73770
C         25.39772       10.28401       -1.56634
S         24.98375        9.96287       -3.24608
O         23.02508        7.83251       -0.75410
C         24.81465        9.37719        0.71456
C         23.83266       10.24877        1.48452
S         26.53734       11.42569       -1.14338
C        -23.16580       -8.35976        2.31959
C        -24.19842       -7.55429        2.05374
C        -24.27494       -6.45824        1.03807
N        -25.53340       -5.86729        1.06859
C        -26.42909       -6.35144        1.99753
S        -25.70400       -7.68088        2.89156
S        -27.98768       -5.84137        2.29981
C        -25.83816       -4.84065        0.07142
C        -25.43330       -3.43833        0.50226
O        -23.38089       -6.14063        0.28189
S         20.46533        7.71506       -3.19929
C         22.06993        7.19102       -3.40803
C         22.16848        5.82878       -3.22912
C         20.90624        5.18406       -2.95824
C         20.80102        3.67967       -2.86665
C         21.03528        3.09492       -1.48033
S        -20.69529       -7.26654        2.37899
C        -21.90708       -8.23464        1.68329
C        -21.45429       -8.82808        0.52792
C        -20.09161       -8.49081        0.18865
C        -19.45572       -9.06140       -1.05762
C        -18.25392       -9.96124       -0.81065
H         -2.33384       -2.74137        0.31638
H          2.37270        2.77763        0.20975
H         -2.33545        2.87917        1.45475
H         -2.45573        5.46926        1.13555
H         -1.08974       -3.58804       -1.33468
H         -0.17586       -6.01414       -1.02475
H         -1.26383        7.32410       -0.49067
H          0.16854        6.82357       -1.38108
H          0.04897        7.32305        1.65011
H          0.76176        8.39520        0.43428
H          1.49375        6.81544        0.76227
H          1.78612       -7.22512        0.46933
H          2.97724       -6.18190        1.23624
H          2.79393       -6.74583       -1.77992
H          3.98198       -7.42015       -0.65286
H          3.98987       -5.68653       -1.01816
H        -10.56575       -5.04489        0.59479
H         -5.76114        0.18029       -1.08446
H        -10.63038        0.54097       -1.17253
H        -10.52641        2.56434       -2.82162
H         -9.52068       -5.00645        2.51931
H         -8.64084       -7.29853        3.42852
H         -8.87237        3.36487       -4.87144
H         -7.28233        2.61860       -4.96283
H         -8.17013        4.63894       -2.82344
H         -7.11272        4.96441       -4.20571
H         -6.56910        3.88779       -2.90831
H         -5.29223       -8.38791        1.77392
H         -6.59773       -9.03374        2.75855
H         -4.48716       -7.02466        3.73266
H         -4.53133       -8.75918        4.08911
H         -5.79477       -7.69183        4.72282
H          5.79833       -0.09619        1.07950
H         10.58751        5.01519       -0.86498
H          5.75777        5.47821       -0.28882
H          5.71381        7.68058       -1.69217
H          7.20796       -1.50535        0.03987
H          8.00314       -3.54853        1.45843
H          7.11445        8.70694       -3.81641
H          8.63001        7.92172       -4.24344
H          8.17189        9.65522       -1.74624
H          9.04499       10.12991       -3.21216
H          9.69801        8.86103       -2.16191
H         11.43381       -2.90049        3.05359
H         10.31469       -4.19979        2.68159
H         10.01180       -2.24835        5.02868
H         10.54926       -3.93423        5.12566
H          8.88539       -3.55783        4.63843
H        -13.48930       -3.45953       -2.63478
H        -17.05305       -3.84909       -1.94011
H        -16.54184       -5.42120       -2.59187
H        -15.59040       -2.73840       -3.65304
H        -16.80356       -3.80886       -4.37730
H        -15.12106       -4.34231       -4.26021
H        -15.88929       -5.08822        2.67202
H        -17.97862       -6.54219        3.28544
H         13.82339        2.72323        1.54377
H         17.00180        4.55274        1.44752
H         17.28298        3.08117        0.49784
H         15.68981        3.17901        3.08423
H         17.35256        2.60217        2.87119
H         16.01781        1.73610        2.09727
H         15.27124        7.01734       -2.47745
H         17.53845        7.65037       -3.62550
H         23.20763        8.33788       -4.80692
H         25.83873        9.63523        0.99790
H         24.65852        8.33428        1.01225
H         23.98750       11.31157        1.27580
H         23.96748       10.09147        2.56037
H         22.79487       10.00275        1.23717
H        -23.24618       -9.10848        3.07270
H        -26.90346       -4.85745       -0.16989
H        -25.30175       -5.08908       -0.85128
H        -25.99336       -3.10741        1.38228
H        -25.63575       -2.73205       -0.31118
H        -24.36587       -3.38037        0.73851
H         23.10715        5.29394       -3.31629
H         21.54812        3.24259       -3.54243
H         19.83445        3.34592       -3.25782
H         22.06170        3.26656       -1.14139
H         20.86966        2.01140       -1.50632
H         20.36598        3.51371       -0.72478
H        -22.07887       -9.47515       -0.07485
H        -19.20098       -8.25817       -1.75660
H        -20.20734       -9.66884       -1.58062
H        -17.37721       -9.39908       -0.48036
H        -17.97855      -10.47243       -1.73996
H        -18.46669      -10.72263       -0.05403
