245
BO2FC8.sdf
C         -1.25266        0.07914       -1.37019
C         -2.40035       -0.74888       -1.11948
C         -2.19754       -2.12409       -0.94454
C         -0.92338       -2.70072       -1.09242
C          0.21297       -1.90878       -1.39474
C          0.03340       -0.51959       -1.48731
C         -3.81884       -0.46050       -1.06229
C         -4.59851       -1.55320       -0.77685
S         -3.67859       -2.93845       -0.54429
C          1.59599       -2.27615       -1.70235
C          2.40920       -1.22297       -2.07866
S          1.59337        0.22845       -1.71991
C         -1.46633        1.55280       -1.53507
C         -0.80879       -4.17201       -1.02795
C         -1.58943       -5.15988       -1.62001
C         -1.05303       -6.45038       -1.42236
C          0.14069       -6.43124       -0.75129
S          0.38752       -4.90257       -0.02492
C         -2.35960        2.42151       -0.91401
C         -2.23799        3.76617       -1.36536
C         -1.24511        3.95365       -2.29216
S         -0.58249        2.44223       -2.73076
C          3.75780       -1.23719       -2.64821
S          4.67557       -2.67456       -2.79409
C          6.09453       -1.88996       -3.44956
C          5.79490       -0.56073       -3.66164
C          4.48275       -0.18931       -3.19629
C          7.38529       -2.62863       -3.54706
C          8.72044       -2.11529       -3.31712
C          9.60633       -2.95655       -2.60788
C          9.01943       -3.55760       -1.46478
C          8.20663       -4.50321       -2.13104
C          7.35193       -4.02674       -3.23023
N          8.02986       -5.82039       -1.98510
O          7.09416       -6.17055       -2.95306
N          6.63434       -5.07060       -3.66788
C          8.17058       -2.60005       -0.51629
C          8.19663       -1.21175       -0.36568
C          7.07363       -0.65061        0.37095
C          6.22072       -1.60491        0.88970
S          6.84170       -3.19072        0.42995
C          1.17714       -7.49383       -0.64252
C         -0.77369        5.20126       -2.98426
C          0.25880        5.99218       -2.19618
C          2.05200       -7.48678       -1.89485
F         -3.00135        4.73120       -0.92570
F         -1.56854       -7.52642       -1.95274
O          9.05479       -0.78092       -3.39485
C         10.44872       -0.43234       -3.62667
C         11.49586       -0.62722       -2.51479
O         10.36870       -3.67945       -3.56862
C         11.38441       -4.59678       -3.14291
C         12.07531       -5.19141       -4.38155
C          1.47207       -0.16865        2.80964
C          2.74169       -0.81818        2.49962
C          2.83827       -2.17668        2.83884
C          1.73594       -2.91489        3.31385
C          0.44518       -2.34883        3.38695
C          0.33923       -0.96342        3.22958
C          4.05791       -0.40414        1.89053
C          4.96300       -1.45281        1.67082
S          4.45951       -2.73763        2.67220
C         -0.84950       -2.97319        3.63776
C         -1.77393       -2.09830        4.15651
S         -1.31780       -0.51950        3.66087
C          1.30148        1.31792        2.76909
C          1.90073       -4.31662        3.77308
C          2.65099       -5.36490        3.25702
C          2.36285       -6.59298        3.89467
C          1.42407       -6.49233        4.88597
S          1.15699       -4.84600        5.25631
C          0.53716        2.13627        3.60162
C          0.59051        3.50097        3.25236
C          1.42018        3.76118        2.19847
S          2.05733        2.30509        1.56962
C         -2.92382       -2.40813        5.01042
S         -3.80730       -3.89579        4.97142
C         -4.94121       -3.40322        6.20267
C         -4.44602       -2.26487        6.81253
C         -3.39496       -1.64047        6.05999
C         -6.31447       -3.98375        6.33434
C         -7.28073       -3.77708        7.39299
C         -8.63359       -3.49816        7.03076
C         -8.79567       -2.59631        5.95354
C         -8.27280       -3.37473        4.89267
C         -7.00574       -4.10169        5.08617
N         -8.69740       -3.58098        3.64104
O         -7.76556       -4.43856        3.07328
N         -6.70585       -4.69913        3.92501
C         -8.12710       -1.21695        6.05873
C         -7.42534       -0.63713        7.11199
C         -6.73967        0.57779        6.76341
C         -7.03196        1.00950        5.48357
S         -8.08209       -0.13791        4.71294
C          0.68317       -7.57418        5.60313
C          1.74272        5.09114        1.60035
C          0.49134        5.75828        1.05980
C         -0.52383       -8.04861        4.79163
F         -0.08439        4.42717        3.88089
F          2.86645       -7.72869        3.49791
O         -6.91829       -3.54429        8.70876
C         -7.85956       -3.99998        9.71798
C         -8.66064       -2.90041       10.42606
O         -9.35170       -4.73829        6.98906
C        -10.77536       -4.66355        6.83634
C        -11.31526       -6.04099        6.44049
C         -7.03945        4.78410        2.01810
C         -6.72829        4.02177        3.19938
C         -6.29154        4.71410        4.34321
C         -6.18288        6.12475        4.33112
C         -6.64222        6.87806        3.22245
C         -7.03772        6.21024        2.06020
C         -6.76331        2.59077        3.49032
C         -6.64502        2.25804        4.82556
S         -5.93054        3.57996        5.62536
C         -6.77701        8.30264        3.07059
C         -7.10342        8.74207        1.81398
S         -7.46755        7.40621        0.83046
C         -7.34453        4.09875        0.72806
C         -5.55223        6.89745        5.43441
C         -4.69818        7.99598        5.34589
C         -4.26718        8.45973        6.60600
C         -4.69710        7.67202        7.63855
S         -5.89293        6.57981        7.09258
C         -6.97246        4.46544       -0.56063
C         -7.38631        3.54057       -1.54350
C         -8.00671        2.43646       -1.02847
S         -8.30835        2.66178        0.63718
C         -7.03912       10.14345        1.44705
S         -6.37042       10.69223       -0.01796
C         -5.98229       12.25879        0.65087
C         -6.71335       12.44428        1.81193
C         -7.29148       11.22360        2.27422
C         -4.90270       13.06346        0.06441
C         -3.95729       13.83884        0.77486
C         -2.66862       13.99784        0.17017
C         -2.11266       12.78998       -0.32098
C         -2.95814       12.55954       -1.43159
C         -4.42097       12.68993       -1.23436
N         -2.71776       12.14307       -2.67844
O         -3.96806       12.04826       -3.27603
N         -5.00053       12.32734       -2.39049
C         -2.08627       11.59276        0.65589
C         -2.13757       11.58178        2.04943
C         -2.41687       10.30320        2.62172
C         -2.50811        9.33089        1.65920
S         -2.19321        9.95465        0.09439
C         -4.23544        7.65562        9.05710
C         -8.35751        1.16395       -1.73309
C         -7.11345        0.30481       -1.86513
C         -2.99950        6.76922        9.18848
F         -7.11745        3.68154       -2.81333
F         -3.45684        9.47320        6.75373
O         -4.04487       14.12530        2.11993
C         -3.40629       15.32916        2.60564
C         -1.89390       15.30818        2.86804
O         -2.76799       15.12890       -0.69169
C         -1.57596       15.62286       -1.29917
C         -1.97985       16.47347       -2.50406
H         -4.25665        0.51191       -1.23550
H         -5.67083       -1.62551       -0.67225
H          1.93996       -3.30251       -1.72629
H         -2.47225       -4.97553       -2.21963
H         -3.08320        2.12465       -0.16533
H          6.50299        0.14264       -4.08045
H          4.10932        0.82494       -3.26122
H          8.92177       -0.57139       -0.85152
H          6.92487        0.41831        0.48580
H          0.70374       -8.47436       -0.52690
H          1.80807       -7.33098        0.23857
H         -1.62824        5.85215       -3.19813
H         -0.32725        4.94042       -3.95056
H         -0.22967        6.54760       -1.39090
H          0.75050        6.73553       -2.83221
H          1.04072        5.35157       -1.77278
H          1.46745       -7.74170       -2.78684
H          2.86381       -8.21263       -1.80055
H          2.49651       -6.49892       -2.06813
H         10.42240        0.64891       -3.80633
H         10.80355       -0.88723       -4.55870
H         11.09079       -0.57233       -1.50285
H         12.28408        0.13403       -2.60444
H         12.02061       -1.58398       -2.62100
H         10.96630       -5.42029       -2.55624
H         12.13018       -4.05802       -2.55395
H         11.38456       -5.80126       -4.97708
H         12.92134       -5.82878       -4.09762
H         12.44964       -4.40674       -5.04916
H          4.25112        0.60075        1.53580
H         -0.99141       -4.04619        3.68357
H          3.32246       -5.28276        2.41504
H         -0.06017        1.79396        4.43391
H         -4.92337       -1.78774        7.65694
H         -2.98701       -0.66880        6.30628
H         -7.30089       -1.09629        8.08592
H         -6.07677        1.10098        7.44571
H          0.34435       -7.22997        6.58848
H          1.35227       -8.42508        5.77474
H          2.47555        4.99038        0.79229
H          2.19379        5.73826        2.36160
H          0.03803        5.12170        0.29661
H          0.73840        6.73223        0.62738
H         -0.26873        5.91912        1.82944
H         -1.18739       -7.21953        4.51841
H         -1.11100       -8.77254        5.36621
H         -0.21162       -8.53852        3.86142
H         -7.24430       -4.48293       10.48436
H         -8.54060       -4.77878        9.35543
H         -8.09949       -1.96963       10.54122
H         -8.96243       -3.24393       11.42650
H         -9.59142       -2.66987        9.89462
H        -11.07884       -3.93846        6.07544
H        -11.20485       -4.38316        7.80247
H        -10.94088       -6.34833        5.45707
H        -12.41055       -6.03675        6.39890
H        -11.00285       -6.81453        7.15098
H         -7.02382        1.83072        2.77168
H         -6.54460        9.01133        3.85376
H         -4.38121        8.44954        4.41585
H         -6.39820        5.34835       -0.80291
H         -6.67496       13.35838        2.39271
H         -7.74797       11.12598        3.25180
H         -2.10163       12.46643        2.66354
H         -2.57640       10.12528        3.68125
H         -2.73477        8.28167        1.80429
H         -5.02512        7.28391        9.72001
H         -3.99199        8.67187        9.38649
H         -8.75634        1.37253       -2.73090
H         -9.11921        0.59963       -1.18404
H         -6.35899        0.77497       -2.50682
H         -7.34203       -0.68198       -2.27908
H         -6.67392        0.17786       -0.87256
H         -3.20150        5.75001        8.83841
H         -2.67234        6.71320       10.23021
H         -2.16780        7.16131        8.59145
H         -3.87369       15.50783        3.58105
H         -3.67007       16.18672        1.97680
H         -1.51722       14.34566        3.21422
H         -1.63652       16.05189        3.63376
H         -1.32532       15.59101        1.97573
H         -0.89803       14.82874       -1.62465
H         -1.07285       16.26056       -0.56746
H         -2.38003       15.84761       -3.31046
H         -1.12479       17.03147       -2.89870
H         -2.77086       17.18680       -2.24403
