152
BTR.sdf
C          1.34626       -0.42231        0.01914
C          1.08060        0.95711        0.03951
C         -0.27852        1.37929        0.02939
C         -1.32323        0.42369       -0.01535
C         -1.05441       -0.94876        0.00410
C          0.29921       -1.37012        0.00863
S         -3.03661        0.68396       -0.08538
C         -3.42927       -0.96089       -0.02754
C         -2.28546       -1.71262        0.05206
S          3.05248       -0.70327       -0.02483
C          3.46213        0.93785        0.05142
C          2.32367        1.70674        0.03855
C          0.55326       -2.83270       -0.08249
C         -0.61990        2.82938        0.05480
C         -0.13624       -3.76993       -0.83649
C          0.28716       -5.12576       -0.64832
C          1.41150       -5.17069        0.15828
S          1.74432       -3.63833        0.85237
C         -1.62016        3.51152       -0.61882
C         -1.71134        4.91266       -0.31702
C         -0.70149        5.28894        0.55295
S          0.19108        3.93167        1.09451
C          4.84056        1.36524        0.07078
C         -4.79473       -1.41807        0.00857
S          5.34754        2.87085       -0.54815
C          7.01941        2.52172       -0.30636
C          7.18899        1.29192        0.32698
C          5.92012        0.65279        0.54544
C         -5.86197       -0.73035        0.53743
C         -7.10190       -1.45770        0.51169
C         -6.93624       -2.69866       -0.10246
S         -5.29264       -2.93774       -0.57961
C          8.03298        3.44460       -0.78567
C         -7.92197       -3.73677       -0.35984
C          7.94364        4.23044       -1.92705
C          9.13471        4.98170       -2.21610
C         10.09484        4.78915       -1.22375
S          9.52083        3.71642       -0.01406
S         -9.55888       -3.39415       -0.70314
C        -10.00154       -5.04102       -0.87368
C         -8.88791       -5.86820       -0.74980
C         -7.71316       -5.10092       -0.41202
C         11.41514        5.38352       -1.09321
S         12.39864        5.77621       -2.44528
C         13.60688        6.50891       -1.48438
C         13.32014        6.36582       -0.14305
C         12.08050        5.69500        0.07953
C         14.72661        7.11511       -2.10653
C         14.80448        8.42831       -2.36613
S         16.13091        9.12850       -3.20647
C         15.39689       10.72993       -3.24039
N         14.18889       10.69676       -2.58370
C         13.79698        9.48224       -2.05648
S         16.13713       12.01810       -3.99871
O         12.75916        9.29161       -1.42578
C         13.26226       11.82966       -2.45704
C         13.41732       12.61209       -1.15994
C          9.30116        5.87048       -3.42147
C          8.09709        5.97116       -4.33827
C          8.51659        0.67314        0.68415
C          8.45537       -0.70411        1.32048
C         -2.76991        5.79155       -0.92271
C         -0.37088        6.64004        1.12759
C          0.58728        7.45573        0.26943
C         -0.43122       -6.28616       -1.27708
C          2.31799       -6.32720        0.47834
C          1.95703       -7.04187        1.76953
C         -8.38706       -0.93307        1.10250
C         -8.31526        0.46016        1.70669
C         -8.89984       -7.36090       -0.95953
C         -7.56984       -8.06504       -0.77329
C        -11.39070       -5.38345       -1.13119
C        -12.33584       -4.62536       -1.80205
C        -13.61977       -5.24644       -1.84366
C        -13.62556       -6.48977       -1.25170
S        -12.11119       -6.82383       -0.53219
C        -14.68392       -7.42669       -1.14248
C        -14.94901       -8.34137       -2.08663
S        -16.27659       -9.43903       -1.97433
C        -15.90369      -10.20923       -3.51294
N        -14.77443       -9.64084       -4.06027
C        -14.19912       -8.59892       -3.34948
O        -13.19970       -7.98781       -3.70262
C        -14.09004      -10.10622       -5.27209
C        -14.48235       -9.35469       -6.53753
S        -16.84095      -11.44593       -4.12815
C          0.02116       -6.59089       -2.69362
C         -4.02092        5.91664       -0.06265
H         -2.32672       -2.78772        0.16153
H          2.38444        2.78584        0.03883
H         -0.96549       -3.50902       -1.48343
H         -2.30832        3.03242       -1.30343
H          5.80907       -0.32377        1.00156
H         -5.75276        0.25513        0.96966
H          7.06013        4.23904       -2.55390
H         -6.73986       -5.54198       -0.23351
H         13.95763        6.74018        0.64709
H         11.67972        5.49495        1.06583
H         15.52620        6.44307       -2.41538
H         12.24047       11.43545       -2.49801
H         13.37454       12.50334       -3.31124
H         13.32952       11.96444       -0.28173
H         12.62952       13.37071       -1.09576
H         14.38278       13.12481       -1.10836
H         10.12604        5.48169       -4.02811
H          9.56736        6.87780       -3.08076
H          7.82920        4.99003       -4.74337
H          8.33032        6.62932       -5.18077
H          7.22968        6.38079       -3.81274
H          9.02902        1.33053        1.39315
H          9.12481        0.60684       -0.22636
H          7.88054       -0.68224        2.25246
H          9.46702       -1.04645        1.55818
H          7.99787       -1.43560        0.64683
H         -3.06430        5.37027       -1.89285
H         -2.36034        6.78536       -1.12672
H          0.07637        6.52074        2.12240
H         -1.29509        7.20873        1.27451
H          1.54334        6.94199        0.12111
H          0.79934        8.41134        0.76363
H          0.16380        7.67669       -0.71545
H         -1.50652       -6.05923       -1.29691
H         -0.32219       -7.17784       -0.65073
H          3.35543       -5.97462        0.54574
H          2.29987       -7.04639       -0.34905
H          1.99484       -6.36606        2.63017
H          2.66842       -7.85472        1.95303
H          0.95366       -7.47602        1.72063
H         -8.72868       -1.63463        1.87314
H         -9.14558       -0.88845        0.31671
H         -7.59541        0.50656        2.52884
H         -9.29719        0.74543        2.09523
H         -8.02741        1.19735        0.94903
H         -9.26830       -7.56299       -1.97363
H         -9.59317       -7.81808       -0.24888
H         -6.81634       -7.69184       -1.47315
H         -7.69456       -9.13864       -0.94366
H         -7.19837       -7.92751        0.24766
H        -12.12495       -3.66198       -2.25067
H        -14.48994       -4.80778       -2.31583
H        -15.29824       -7.36196       -0.24652
H        -14.26685      -11.17598       -5.41201
H        -13.01092       -9.98194       -5.12388
H        -15.53893       -9.49510       -6.78235
H        -13.88898       -9.72662       -7.38104
H        -14.29307       -8.27970       -6.44722
H         -0.13096       -5.73276       -3.35726
H         -0.55543       -7.43104       -3.09492
H          1.08147       -6.85935       -2.72298
H         -4.48617        4.94145        0.12110
H         -4.75907        6.54713       -0.57041
H         -3.79802        6.37127        0.90776
