164
DRBDT-STVT.sdf
C          1.34258       -0.42083        0.02881
C          1.07849        0.96008        0.04928
C         -0.27649        1.39644        0.02592
C         -1.32421        0.44115       -0.04512
C         -1.05786       -0.93556       -0.03194
C          0.29593       -1.36833        0.00407
S         -3.03969        0.70331       -0.13254
C         -3.43758       -0.93830       -0.07875
C         -2.29561       -1.68944       -0.01561
S          3.05079       -0.70652        0.00298
C          3.45870        0.92617        0.06870
C          2.32204        1.69721        0.06551
C          0.55500       -2.84082       -0.07800
C         -0.60844        2.85620        0.06726
C         -0.16469       -3.78480       -0.79041
C          0.30374       -5.11444       -0.63076
C          1.43798       -5.21023        0.14922
S          1.81351       -3.65088        0.78652
C         -1.64511        3.53679       -0.55161
C         -1.69509        4.92623       -0.25288
C         -0.67112        5.34549        0.56750
S          0.26829        3.98292        1.04428
C          4.81553        1.40706        0.04442
C         -4.80115       -1.39969       -0.00993
S          6.14815        0.51746        0.62241
C          7.26803        1.76431        0.23735
C          6.63367        2.85554       -0.34682
C          5.22118        2.62972       -0.44253
C         -5.84919       -0.72212        0.56755
C         -7.08287       -1.44712        0.57863
C         -6.93714       -2.68370       -0.04363
S         -5.31632       -2.92039       -0.58645
C          8.66944        1.59662        0.55629
C         -7.94341       -3.70535       -0.26518
C          9.38129        0.41224        0.60362
C         10.70947        0.59466        1.08491
C         11.05649        1.92745        1.19955
S          9.68510        2.90049        0.96768
S         -9.60746       -3.34211       -0.43807
C        -10.06671       -4.95939       -0.68041
C         -8.94554       -5.76319       -0.71554
C         -7.75068       -5.06706       -0.37612
C         12.37531        2.48032        1.41793
S         13.73146        1.57758        0.83767
C         14.85709        2.72495        1.40649
C         14.20883        3.81462        1.93990
C         12.77718        3.67907        2.00879
C         16.25234        2.49898        1.28959
C         16.96811        1.88300        2.23715
S         18.68577        1.75421        2.18728
C         18.77615        0.94407        3.75316
N         17.50731        0.75819        4.25626
C         16.47139        1.24775        3.48889
S         20.24150        0.54279        4.43672
O         15.27572        1.20295        3.80368
C         17.15831        0.19510        5.56825
C         16.83773       -1.29712        5.56339
C          7.32956        4.10516       -0.81579
C          6.43649        5.17237       -1.40966
C         -0.32981        6.64922        1.05067
C         -1.06928        7.73303        0.76345
C          2.23855       -6.34977        0.49682
C          1.91840       -7.58863        0.07664
C         -8.35612       -0.93589        1.19599
C         -8.28154        0.44274        1.81433
C        -11.45076       -5.37539       -0.76125
C        -12.58145       -4.69589       -1.20607
C        -13.76464       -5.48478       -0.97320
C        -13.51907       -6.74442       -0.46845
S        -11.85865       -6.94589       -0.15654
C        -14.44529       -7.77223       -0.17514
C        -14.83478       -8.69052       -1.08659
S        -16.00229       -9.90291       -0.73674
C        -15.89289      -10.60969       -2.35007
N        -14.98425       -9.90734       -3.11312
C        -14.35006       -8.83888       -2.48455
O        -13.49234       -8.14748       -3.00544
C        -14.52584      -10.25829       -4.46558
C        -15.24768       -9.53701       -5.59877
S        -16.80036      -11.94478       -2.77193
C         11.92809        4.69489        2.73347
C         11.43163        5.86255        1.89254
C        -12.69756       -3.31002       -1.79405
C        -12.00851       -3.08807       -3.13206
C          2.63823       -8.76967        0.44412
S          2.11727      -10.29154       -0.19848
C          3.32068      -11.17565        0.62738
C          4.09892      -10.34607        1.40543
C          3.72088       -8.96925        1.28486
S          3.44946      -12.93422        0.54733
C          3.70195      -13.22583       -1.23422
C          3.80871      -14.71672       -1.53037
C         -0.70396        9.04982        1.18026
S         -1.74043       10.37643        0.79130
C         -0.73050       11.52313        1.55295
C          0.40859       10.92965        2.05341
C          0.41518        9.51478        1.85203
S         -1.08653       13.25023        1.58614
C         -2.68915       13.28816        2.45276
C         -3.20872       14.71441        2.57489
H         -2.35233       -2.76460        0.08598
H          2.39232        2.77502        0.06770
H         -1.02604       -3.54852       -1.40009
H         -0.18033       -5.96080       -1.10261
H         -2.37803        3.06953       -1.19352
H         -2.45824        5.58163       -0.64962
H          4.52369        3.34054       -0.86723
H         -5.72232        0.25926        1.00738
H          8.96288       -0.55330        0.34269
H         11.39905       -0.21988        1.26195
H         -8.98405       -6.82771       -0.90933
H         -6.78999       -5.54944       -0.25076
H         14.74319        4.66617        2.34678
H         16.73665        2.91795        0.40827
H         16.26724        0.71403        5.93106
H         17.95216        0.39603        6.29027
H         16.02552       -1.54593        4.86991
H         16.49988       -1.59834        6.57039
H         17.70647       -1.90304        5.31223
H          8.09653        3.82738       -1.54983
H          7.82426        4.57017        0.04131
H          5.90351        4.79923       -2.28824
H          7.04156        6.03285       -1.70929
H          5.70400        5.51504       -0.67127
H          0.57257        6.73511        1.65035
H         -1.97489        7.64012        0.17011
H          3.10920       -6.18259        1.12371
H          1.05283       -7.73693       -0.56312
H         -8.68923       -1.65210        1.95801
H         -9.12062       -0.87457        0.41699
H         -7.54713        0.47486        2.62359
H         -9.25949        0.71534        2.22089
H         -8.00911        1.18804        1.05956
H        -14.76562       -5.13726       -1.19262
H        -14.86863       -7.78402        0.82505
H        -14.59772      -11.34006       -4.61777
H        -13.46250      -10.00207       -4.54130
H        -16.31093       -9.79012       -5.63087
H        -14.80486       -9.83382       -6.55745
H        -15.15414       -8.44827       -5.52134
H         12.52805        5.11098        3.55372
H         11.08054        4.19966        3.21751
H         12.25688        6.49678        1.55354
H         10.76179        6.48623        2.49659
H         10.87578        5.54195        1.00838
H        -12.35611       -2.56659       -1.06729
H        -13.76443       -3.09879       -1.94720
H        -10.92009       -3.06878       -3.03894
H        -12.31038       -2.11520       -3.53804
H        -12.27135       -3.85582       -3.86606
H          4.90411      -10.69478        2.04197
H          4.21822       -8.16817        1.81802
H          4.62405      -12.72743       -1.54853
H          2.87040      -12.80909       -1.81052
H          4.64465      -15.17968       -0.99525
H          3.98077      -14.87368       -2.60178
H          2.88841      -15.25012       -1.26793
H          1.20752       11.47019        2.54640
H          1.22241        8.87348        2.18469
H         -2.56299       12.86145        3.45257
H         -3.42644       12.68770        1.91157
H         -2.51488       15.35511        3.12934
H         -4.16125       14.71830        3.11760
H         -3.39200       15.16511        1.59335
