99
DRCN5T.sdf
C          2.79367        7.04619       -6.28330
C          3.18822        6.09941       -5.21930
S          2.15222        4.73707       -5.17676
C          1.38548        5.18359       -6.67759
N          1.75168        6.48248       -7.03828
C          1.21478        7.28779       -8.12807
C          1.95244        7.10656       -9.44669
C          0.55654        4.28406       -7.25190
C         -0.32158        4.66760       -8.43182
C          0.42397        2.90721       -6.62174
N         -1.05006        4.98578       -9.41065
N          0.31398        1.76500       -6.09896
O          3.32294        8.13266       -6.46111
C          4.26450        6.25606       -4.44098
C          4.63343        5.22325       -3.54009
C          4.18623        4.94545       -2.26270
C          4.81536        3.79617       -1.66874
C          5.67022        3.19805       -2.58419
S          5.66786        3.99594       -4.09898
C          4.62035        3.32393       -0.24872
C          4.14993        4.38144        0.73092
C          6.58148        2.11378       -2.34389
S          8.11240        2.14862       -3.07553
C          8.69953        0.94237       -2.04597
C          7.70651        0.35575       -1.26462
C          6.45801        1.02661       -1.50049
C          7.92108       -0.78174       -0.28508
C          6.73831       -1.20116        0.55944
C         10.08843        0.64067       -2.14176
C         11.13924        1.49385       -2.41299
C         12.37472        0.79655       -2.47732
C         12.21446       -0.56208       -2.27463
S         10.59899       -0.95308       -2.00393
C         13.21442       -1.58306       -2.19551
S         14.78600       -1.08486       -1.81005
C         15.35048       -2.66973       -1.67957
C         14.37332       -3.57900       -2.03710
C         13.11265       -2.96459       -2.35601
C         11.86321       -3.71122       -2.77958
C         12.02203       -5.18680       -3.08815
C         16.71791       -2.90636       -1.31345
C         17.50435       -2.23216       -0.37593
C         18.81235       -2.81821       -0.33390
C         18.95548       -3.90517       -1.17449
S         17.58374       -4.12127       -2.15433
C         17.04334       -1.07643        0.49560
C         18.05300       -0.51841        1.48444
C         19.97093       -4.90119       -1.14467
C         20.93416       -6.81807        0.10733
C         19.85736       -5.89336       -0.25198
S         18.51169       -6.08787        0.79490
C         19.55195       -6.74708        2.01212
N         20.69126       -7.29951        1.41008
C         21.68782       -8.18440        2.00562
C         22.81668       -7.47091        2.73586
C         19.13740       -6.68454        3.29325
C         19.75093       -7.64580        4.29822
C         17.90788       -5.87400        3.66967
N         20.25991       -8.44324        5.13192
N         16.88788       -5.20159        3.98195
O         21.91134       -7.06130       -0.59220
H          1.30165        8.34501       -7.84506
H          0.14223        7.11776       -8.23270
H          3.01020        7.37294       -9.34899
H          1.51419        7.75703      -10.21184
H          1.89965        6.07537       -9.80652
H          4.92828        7.10741       -4.55875
H          3.45375        5.56464       -1.76096
H          5.57386        2.94884        0.14241
H          3.91594        2.48303       -0.24820
H          4.86439        5.20963        0.78093
H          4.06474        3.94597        1.73172
H          3.17090        4.78008        0.45266
H          5.53799        0.77812       -0.98616
H          8.74396       -0.50727        0.39133
H          8.23153       -1.67168       -0.84408
H          6.38864       -0.38305        1.19625
H          7.02735       -2.03674        1.20851
H          5.90794       -1.53977       -0.06622
H         11.03858        2.56278       -2.56124
H         13.32669        1.28136       -2.65709
H         14.54609       -4.64812       -2.06912
H         11.45422       -3.22613       -3.67588
H         11.11414       -3.63861       -1.98240
H         12.74735       -5.35027       -3.88943
H         11.05927       -5.60086       -3.40859
H         12.34177       -5.74086       -2.20046
H         19.58289       -2.52314        0.36772
H         16.14372       -1.37616        1.04934
H         16.77251       -0.23794       -0.15414
H         18.33108       -1.25941        2.23900
H         17.62280        0.34680        2.00234
H         18.95891       -0.17779        0.97293
H         20.87329       -4.76976       -1.75525
H         22.14080       -8.76906        1.19310
H         21.19766       -8.92527        2.64262
H         23.33256       -6.76473        2.08143
H         23.55216       -8.20273        3.08646
H         22.45626       -6.91850        3.60848
