176
F1.sdf
C          1.55907       -1.64198       -0.99942
C          1.08552       -0.88994       -2.09398
C         -0.28616       -0.55995       -2.22415
C         -1.23084       -1.00712       -1.24710
C         -0.75989       -1.77708       -0.17892
C          0.61358       -2.08985       -0.03310
C         -2.65873       -0.83316       -1.14567
C         -3.26194       -1.51330       -0.12060
S         -2.07685       -2.24243        0.83947
C          2.98924       -1.83059       -1.10263
C          3.56617       -1.21674       -2.18276
S          2.39807       -0.52790       -3.18176
C          1.03732       -2.94360        1.11528
C         -0.82036        0.19399       -3.39311
C         -4.67793       -1.69364        0.12175
C          0.38314       -4.03216        1.68610
C          1.05270       -4.59257        2.80629
C          2.26660       -3.98751        3.02985
S          2.46468       -2.61946        2.02809
C         -2.00509        0.00660       -4.10291
C         -2.22375        0.96835       -5.12929
C         -1.15293        1.81888       -5.27113
S         -0.00481        1.57571       -4.03409
S         -5.73224       -1.81136       -1.24248
C         -7.10690       -2.10203       -0.28254
C         -6.77323       -2.12213        1.05358
C         -5.38046       -1.86421        1.31595
C          3.31130       -4.36863        4.03324
C          4.24313       -5.45079        3.50171
C         -0.94392        2.88018       -6.30650
C         -0.33620        2.31234       -7.58285
C         -4.81495       -1.79733        2.65132
O         -3.88676       -1.05221        2.96892
O         -5.44480       -2.64755        3.52438
C         -4.88774       -2.68823        4.84112
C         -3.72232       -3.66153        4.87581
C        -10.15521       -3.06327       -2.27397
C        -10.88731       -2.55601       -1.18525
C        -12.30127       -2.64575       -1.13875
C        -13.01511       -3.23144       -2.21356
C        -12.28581       -3.71718       -3.30461
C        -10.87652       -3.65763       -3.34426
C        -14.43416       -3.44322       -2.42461
C        -14.76790       -3.96807       -3.65118
S        -13.36221       -4.35618       -4.49509
C         -8.73702       -2.84789       -2.07054
C         -8.41256       -2.30539       -0.85167
S         -9.81285       -1.82700       -0.03805
C        -10.16417       -4.19655       -4.54170
C        -13.08741       -2.09891        0.00600
C        -16.09095       -4.12953       -4.21674
C        -10.53140       -4.13058       -5.87949
C         -9.65796       -4.82831       -6.75839
C         -8.56615       -5.33502       -6.09538
S         -8.72296       -5.13586       -4.40743
C        -14.30658       -1.43225       -0.00583
C        -14.81652       -1.13642        1.29173
C        -13.92821       -1.48242        2.28260
S        -12.59145       -2.32370        1.64328
S        -17.29550       -2.95895       -3.81699
C        -18.43921       -3.62494       -4.88709
C        -17.93069       -4.73791       -5.51574
C        -16.58262       -5.05618       -5.13097
C         -7.38057       -6.03804       -6.68048
C         -6.31709       -5.05827       -7.15922
C        -14.04721       -1.25945        3.75893
C        -13.56162        0.12330        4.17237
C        -15.84374       -6.18152       -5.69248
O        -14.97902       -6.81273       -5.10303
O        -16.19732       -6.39516       -6.99544
C        -15.19424       -7.02265       -7.80196
C        -14.34302       -5.91989       -8.40616
C        -21.72399       -1.79000       -4.70320
C        -21.87703       -2.16645       -6.05104
C        -23.02098       -1.79276       -6.78919
C        -24.01344       -0.97511       -6.18984
C        -23.84858       -0.56091       -4.86551
C        -22.72949       -0.97466       -4.10836
C        -25.25670       -0.48048       -6.70702
C        -26.03751        0.22339       -5.82686
S        -25.15973        0.49201       -4.40683
C        -20.50450       -2.35761       -4.16709
C        -19.73268       -3.02854       -5.08311
S        -20.49717       -3.06107       -6.58813
C        -22.64932       -0.58186       -2.67294
C        -23.23522       -2.20216       -8.21212
C        -27.38489        0.69304       -6.07837
C        -23.67151       -0.48096       -1.73695
C        -23.23511       -0.08833       -0.44156
C        -21.86714        0.03313       -0.37954
S        -21.17191       -0.08201       -1.93434
C        -23.80930       -1.47178       -9.24645
C        -24.00275       -2.20947      -10.44619
C        -23.43642       -3.45866      -10.37121
S        -22.86476       -3.78444       -8.79555
S        -27.97610        2.12007       -5.31207
C        -29.45346        2.06151       -6.15105
C        -29.51791        0.98277       -6.99337
C        -28.34340        0.15391       -6.94099
C        -21.01917        0.28789        0.82875
C        -20.66845       -1.00417        1.55606
C        -23.31999       -4.47702      -11.46328
C        -24.47992       -5.45687      -11.44129
C        -28.25246       -1.09352       -7.70487
O        -28.87220       -1.27624       -8.74471
O        -27.52226       -2.04903       -7.06880
C        -27.74497       -3.40247       -7.47507
C        -28.85721       -3.92358       -6.58980
H         -3.25672       -0.26006       -1.85678
H          3.59955       -2.37309       -0.39620
H          4.61593       -1.18243       -2.43928
H         -0.56393       -4.41872        1.33561
H          0.67435       -5.42400        3.38770
H         -2.71824       -0.77687       -3.88852
H         -3.10794        1.00582       -5.75682
H         -7.49718       -2.29811        1.84291
H          2.81729       -4.73929        4.93978
H          3.90112       -3.49479        4.33083
H          3.69210       -6.35787        3.22876
H          4.97922       -5.72186        4.26559
H          4.78717       -5.11038        2.61379
H         -0.29776        3.67771       -5.92165
H         -1.90843        3.34458       -6.54452
H          0.65158        1.87676       -7.39533
H         -0.22024        3.10473       -8.32907
H         -0.96971        1.53023       -8.01569
H         -5.67798       -3.03285        5.51524
H         -4.58776       -1.69074        5.18010
H         -4.06031       -4.66932        4.62333
H         -3.25966       -3.67678        5.86883
H         -2.95661       -3.39051        4.14179
H        -15.19915       -3.17202       -1.71147
H         -7.96988       -3.14092       -2.77293
H        -11.42112       -3.63031       -6.23778
H         -9.81541       -4.92094       -7.82615
H        -14.84989       -1.18730       -0.90968
H        -15.77490       -0.66756        1.47892
H        -18.49383       -5.32107       -6.23618
H         -7.71119       -6.64867       -7.52929
H         -6.93931       -6.72586       -5.95078
H         -6.71162       -4.37896       -7.92319
H         -5.47420       -5.60324       -7.59666
H         -5.93395       -4.44787       -6.33433
H        -13.48083       -2.01943        4.30981
H        -15.09648       -1.37513        4.05397
H        -12.50399        0.26828        3.92636
H        -13.67697        0.25300        5.25366
H        -14.13328        0.91434        3.67491
H        -15.70261       -7.58277       -8.59272
H        -14.58407       -7.73344       -7.23452
H        -14.96305       -5.25707       -9.01991
H        -13.54072       -6.32878       -9.02570
H        -13.90076       -5.29395       -7.62484
H        -25.61706       -0.70182       -7.69907
H        -20.17835       -2.24952       -3.14231
H        -24.71230       -0.67940       -1.95563
H        -23.89459        0.04671        0.40712
H        -24.13820       -0.44627       -9.14770
H        -24.49649       -1.82158      -11.32943
H        -30.20675        2.81973       -5.98593
H        -30.38539        0.75648       -7.60770
H        -21.56327        0.94688        1.51550
H        -20.09695        0.81101        0.55318
H        -21.56770       -1.53918        1.88264
H        -20.06802       -0.78486        2.44623
H        -20.09039       -1.68101        0.91825
H        -22.37024       -5.01953      -11.38523
H        -23.30152       -3.96430      -12.43528
H        -24.50658       -6.01669      -10.50058
H        -24.38522       -6.17516      -12.26155
H        -25.43849       -4.93789      -11.55090
H        -26.82147       -3.96664       -7.30388
H        -27.98994       -3.48538       -8.54019
H        -28.55510       -3.87688       -5.54019
H        -29.12190       -4.95827       -6.84238
H        -29.74817       -3.29202       -6.68450
