136
H14.sdf
C          1.02732        0.94116       -0.06116
C          1.28816       -0.43440       -0.09369
C          0.25177       -1.38065       -0.02853
C         -1.09563       -0.95343       -0.00159
C         -1.36872        0.42536       -0.00312
C         -0.32177        1.37343       -0.02352
C         -2.31660       -1.70292        0.04211
C         -3.45788       -0.94361        0.00692
S         -3.08302        0.69729        0.06025
C          2.26478        1.67873       -0.08221
C          3.38515        0.89085       -0.17519
S          2.97805       -0.73851       -0.26918
C         -0.59108        2.83766       -0.01937
C          0.60290       -2.82625        0.05465
C         -4.79118       -1.46996        0.01365
C          4.75016        1.31260       -0.21933
C          5.79356        0.72014       -0.88715
C          7.00559        1.44600       -0.74012
C          6.85227        2.56000        0.06117
S          5.25635        2.68027        0.65519
S         -6.12462       -0.70912       -0.73816
C         -7.19702       -1.96212       -0.28271
C         -6.52663       -2.94868        0.41958
C         -5.15130       -2.67334        0.58057
C          0.05211        3.85247        0.67693
C         -0.42518        5.15796        0.35796
C         -1.49872        5.12458       -0.50329
S         -1.77367        3.53316       -1.06306
C          1.60916       -3.43450        0.79469
C          1.69403       -4.84096        0.60361
C          0.68261       -5.31574       -0.19978
S         -0.19313       -4.02035       -0.89756
C         -2.34459        6.24728       -1.03034
C         -3.49523        6.60217       -0.09712
C          0.34096       -6.73216       -0.55958
C         -0.56966       -7.39023        0.47061
C         -8.59939       -1.98072       -0.67877
C          7.85906        3.52295        0.46877
C          7.57312        4.89633        0.62827
C          8.60273        5.87802        1.03728
C          9.95712        5.47772        1.25730
C         10.17594        4.08747        1.11871
C          9.18884        3.16600        0.73087
C         -9.25727       -3.20476       -0.94954
C        -10.61685       -3.32037       -1.28573
C        -11.47699       -2.22034       -1.39035
C        -10.86405       -0.96780       -1.14482
C         -9.43341       -0.83603       -0.78359
N          6.41910        5.55430        0.44326
N          6.72068        6.80841        0.77110
N          7.99194        7.08435        1.11534
N        -11.40543        0.26113       -1.17576
N        -10.38240        1.04930       -0.83720
N         -9.19303        0.48016       -0.58993
C         11.01660        6.44748        1.54655
F         11.39147        3.57468        1.37895
F          9.55672        1.87835        0.61062
C          5.68376        7.82099        0.69181
C          4.87298        7.93871        1.97185
F        -11.08352       -4.55512       -1.53625
F         -8.55553       -4.35139       -0.89575
C        -10.59762        2.47927       -0.71882
C        -10.35097        3.21468       -2.02453
C        -12.88297       -2.28896       -1.75243
C         10.93348        7.66120        2.18912
C         12.18061        8.35500        2.21166
C         13.22077        7.69065        1.56884
S         12.63660        6.16724        1.01834
S        -13.91709       -3.44368       -1.03148
C        -15.30016       -2.86722       -1.88027
C        -14.93088       -1.87457       -2.76966
C        -13.57344       -1.48776       -2.63642
C         14.60398        8.05463        1.29774
C         15.00552        9.31616        0.99510
C         13.88376       10.34063        0.94493
C         16.42853        9.64953        0.77164
O         16.62617       10.98702        0.62119
O         17.31357        8.80444        0.74138
C         17.97204       11.40577        0.29030
C         18.80530       11.67706        1.53191
C        -16.56591       -3.46365       -1.61181
C        -17.76113       -2.83384       -1.63679
C        -18.01046       -1.39431       -1.88683
C        -18.92948       -3.61524       -1.42734
O        -17.04840       -0.61106       -1.32717
O        -18.98916       -0.97602       -2.47964
C        -17.16736        0.80642       -1.54208
C        -17.96597        1.41266       -0.40779
N         12.95317       11.19051        0.90331
N        -19.85985       -4.29873       -1.23919
Cl         0.29931        6.56618        1.00835
Cl         2.92306       -5.77660        1.33939
H         -2.36762       -2.78147        0.06610
H          2.33615        2.75780       -0.05481
H          5.70194       -0.19231       -1.46909
H          7.94355        1.15668       -1.19832
H         -6.99446       -3.85211        0.79122
H         -4.46006       -3.33109        1.09308
H          0.86839        3.67810        1.36732
H          2.29239       -2.88929        1.43448
H         -2.75886        5.98022       -2.01014
H         -1.72339        7.13506       -1.19266
H         -4.15387        5.74425        0.07699
H         -4.09915        7.40298       -0.53801
H         -3.13302        6.95163        0.87542
H          1.25998       -7.32152       -0.65394
H         -0.15014       -6.76767       -1.53884
H         -0.09587       -7.44005        1.45701
H         -0.80527       -8.41410        0.16030
H         -1.51497       -6.84736        0.57924
H          5.01859        7.53672       -0.13404
H          6.15432        8.77187        0.42780
H          4.40081        6.98558        2.23608
H          4.07816        8.68246        1.85012
H          5.50336        8.24490        2.81212
H         -9.95397        2.85732        0.08016
H        -11.63932        2.62401       -0.40549
H         -9.30810        3.11636       -2.34129
H        -10.57578        4.28005       -1.90851
H        -10.98401        2.82192       -2.82787
H         10.01391        8.05793        2.60857
H         12.25495        9.33592        2.66542
H        -15.61908       -1.38443       -3.44780
H        -13.12069       -0.66519       -3.17725
H         15.33617        7.24945        1.31565
H         17.88245       12.33182       -0.28748
H         18.46698       10.67437       -0.35860
H         18.32067       12.41902        2.17396
H         19.79642       12.05444        1.25581
H         18.93855       10.76881        2.12744
H        -16.54979       -4.52583       -1.36732
H        -17.60797        1.03796       -2.51863
H        -16.15144        1.21671       -1.54391
H        -19.01160        1.09370       -0.46172
H        -17.93171        2.50500       -0.44447
H        -17.57720        1.07451        0.55791
