332
J47.sdf
C         -1.80073        6.73809        5.78983
C         -2.42868        6.34066        6.99881
C         -1.64412        5.70443        7.96811
C         -0.28843        5.38546        7.71882
C          0.33337        5.75493        6.49466
C         -0.42785        6.47577        5.56542
C         -3.80134        6.45250        7.45273
C         -4.00972        6.01160        8.73240
S         -2.57622        5.45240        9.42029
C          1.66692        5.51642        5.97354
C          1.92807        6.11877        4.76927
S          0.57376        6.97525        4.23980
C         -2.62290        7.46757        4.78841
C          0.48542        4.66182        8.75937
C          0.05568        3.66251        9.62034
C          1.08057        3.24209       10.51083
C          2.26868        3.84244       10.25786
S          2.11554        5.12104        9.10706
C         -3.62798        8.39963        5.01029
C         -4.22301        8.84818        3.79967
C         -3.61230        8.34145        2.70017
S         -2.47242        7.10884        3.10404
C          3.15010        6.11162        4.01343
S          4.68816        6.09521        4.76956
C          5.51960        6.19311        3.27905
C          4.62405        6.18516        2.22062
C          3.27021        6.13109        2.63991
C          6.98030        6.20099        3.19691
C          7.64230        5.58187        2.11457
C          9.03453        5.59575        1.92718
C          9.93044        6.24320        2.79064
C          9.29441        6.88999        3.88484
C          7.84025        6.87648        4.10651
N          9.86860        7.63049        4.84238
N          8.84032        7.96612        5.61315
N          7.61806        7.59562        5.24367
C         11.35617        6.30098        2.56645
C          9.11920        8.74174        6.81062
C          9.43140        7.87575        8.02007
C         12.02840        6.35105        1.35811
C         13.42973        6.47738        1.52285
C         13.80201        6.51705        2.84978
S         12.45764        6.27126        3.87600
F          6.92134        4.93141        1.18431
F          9.51245        4.95167        0.84787
S         -5.54019        9.89864        3.37493
C         -5.11130        9.80160        1.70037
C         -4.06075        8.92727        1.48874
Si        -6.15041       10.81478        0.50281
C         -6.76674       12.34947        1.40082
S          1.18566        2.13852       11.84562
C          2.90208        2.34896       11.91372
C          3.34254        3.29387       11.00521
Si         3.81570        1.34046       13.20996
C          2.87907       -0.26962       13.47883
C         -5.08927       11.25384       -0.98732
C         -7.60052        9.71875        0.00785
C         -5.69652       13.28506        1.94530
C         -8.56054       10.36600       -0.98390
C         -4.57881       10.10594       -1.84964
C          5.56935        1.04034       12.60257
C          3.80250        2.37806       14.78175
C          4.51762        1.72897       15.96086
C          6.46392        2.25822       12.40723
C          2.72310       -1.16833       12.25993
C         17.56946        8.05368        5.88066
C         16.85131        7.49771        4.79677
C         17.57339        6.99842        3.70659
C         18.97514        7.13340        3.63585
C         19.69408        7.72706        4.70542
C         18.97753        8.13446        5.83958
C         15.43493        7.37112        4.55926
C         15.11050        6.73724        3.39036
S         16.50201        6.22074        2.58892
C         21.09883        8.02774        4.86904
C         21.44456        8.51541        6.10386
S         20.06646        8.66324        7.07146
C         16.78496        8.52545        7.05319
C         19.68793        6.67326        2.41277
C         19.27338        6.74772        1.09075
C         20.24307        6.22398        0.19043
C         21.37924        5.81994        0.81418
S         21.19239        5.82538        2.53609
C         15.63874        7.96281        7.59816
C         15.09728        8.75421        8.64848
C         15.88610        9.81014        8.96443
S         17.18640       10.00833        7.84355
C         22.75769        8.83115        6.60381
S         24.18306        8.55030        5.68853
C         25.20619        9.05001        6.95939
C         24.46082        9.47395        8.04587
C         23.06559        9.36241        7.83913
C         26.65670        9.09389        6.82332
C         27.40031       10.10931        7.47153
C         28.79759       10.22524        7.41949
C         29.61128        9.32735        6.72058
C         28.91855        8.28519        6.06220
C         27.44734        8.16095        6.09539
N         29.41830        7.27687        5.33245
N         28.32521        6.62465        4.94162
N         27.13232        7.06675        5.36045
C         31.05511        9.39528        6.61576
C         28.48403        5.45909        4.08301
C         28.49906        5.81718        2.60604
C         31.85360        9.03393        5.54331
C         33.23485        9.20980        5.82779
C         33.44715        9.71916        7.08816
S         31.98063        9.91902        7.94206
F         26.75121       11.05494        8.17287
F         29.34518       11.26726        8.06542
S         13.66629        8.69936        9.63089
C         14.25796       10.00138       10.60635
C         15.45283       10.50439       10.12411
Si        13.17923       10.51914       12.05793
C         12.24561        9.00446       12.67395
S         20.32806        5.99726       -1.52772
C         21.98635        5.53081       -1.40429
C         22.42544        5.48149       -0.09208
Si        22.84814        5.11187       -3.01974
C         22.07246        6.12663       -4.39322
C         14.28235       11.25163       13.39276
C         11.97439       11.80059       11.38417
C         13.09881        7.84148       13.16096
C         11.01306       12.36010       12.42665
C         15.04685       12.52485       13.05246
C         24.67973        5.47896       -2.82438
C         22.56472        3.26897       -3.28578
C         23.09284        2.35799       -2.18618
C         25.06170        6.91499       -2.49753
C         22.68068        5.90334       -5.76884
C         37.05682       10.72420       10.50676
C         36.34170       10.59429        9.29225
C         36.96989       10.99607        8.10973
C         38.23475       11.61348        8.12113
C         38.94629       11.77434        9.33921
C         38.35770       11.27618       10.51039
C         35.00720       10.12361        9.01613
C         34.69240       10.08869        7.68659
S         36.00006       10.57093        6.74221
C         40.22536       12.38093        9.63061
C         40.62418       12.25261       10.93567
S         39.46587       11.41371       11.83014
C         36.42815       10.19698       11.75010
C         38.81437       12.06659        6.83113
C         38.16138       12.63067        5.74350
C         39.02670       12.80407        4.62985
C         40.31598       12.50820        4.92241
S         40.48473       11.79963        6.48811
C         35.63350        9.06872       11.90138
C         35.25880        8.85060       13.25773
C         35.79444        9.76510       14.10685
S         36.54042       11.06828       13.24249
C         41.84347       12.69725       11.54550
S         43.33884       12.69216       10.71156
C         44.20565       13.20389       12.09433
C         43.34179       13.43041       13.15384
C         41.99060       13.14737       12.83952
C         45.64639       13.43683       12.07302
C         46.22442       14.47740       12.84252
C         47.59682       14.74810       12.92030
C         48.56473       14.01743       12.22642
C         48.04608       12.96050       11.43928
C         46.59569       12.66262       11.34675
N         48.70524       12.08214       10.67385
N         47.73299       11.33171       10.15933
N         46.46296       11.59667       10.51610
C         50.00547       14.26051       12.25057
C         48.09257       10.25018        9.23651
C         48.20156       10.74152        7.80514
C         50.93610       14.06524       11.24176
C         52.25705       14.40672       11.62982
C         52.30652       14.86807       12.92771
S         50.77499       14.84070       13.67225
F         45.41556       15.27397       13.57031
F         47.96558       15.79268       13.68165
S         34.30087        7.66964       14.09611
C         34.80555        8.31047       15.61886
C         35.60417        9.43348       15.48001
Si        34.13921        7.44231       17.14710
C         33.86538        5.63188       16.73880
S         38.83366       13.29770        2.97761
C         40.54825       13.27372        2.74693
C         41.21482       12.83068        3.87418
Si        41.16952       13.77875        1.04734
C         39.96535       15.02993        0.32205
C         35.37651        7.66554       18.54329
C         32.51489        8.30308       17.55780
C         33.33536        4.79317       17.89196
C         32.61476        9.79691       17.83431
C         36.77445        7.10887       18.31764
C         42.89733       14.49443        1.23813
C         41.18689       12.20709        0.00990
C         41.68289       12.41004       -1.41701
C         43.99065       13.56597        1.75220
C         39.77321       16.31585        1.11397
H         -4.61905        6.85794        6.87432
H         -4.93447        6.01053        9.28971
H          2.43141        4.93742        6.47290
H         -0.94286        3.24870        9.64941
H         -3.95064        8.74477        5.98365
H          4.91875        6.20860        1.17791
H          2.42700        6.11610        1.95895
H          8.27310        9.41335        6.99861
H          9.99341        9.37526        6.59020
H          8.57631        7.24945        8.28099
H          9.68378        8.49880        8.88309
H         10.28511        7.21316        7.82712
H         11.53913        6.33493        0.39718
H         14.13014        6.58424        0.70420
H         -3.62547        8.67374        0.53531
H         -7.41993       12.03585        2.22381
H         -7.40339       12.91424        0.71015
H          4.36057        3.62351       10.87149
H          1.88556       -0.03535       13.87944
H          3.39392       -0.83481       14.26406
H         -4.23590       11.85019       -0.64713
H         -5.68666       11.90988       -1.63254
H         -8.15719        9.44341        0.91090
H         -7.21467        8.78857       -0.42443
H         -5.03880       12.78366        2.66185
H         -6.16488       14.12843        2.46211
H         -5.06996       13.68324        1.14103
H         -8.98961       11.28937       -0.57885
H         -9.38472        9.68530       -1.21562
H         -8.05420       10.61610       -1.92291
H         -3.95197        9.41352       -1.28845
H         -3.96017       10.49038       -2.66588
H         -5.40006        9.52761       -2.28413
H          5.52347        0.47873       11.66316
H          6.06034        0.38379       13.33121
H          2.76211        2.57620       15.06408
H          4.26587        3.34914       14.57353
H          4.06651        0.76407       16.21816
H          4.46015        2.37346       16.84267
H          5.57598        1.55474       15.73711
H          6.05913        2.95699       11.67585
H          7.44468        1.95200       12.03165
H          6.61028        2.80876       13.34172
H          2.19382       -0.66636       11.44414
H          2.14850       -2.06125       12.52483
H          3.69629       -1.48996       11.87624
H         14.66683        7.75611        5.21964
H         21.85171        7.84909        4.11557
H         18.33115        7.15673        0.75158
H         15.16644        7.05373        7.24927
H         24.89060        9.86333        8.96121
H         22.32883        9.64345        8.58176
H         27.67988        4.75528        4.31506
H         29.43437        4.98266        4.35416
H         27.54731        6.26007        2.29819
H         28.67289        4.92213        1.99874
H         29.29347        6.53680        2.37551
H         31.48218        8.64734        4.61350
H         34.02746        8.98935        5.11981
H         16.00744       11.33298       10.53554
H         11.58222        8.65175       11.87524
H         11.58896        9.32046       13.49262
H         23.42277        5.19268        0.21626
H         22.14975        7.18962       -4.13730
H         21.00343        5.89165       -4.45401
H         14.99438       10.48579       13.71887
H         13.64650       11.47059       14.25947
H         11.39259       11.34505       10.57465
H         12.54192       12.62736       10.94220
H         13.76459        7.46460       12.37853
H         12.45703        7.01246       13.47496
H         13.71986        8.13375       14.01351
H         10.40614       11.56598       12.87598
H         10.33390       13.08446       11.96842
H         11.55291       12.86639       13.23471
H         15.72407       12.38842       12.20980
H         15.66582       12.83353       13.90007
H         14.37194       13.34917       12.80196
H         25.16764        5.20081       -3.76621
H         25.10065        4.82015       -2.05635
H         23.04385        2.98955       -4.23125
H         21.49081        3.09157       -3.41378
H         24.17241        2.48108       -2.04889
H         22.90407        1.31012       -2.44078
H         22.60541        2.56203       -1.22720
H         24.65273        7.61905       -3.22946
H         26.15193        7.02109       -2.50304
H         24.70394        7.20862       -1.50538
H         23.74620        6.15603       -5.77995
H         22.17551        6.53128       -6.50997
H         22.57653        4.85949       -6.08433
H         34.29980        9.81530        9.77190
H         40.85414       12.87795        8.90547
H         37.10516       12.86171        5.69770
H         35.33884        8.40149       11.10240
H         43.65758       13.79036       14.12589
H         41.16977       13.25600       13.53890
H         47.37680        9.45186        9.35279
H         49.07760        9.88865        9.57091
H         47.23265       11.09670        7.43917
H         48.53646        9.92505        7.15765
H         48.91865       11.56350        7.70575
H         50.67721       13.67956       10.26052
H         53.12568       14.32434       10.98799
H         53.16893       15.20682       13.47562
H         36.01342       10.00622       16.30309
H         34.80962        5.19939       16.38852
H         33.15321        5.55450       15.90921
H         42.28038       12.70181        3.97701
H         38.99155       14.54370        0.18868
H         40.31158       15.28993       -0.68471
H         34.95408        7.18008       19.43127
H         35.45765        8.73080       18.78756
H         32.08957        7.81224       18.44091
H         31.80935        8.13646       16.73593
H         34.02501        4.80253       18.74258
H         33.20506        3.75421       17.57256
H         32.36442        5.16336       18.23887
H         33.28649       10.00421       18.67417
H         31.62897       10.20123       18.08517
H         32.98778       10.34249       16.96135
H         36.74941        6.04580       18.05727
H         37.37039        7.21640       19.23055
H         37.29386        7.64408       17.51628
H         42.84201       15.37312        1.89011
H         43.21104       14.86011        0.25291
H         40.17138       11.79597       -0.02347
H         41.81675       11.45861        0.50395
H         41.06116       13.13425       -1.95538
H         41.65412       11.46598       -1.96810
H         42.71449       12.77911       -1.43053
H         43.76858       13.17167        2.74311
H         44.93710       14.10744        1.84077
H         44.14432       12.71155        1.08580
H         39.40584       16.12402        2.12679
H         39.04055       16.95689        0.61401
H         40.71126       16.87293        1.20079
