224
J50.sdf
C         -1.65515        6.21486        6.22473
C         -2.46521        7.37672        6.35551
C         -1.94548        8.60007        5.91175
C         -0.61394        8.70211        5.43966
C          0.21007        7.54669        5.33869
C         -0.34741        6.30962        5.70279
C         -3.79357        7.56153        6.90517
C         -4.28332        8.83270        6.77753
S         -3.17327        9.83606        6.00246
C          1.57986        7.37258        4.91559
C          1.99080        6.06373        4.84578
S          0.77050        5.03288        5.37427
C         -2.27508        4.91117        6.57438
C         -0.07736       10.04580        5.10289
C         -0.31573       11.25193        5.74747
C          0.33381       12.36339        5.14922
C          1.13792       11.98379        4.10074
S          0.92929       10.33037        3.73445
C         -3.58162        4.50012        6.36425
C         -3.86436        3.19797        6.85660
C         -2.73905        2.58504        7.35632
S         -1.42036        3.66612        7.40609
C          3.25261        5.55850        4.38911
S          4.68035        6.49599        4.44975
C          5.62939        5.26272        3.72778
C          4.86412        4.14542        3.46598
C          3.50676        4.31546        3.84598
C          7.03753        5.50655        3.44441
C          7.85356        6.35347        4.22532
C          9.21252        6.60305        3.93776
C          9.89189        6.00715        2.85422
C          9.10515        5.15076        2.04063
C          7.68357        4.89552        2.33696
N          9.43093        4.44646        0.93725
N          8.28435        3.83478        0.62418
N          7.21524        4.04358        1.40049
C         11.29777        6.22439        2.56479
C          8.21571        2.92741       -0.50594
C          7.81013        3.61970       -1.79523
C         11.93911        6.27843        1.34687
C         13.33711        6.48587        1.46431
C         13.73655        6.60827        2.77699
S         12.41674        6.42756        3.84628
C          2.05204       12.84002        3.28090
C         -2.59676        1.18659        7.87194
C         -2.27454        0.19474        6.76207
C          3.43379       12.97321        3.90729
C         17.58511        8.28367        5.63607
C         16.84068        7.69789        4.58614
C         17.54031        7.18074        3.48951
C         18.93274        7.30784        3.36687
C         19.68282        7.93191        4.41107
C         18.99062        8.37216        5.55004
C         15.41959        7.55024        4.39780
C         15.06288        6.86650        3.25827
S         16.43829        6.34394        2.43567
C         21.09495        8.21275        4.54466
C         21.45642        8.72247        5.76570
S         20.10040        8.95273        6.73719
C         16.84639        8.71546        6.85104
C         19.59868        6.83016        2.13625
C         19.13796        6.88480        0.82755
C         20.00532        6.26949       -0.11500
C         21.16960        5.83292        0.47132
S         21.10861        6.00474        2.16617
C         15.75412        8.10355        7.45182
C         15.28698        8.77289        8.61377
C         16.08027        9.84826        8.93926
S         17.21989       10.16254        7.70936
C         22.77207        9.02594        6.24771
S         24.05846        9.40396        5.19635
C         25.17895        9.57361        6.48586
C         24.56714        9.35561        7.69980
C         23.18691        9.03124        7.57433
C         26.56696        9.88247        6.19809
C         26.98615       10.65304        5.09100
C         28.33842       10.91676        4.79827
C         29.40704       10.45190        5.59634
C         29.03012        9.68255        6.72726
C         27.61573        9.40282        7.03080
N         29.78209        9.09703        7.68154
N         28.86766        8.53131        8.47619
N         27.57575        8.66124        8.15695
C         30.80655       10.73401        5.31863
C         29.27012        7.74962        9.63057
C         29.38552        8.58018       10.89673
C         31.92109        9.94030        5.53287
C         33.13436       10.57688        5.14837
C         32.91673       11.83884        4.64072
S         31.25206       12.24617        4.65616
C         22.36080        5.20705       -0.18404
C         16.00253       10.72852       10.14714
C         16.80933       10.17310       11.31420
C         23.35477        6.24520       -0.68612
C         35.28678       16.16075        3.41876
C         34.97182       14.78730        3.54932
C         35.84803       13.84568        3.00106
C         36.97085       14.24769        2.24337
C         37.27290       15.62646        2.08970
C         36.43849       16.56643        2.71687
C         33.83501       14.13026        4.14706
C         33.89697       12.76166        4.13812
S         35.34842       12.24392        3.44558
C         38.31942       16.30622        1.35971
C         38.34331       17.66554        1.53293
S         37.06115       18.16582        2.50522
C         34.38753       17.13080        4.09460
C         37.78557       13.21204        1.55346
C         37.36534       12.03198        0.95314
C         38.40859       11.30168        0.32331
C         39.61265       11.96176        0.39786
S         39.50397       13.30674        1.44207
C         33.75726       16.99888        5.32516
C         32.86825       18.06343        5.63087
C         32.90872       19.05462        4.67908
S         33.89053       18.60583        3.35846
C         39.30976       18.59744        1.02805
S         40.94840       18.16205        0.84489
C         41.39716       19.72940        0.31543
C         40.29498       20.56140        0.26022
C         39.09368       19.90394        0.67397
C         42.79271       20.02325        0.02043
C         43.70639       19.06724       -0.47656
C         45.06666       19.35001       -0.72579
C         45.64360       20.62171       -0.52150
C         44.75805       21.61302       -0.02103
C         43.33616       21.31637        0.24376
N         44.97304       22.90759        0.29136
N         43.77132       23.31829        0.70853
N         42.75796       22.44603        0.70306
C         47.04304       20.93187       -0.80053
C         43.56003       24.69721        1.11212
C         43.78185       24.91939        2.59822
C         47.88979       21.80407       -0.14231
C         49.18634       21.86061       -0.72843
C         49.29737       21.01692       -1.80798
S         47.84967       20.17040       -2.11263
C         40.91340       11.59659       -0.24758
C         32.18211       20.36395        4.67712
C         32.95626       21.44962        5.41137
C         41.03513       12.16215       -1.65777
H         -4.38800        6.78347        7.36462
H         -5.24892        9.20459        7.09065
H          2.23141        8.17741        4.60738
H         -0.95762       11.35065        6.61204
H          0.23300       13.38300        5.50048
H         -4.33074        5.11936        5.88750
H         -4.83902        2.72983        6.80924
H          5.25327        3.24416        3.01169
H          2.74879        3.55663        3.69673
H          7.43680        6.84789        5.10365
H          9.74052        7.29712        4.59309
H          7.49937        2.13802       -0.25403
H          9.20082        2.46051       -0.61749
H          6.82363        4.08558       -1.70312
H          7.76750        2.89471       -2.61569
H          8.52639        4.40079       -2.07054
H         11.42041        6.18104        0.39748
H         14.00738        6.56096        0.61805
H          1.60790       13.83727        3.17986
H          2.15158       12.43536        2.26756
H         -3.53313        0.88874        8.35804
H         -1.81502        1.13792        8.63840
H         -3.05591        0.18262        5.99426
H         -2.19278       -0.81590        7.17562
H         -1.32551        0.43558        6.27077
H          3.38123       13.41460        4.90869
H          4.06422       13.61952        3.28749
H          3.93117       12.00115        3.99506
H         14.67230        7.94187        5.07893
H         21.83719        7.99352        3.79016
H         18.18633        7.31718        0.54367
H         19.78484        6.17676       -1.17105
H         15.29115        7.20268        7.07205
H         14.43868        8.44543        9.20130
H         25.07819        9.40075        8.65524
H         22.54526        8.81733        8.40791
H         26.24173       11.07970        4.41673
H         28.54894       11.50269        3.90059
H         30.23043        7.27816        9.39405
H         28.53105        6.95200        9.76400
H         30.13375        9.37205       10.78679
H         29.68469        7.94575       11.73821
H         28.43110        9.05268       11.15124
H         31.87596        8.95058        5.95998
H         34.11502       10.12037        5.25474
H         22.02189        4.59563       -1.02828
H         22.86813        4.52897        0.51169
H         14.95389       10.82679       10.45066
H         16.35849       11.73759        9.91049
H         16.45705        9.17865       11.60965
H         16.71693       10.83482       12.18182
H         17.87300       10.09115       11.06505
H         22.89648        6.92015       -1.41720
H         24.20111        5.74730       -1.17073
H         23.74772        6.85587        0.13411
H         32.99290       14.65028        4.58602
H         39.06620       15.81319        0.75238
H         36.33811       11.69504        0.94396
H         38.26106       10.36389       -0.19784
H         33.88628       16.13940        5.97091
H         32.25004       18.10134        6.51925
H         40.34191       21.59838       -0.04022
H         38.13250       20.39841        0.71241
H         43.36550       18.05285       -0.68632
H         45.68642       18.52750       -1.08460
H         42.53691       24.97236        0.83330
H         44.24426       25.32180        0.52727
H         43.09711       24.31068        3.19782
H         43.61189       25.97099        2.85209
H         44.80493       24.66107        2.89080
H         47.58719       22.39115        0.71759
H         49.98987       22.49278       -0.37592
H         50.15979       20.85806       -2.44010
H         40.99475       10.50435       -0.29268
H         41.75577       11.95176        0.35657
H         31.20713       20.22932        5.16070
H         31.98034       20.69140        3.65131
H         33.13778       21.17657        6.45672
H         32.38830       22.38559        5.40055
H         33.92699       21.63795        4.94044
H         40.23113       11.80011       -2.30813
H         41.98896       11.85861       -2.10185
H         40.99796       13.25712       -1.65718
