224
J52-2F.sdf
C          7.33138       -1.04146        8.32713
C          7.54877       -1.96841        9.38865
C          8.83977       -2.49283        9.56016
C          9.89379       -2.10755        8.71420
C          9.66226       -1.23179        7.62340
C          8.37056       -0.73596        7.41069
C          6.65796       -2.51773       10.39208
C          7.24433       -3.44119       11.21937
S          8.89552       -3.58855       10.90621
C         10.55278       -0.75802        6.60454
C          9.94678       -0.14503        5.53734
S          8.32537        0.17206        5.90277
C          5.98983       -0.42576        8.18728
C         11.23362       -2.72843        8.86388
C         11.58914       -4.05637        9.06441
C         12.98481       -4.26031        8.95406
C         13.67113       -3.12565        8.60917
S         12.66974       -1.75991        8.84629
C          4.72387       -0.98380        8.30767
C          4.14426        1.21251        7.77823
S          5.84462        1.27871        7.93374
C         10.61970        0.02091        4.27037
S         10.30673        1.23207        3.10664
C         11.36355        0.48995        1.94962
C         12.03744       -0.56691        2.50667
C         11.59850       -0.83592        3.81437
C         11.26253        0.81156        0.54363
C         11.31242       -0.13232       -0.49825
C         10.40604       -0.06566       -1.58604
C          9.20496        0.65516       -1.43284
C          9.74249        1.92213       -1.06424
C         10.71905        1.99586        0.04009
N          9.91611        3.06507       -1.78085
N         10.84395        3.74273       -1.05793
N         11.14826        3.25729        0.16230
C          8.26266       -0.07815       -0.44039
C         11.73887        4.72659       -1.66278
C         13.10514        4.16492       -2.07047
C          8.34732       -1.41310       -0.04126
C          7.35118       -1.81510        0.89927
C          6.43327       -0.81779        1.18494
S          6.93591        0.65693        0.39041
C         15.07406       -2.97992        8.11545
C          3.37813        2.42000        7.34249
C          3.11904        3.38491        8.48743
C         15.15599       -3.28215        6.61856
F         12.15579       -1.17248       -0.42929
F         10.52328       -0.94702       -2.59323
C          3.68935       -0.03789        8.10480
F          2.42263       -0.34582        8.17544
F         13.54127       -5.43747        9.04826
C          1.63367       -0.03432        2.89714
C          2.91773       -0.62288        2.66977
C          3.07446       -1.99539        2.94094
C          1.96869       -2.79001        3.35140
C          0.66300       -2.23522        3.36300
C          0.53192       -0.84856        3.25665
C          4.16850       -0.05403        2.16148
C          5.18038       -0.96885        1.94436
S          4.73558       -2.44784        2.70305
C         -0.64296       -2.86296        3.48533
C         -1.56769       -2.00059        4.01896
S         -1.08237       -0.40247        3.71556
C          1.47411        1.44626        2.80074
C          2.10183       -4.21003        3.80092
C          2.90776       -5.25239        3.36858
C          2.52380       -6.50210        3.93758
C          1.46176       -6.42744        4.79779
S          1.17223       -4.78405        5.17388
C          2.32362        2.45034        3.24490
C          0.52574        3.75949        2.51287
S          0.09968        2.17679        2.02559
C         -2.74786       -2.30842        4.78402
S         -3.56149       -3.81002        4.70053
C         -4.74370       -3.32010        5.85145
C         -4.42779       -2.09651        6.40582
C         -3.32281       -1.50029        5.74693
C         -6.01340       -4.02755        5.94974
C         -7.24619       -3.39573        6.16107
C         -8.40195       -3.78765        5.44076
C         -8.24279       -4.47431        4.21889
C         -7.45343       -5.57343        4.66792
C         -6.23509       -5.30869        5.45914
N         -7.78016       -6.86772        4.91580
N         -6.74784       -7.29511        5.69581
N         -5.68590       -6.48360        5.80449
C         -7.64981       -3.52439        3.14486
C         -6.89909       -8.37965        6.66407
C         -7.14527       -7.89641        8.09874
C         -7.59606       -2.12871        3.18312
C         -6.98749       -1.51980        2.03364
C         -6.63130       -2.44193        1.06454
S         -6.90274       -4.05496        1.68100
C          0.66420       -7.52918        5.43442
C         -0.37685        4.93491        2.26398
C         -1.17775        5.34050        3.49667
C         -0.50149       -7.98646        4.55666
F         -7.34433       -2.33384        6.97593
F         -9.58446       -3.21994        5.72354
C          1.78274        3.74722        3.05981
F          2.41488        4.83347        3.41456
F          3.08944       -7.62894        3.60074
C         -5.43494       -3.08011       -3.90888
C         -5.68467       -2.47331       -2.64219
C         -5.78757       -1.07483       -2.59366
C         -5.73334       -0.29798       -3.79229
C         -5.63974       -0.93419       -5.06321
C         -5.44433       -2.31750       -5.10063
C         -5.88746       -3.05781       -1.31768
C         -6.16828       -2.16335       -0.30611
S         -5.92408       -0.58097       -0.91903
C         -5.68914       -0.39824       -6.41317
C         -5.32711       -1.28681       -7.40061
S         -5.19135       -2.84330       -6.74512
C         -5.12588       -4.52701       -3.99063
C         -5.66917        1.19156       -3.78729
C         -4.94124        2.04032       -4.62300
C         -5.05425        3.40048       -4.26124
C         -5.78447        3.59025       -3.12226
S         -6.60641        2.15088       -2.70295
C         -5.57881       -5.48888       -4.88177
C         -4.04409       -6.75969       -3.66647
S         -3.92824       -5.21571       -2.94559
C         -5.06990       -0.99417       -8.79366
S         -4.33696        0.48997       -9.25652
C         -4.52843        0.18207      -10.93205
C         -4.96235       -1.11424      -11.13172
C         -5.31233       -1.77018       -9.90892
C         -4.47413        1.28165      -11.88442
C         -5.27941        1.34718      -13.03937
C         -5.88748        2.58178      -13.42732
C         -6.11644        3.57600      -12.46116
C         -4.79659        3.75099      -11.96965
C         -3.98318        2.56593      -11.60437
N         -3.96734        4.80849      -12.02507
N         -2.77462        4.25457      -11.69303
N         -2.77665        3.00294      -11.21412
C         -7.16833        3.13858      -11.44379
C         -1.52493        4.87605      -12.12105
C         -0.92187        4.22610      -13.36946
C         -8.12371        2.13069      -11.57566
C         -8.91811        1.92035      -10.40702
C         -8.56882        2.79155       -9.40384
S         -7.27812        3.82653       -9.86852
C         -5.89660        4.81477       -2.27652
C         -3.19428       -7.89727       -3.19649
C         -3.93767       -8.81713       -2.23949
C         -4.78532        4.83902       -1.23060
F         -5.55486        0.26054      -13.75212
F         -6.36598        2.73235      -14.66179
C         -4.94008       -6.73726       -4.70250
F         -5.17236       -7.76886       -5.46916
F         -4.42456        4.35938       -4.88570
H          5.61040       -2.27172       10.49472
H          6.78275       -4.01286       12.01290
H         11.60525       -0.99208        6.56213
H         10.88674       -4.86503        9.21438
H          4.53276       -2.02674        8.52153
H         12.72290       -1.20446        1.95471
H         11.94771       -1.69688        4.38987
H         11.88062        5.51740       -0.92032
H         11.23720        5.15936       -2.53379
H         13.57313        3.58632       -1.26623
H         13.79311        4.98057       -2.32912
H         13.02870        3.51273       -2.94653
H          9.09844       -2.10372       -0.40262
H          7.28397       -2.82603        1.28663
H         15.73366       -3.66235        8.66028
H         15.44419       -1.96386        8.29136
H          2.42297        2.11644        6.89727
H          3.93211        2.93752        6.54851
H          2.38846        2.96978        9.18852
H          2.72202        4.32877        8.10058
H          4.03377        3.60790        9.04659
H         14.88186       -4.32031        6.40604
H         16.17655       -3.12154        6.25296
H         14.48540       -2.63699        6.03972
H          4.26299        0.97933        1.85468
H         -0.80150       -3.93494        3.45194
H          3.67613       -5.16352        2.62007
H          3.28235        2.26980        3.71191
H         -5.02633       -1.60326        7.15068
H         -2.96617       -0.50631        5.98224
H         -5.96338       -8.94887        6.63468
H         -7.71241       -9.03668        6.34063
H         -6.45158       -7.10147        8.39568
H         -7.01833       -8.72226        8.80926
H         -8.16233       -7.50902        8.22191
H         -7.98088       -1.53064        4.00147
H         -6.89630       -0.44757        1.91988
H          0.26568       -7.21051        6.40535
H          1.31338       -8.39112        5.63027
H         -1.07224        4.73130        1.44070
H          0.23549        5.78863        1.94831
H         -1.99089        4.63291        3.69280
H         -1.63263        6.32746        3.34322
H         -0.55546        5.39671        4.39612
H         -1.16050       -7.15310        4.28668
H         -1.10512       -8.73115        5.08448
H         -0.14530       -8.44686        3.62754
H         -5.90137       -4.12471       -1.14273
H         -5.90255        0.63871       -6.64266
H         -4.31145        1.71337       -5.44049
H         -6.29965       -5.30535       -5.66807
H         -5.15107       -1.53725      -12.11239
H         -5.77808       -2.75189       -9.87104
H         -0.83400        4.78723      -11.28118
H         -1.71416        5.93889      -12.30814
H         -0.78899        3.14698      -13.24158
H          0.05891        4.65958      -13.58312
H         -1.55640        4.37924      -14.24892
H         -8.24791        1.52408      -12.46643
H         -9.69857        1.17364      -10.31476
H         -9.01735        2.86214       -8.42005
H         -6.87073        4.85313       -1.77566
H         -5.82325        5.71153       -2.90309
H         -2.28524       -7.52616       -2.70851
H         -2.86432       -8.47702       -4.06676
H         -4.17150       -8.30639       -1.29928
H         -3.31996       -9.69019       -2.00386
H         -4.87822       -9.17528       -2.67160
H         -4.80872        3.94162       -0.60078
H         -4.88853        5.71197       -0.58059
H         -3.79682        4.88166       -1.70356
