320
J71.sdf
C         -6.30087        8.35662        8.42613
C         -6.95552        8.01116        9.61233
C         -8.17789        7.33400        9.51905
C         -8.78761        7.11619        8.25312
C         -8.11922        7.50328        7.04876
C         -6.84067        8.05412        7.17131
C         -6.57563        8.24933       10.97476
C         -7.39176        7.64488       11.88861
S         -8.68047        6.85224       11.12233
C         -8.48928        7.46394        5.63558
C         -7.45614        7.76017        4.77374
S         -6.08888        8.24420        5.63508
C         -4.98182        8.98779        8.52757
C        -10.12487        6.48016        8.18705
C        -11.22613        6.63345        9.01257
C        -12.36724        5.88778        8.58872
C        -12.14827        5.21078        7.40390
S        -10.48787        5.31604        6.98087
C         -3.87789        8.63673        9.28343
C         -2.72402        9.40297        8.95016
C         -2.97044       10.22628        7.86567
S         -4.66135       10.44198        7.68331
C         -7.39960        7.66313        3.33847
S         -8.80258        7.65804        2.37403
C         -7.91699        7.37336        0.93162
C         -6.56151        7.35121        1.18014
C         -6.26549        7.53200        2.55630
C         -8.62527        7.13644       -0.31463
C         -9.83558        7.75857       -0.67518
C        -10.55768        7.43966       -1.83722
C        -10.14163        6.47295       -2.77209
C         -8.90900        5.85852       -2.46994
C         -8.14975        6.18071       -1.25133
N         -8.23590        4.91102       -3.14461
N         -7.17294        4.69070       -2.37238
N         -7.04418        5.40486       -1.24646
F        -10.36191        8.70776        0.11779
F        -11.71264        8.10075       -2.02741
C        -10.91606        6.01383       -3.90993
C         -6.20486        3.68242       -2.75843
C         -6.62974        2.29316       -2.31848
C        -10.51658        5.53180       -5.14319
C        -11.60954        5.07398       -5.93780
C        -12.80372        5.21279       -5.27405
S        -12.60519        5.92897       -3.74079
Si       -13.26021        4.26270        6.21835
C        -14.02643        5.58787        5.10209
C        -15.00818        5.07821        4.05301
C        -12.19505        3.06319        5.22385
C        -11.43623        2.00957        6.02425
C        -14.57756        3.36043        7.20333
C        -15.56763        4.21079        7.98782
Si        -1.86777       11.11226        6.64068
C         -1.20067        9.71595        5.56238
C         -0.17292       10.11103        4.51231
C         -2.92287       12.34527        5.70739
C         -2.21051       13.26304        4.72995
C         -0.54180       11.91522        7.68753
C         -1.05464       12.90305        8.72820
C        -17.50301        3.77725       -4.69874
C        -16.31775        4.13581       -5.33595
C        -16.34802        4.44332       -6.69834
C        -17.53108        4.24614       -7.44690
C        -18.73121        3.83219       -6.79716
C        -18.70031        3.67711       -5.40804
C        -15.00556        4.22573       -4.80584
C        -14.11609        4.81667       -5.65781
S        -14.79926        5.08833       -7.17493
C        -20.05854        3.50657       -7.27791
C        -20.99294        3.35055       -6.27835
S        -20.26723        3.40927       -4.76386
C        -17.47197        3.55896       -3.24668
C        -17.50206        4.46867       -8.90904
C        -16.48858        4.21238       -9.81871
C        -16.82753        4.54813      -11.15798
C        -18.14438        4.94497      -11.27786
S        -18.81900        5.21071       -9.72445
C        -16.90062        4.30002       -2.22543
C        -17.24323        3.80541       -0.92992
C        -18.16657        2.77965       -1.01830
S        -18.14787        2.13177       -2.60186
C        -22.41492        3.21851       -6.37759
S        -23.16246        2.70569       -7.81171
C        -24.72773        3.02551       -7.19855
C        -24.67744        3.42237       -5.87948
C        -23.34748        3.51531       -5.40191
C        -25.87177        2.91755       -8.08015
C        -25.98169        1.99151       -9.13518
C        -27.06340        1.95932      -10.02678
C        -28.15604        2.84195       -9.95131
C        -28.09001        3.77668       -8.89723
C        -26.95876        3.82178       -7.96290
N        -28.94798        4.75569       -8.56430
N        -28.35423        5.33222       -7.52000
N        -27.18611        4.83311       -7.09664
F        -25.01512        1.07838       -9.33237
F        -27.01431        1.03150      -10.99806
C        -29.24453        2.91763      -10.90385
C        -28.98509        6.46634       -6.87412
C        -28.69428        7.76867       -7.59777
C        -30.56726        3.28249      -10.73374
C        -31.27672        3.36892      -11.96685
C        -30.46206        3.07227      -13.03152
S        -28.89826        2.61264      -12.53701
Si       -19.24604        5.33404      -12.73963
C        -19.87849        7.07953      -12.42980
C        -18.80406        8.14620      -12.26612
C        -18.16667        5.19202      -14.27033
C        -17.57624        3.81749      -14.57201
C        -20.66521        4.09484      -12.77542
C        -21.64572        4.28462      -13.93068
Si       -19.39052        2.03649        0.16872
C        -20.78836        3.32452        0.23527
C        -20.37964        4.73273        0.66352
C        -19.97111        0.37807       -0.50281
C        -18.89151       -0.68056       -0.72069
C        -18.53404        1.88020        1.82232
C        -19.39568        1.28382        2.92750
C         -7.21364        7.64694       13.36467
C        -29.45778        3.55395      -17.84437
C        -30.19674        3.38223      -16.67887
C        -31.51524        2.93667      -16.77467
C        -32.13487        2.82050      -18.03818
C        -31.38677        3.04566      -19.23370
C        -30.02631        3.33727      -19.09952
C        -29.82379        3.62901      -15.33506
C        -30.72068        3.14030      -14.42778
S        -32.11425        2.56665      -15.17970
C        -31.73149        3.05506      -20.64440
C        -30.64379        3.14233      -21.48564
S        -29.22250        3.34720      -20.61283
C        -28.05040        3.94961      -17.71639
C        -33.56981        2.48011      -18.09290
C        -34.60159        2.85451      -17.24797
C        -35.87527        2.36942      -17.65556
C        -35.81334        1.68579      -18.85307
S        -34.17739        1.42427      -19.29057
C        -27.03635        3.47417      -16.90181
C        -25.77563        4.08667      -17.17955
C        -25.85570        4.92278      -18.27815
S        -27.49211        5.29071      -18.60419
C        -30.57852        2.99594      -22.90825
S        -31.90187        3.33924      -23.91623
C        -31.17745        2.51843      -25.23653
C        -29.84166        2.27887      -24.98921
C        -29.49395        2.56048      -23.64701
C        -31.93860        2.19547      -26.42686
C        -31.37416        2.14768      -27.72380
C        -32.09588        1.79585      -28.86963
C        -33.46087        1.46373      -28.86384
C        -34.05295        1.44971      -27.57937
C        -33.29642        1.80592      -26.36726
N        -35.31498        1.16153      -27.21942
N        -35.28470        1.31338      -25.89742
N        -34.13776        1.67689      -25.32501
F        -30.07998        2.46628      -27.88171
F        -31.41026        1.77598      -30.02594
C        -34.28573        1.23218      -30.03781
C        -36.51376        1.22283      -25.13149
C        -37.35569        2.48385      -25.25036
C        -35.37233        0.39352      -30.19643
C        -36.01565        0.56177      -31.45504
C        -35.38526        1.50996      -32.23063
S        -34.02245        2.16718      -31.44743
Si       -37.10051        1.05977      -20.04816
C        -37.54487        2.58671      -21.07705
C        -38.67210        2.36643      -22.07275
C        -36.34108       -0.29071      -21.12063
C        -35.83331       -1.52835      -20.38820
C        -38.58688        0.44853      -19.09019
C        -39.35379        1.47652      -18.26876
Si       -24.61171        5.66485      -19.44513
C        -24.12990        4.21093      -20.56923
C        -23.56241        2.98119      -19.86304
C        -25.43029        7.07120      -20.39553
C        -25.97945        8.22729      -19.56020
C        -23.16352        6.24590      -18.41867
C        -22.04060        6.88964      -19.22117
C        -35.74708        2.01415      -33.58032
H         -5.70048        8.81447       11.27242
H         -9.45715        7.14748        5.27182
H        -11.24235        7.27746        9.88190
H        -13.31361        5.91994        9.11078
H         -3.87329        7.82095        9.99556
H         -1.74462        9.24111        9.38321
H         -5.81051        7.17167        0.41956
H         -5.25749        7.51013        2.95154
H         -5.23761        3.95648       -2.32708
H         -6.11252        3.72385       -3.85044
H         -6.68777        2.22658       -1.22802
H         -5.91162        1.54571       -2.67214
H         -7.61501        2.03368       -2.72081
H         -9.48077        5.47076       -5.45408
H        -11.51131        4.62426       -6.91750
H        -13.21812        6.12703        4.59461
H        -14.54263        6.31792        5.73657
H        -14.52960        4.37485        3.36330
H        -15.39646        5.91484        3.46199
H        -15.86254        4.57149        4.51475
H        -11.48037        3.64126        4.62558
H        -12.84201        2.54822        4.50434
H        -10.79245        2.44799        6.79215
H        -10.79473        1.42266        5.35913
H        -12.12404        1.32314        6.52779
H        -14.08783        2.66104        7.88965
H        -15.15137        2.74853        6.49644
H        -15.07709        4.78007        8.77957
H        -16.31340        3.57101        8.47017
H        -16.09699        4.91926        7.34218
H         -2.04440        9.22585        5.06124
H         -0.74840        8.95992        6.21616
H         -0.58848       10.81861        3.78964
H          0.15632        9.22757        3.95510
H          0.70996       10.56942        4.96984
H         -3.43623       12.97634        6.44261
H         -3.70352       11.80623        5.15672
H         -1.36889       13.78073        5.20002
H         -2.90990       14.01875        4.35744
H         -1.83595       12.70832        3.86522
H          0.15826       12.43168        7.02191
H          0.03208       11.13123        8.19593
H         -1.63095       13.70953        8.26384
H         -0.21388       13.35265        9.26618
H         -1.69746       12.41188        9.46620
H        -14.74730        3.95494       -3.78926
H        -20.33949        3.48392       -8.32219
H        -15.52565        3.79638       -9.55341
H        -16.14343        4.43580      -11.98943
H        -16.31567        5.19743       -2.38536
H        -16.95976        4.28955       -0.00291
H        -25.54785        3.68835       -5.29210
H        -23.09563        3.85685       -4.40538
H        -28.64022        6.50431       -5.83623
H        -30.06387        6.27099       -6.86439
H        -27.62504        8.00148       -7.57250
H        -29.23796        8.59381       -7.12776
H        -28.99909        7.71692       -8.64909
H        -30.99915        3.53087       -9.77194
H        -32.30522        3.69207      -12.06269
H        -20.50142        7.06786      -11.52686
H        -20.54250        7.36338      -13.25311
H        -18.11589        7.91124      -11.44680
H        -19.26509        9.11308      -12.04318
H        -18.21180        8.25270      -13.18054
H        -17.34811        5.91516      -14.18325
H        -18.76516        5.50111      -15.13483
H        -16.96709        3.43270      -13.75012
H        -16.92973        3.87361      -15.45371
H        -18.35831        3.07779      -14.77080
H        -21.22286        4.16152      -11.83402
H        -20.25477        3.07975      -12.82724
H        -22.10951        5.27700      -13.90321
H        -22.44679        3.54000      -13.87796
H        -21.14820        4.17324      -14.90052
H        -21.55558        2.95859        0.92664
H        -21.25642        3.38310       -0.75473
H        -19.89560        4.73244        1.64588
H        -21.25908        5.38265        0.72345
H        -19.68816        5.18890       -0.05268
H        -20.50157        0.54630       -1.44843
H        -20.71560       -0.03147        0.18889
H        -18.07963       -0.33754       -1.36715
H        -19.32313       -1.56674       -1.19607
H        -18.43683       -0.98371        0.22720
H        -18.19036        2.87080        2.14130
H        -17.63863        1.26153        1.69793
H        -20.28920        1.89139        3.11018
H        -18.82744        1.22938        3.86074
H        -19.72512        0.27048        2.67244
H         -6.24194        8.08770       13.62375
H         -7.22805        6.63152       13.76892
H         -7.98763        8.24731       13.85003
H        -28.87492        4.06270      -15.04343
H        -32.73242        2.91127      -21.03042
H        -34.47516        3.48048      -16.37475
H        -36.78684        2.60032      -17.12236
H        -27.17154        2.68902      -16.16784
H        -24.84788        3.81011      -16.69269
H        -29.15800        1.83616      -25.70492
H        -28.51796        2.34909      -23.22644
H        -36.25623        1.02094      -24.08309
H        -37.06647        0.35692      -25.51477
H        -36.88042        3.31838      -24.72287
H        -38.35027        2.32589      -24.82374
H        -37.49567        2.78106      -26.29343
H        -35.72670       -0.27720      -29.42109
H        -36.90982        0.03083      -31.75572
H        -36.65002        2.92310      -21.61436
H        -37.83083        3.39996      -20.39968
H        -38.43767        1.54088      -22.75100
H        -38.83408        3.27260      -22.66544
H        -39.61391        2.12105      -21.57249
H        -35.51778        0.14039      -21.70381
H        -37.09252       -0.60783      -21.85236
H        -35.09743       -1.28727      -19.61516
H        -35.34994       -2.21089      -21.09413
H        -36.65356       -2.06429      -19.90179
H        -38.27211       -0.36958      -18.43369
H        -39.28526        0.01336      -19.81520
H        -38.74554        1.88858      -17.46149
H        -40.22739        1.01022      -17.80362
H        -39.70358        2.31190      -18.88449
H        -23.39016        4.57030      -21.29315
H        -25.01274        3.90634      -21.14414
H        -22.68019        3.23028      -19.26390
H        -23.26682        2.22367      -20.59655
H        -24.30076        2.51899      -19.19931
H        -26.24111        6.65803      -21.00899
H        -24.69901        7.47835      -21.10238
H        -26.68002        7.90413      -18.78527
H        -26.51875        8.93221      -20.20014
H        -25.17452        8.76640      -19.05387
H        -22.75505        5.39467      -17.86224
H        -23.52452        6.96424      -17.67450
H        -21.62784        6.19398      -19.96052
H        -21.22891        7.19659      -18.55529
H        -22.39328        7.77806      -19.75683
H        -36.63157        1.50066      -33.96807
H        -34.92355        1.85758      -34.28448
H        -35.96840        3.08607      -33.53689
