251
L1.sdf
C         -2.23911       -7.04914        4.25849
C         -3.65338       -7.04439        4.12826
C         -4.39354       -7.90859        4.94339
C         -3.76031       -8.81126        5.83435
C         -2.34072       -8.83402        5.94656
C         -1.60291       -7.92320        5.17085
C         -4.53977       -6.31391        3.24236
C         -5.88180       -6.60414        3.37346
S         -6.08967       -7.65498        4.68380
C         -1.44140       -9.66589        6.72358
C         -0.11702       -9.33584        6.59989
S          0.09666       -8.04602        5.53407
C         -1.41040       -6.17050        3.39077
C         -4.59798       -9.76569        6.61694
C         -0.24382       -6.46210        2.69617
C          0.26719       -5.36033        1.94926
C         -0.56287       -4.26432        2.01748
S         -1.79520       -4.50220        3.17612
C         -5.72671      -10.47547        6.22447
C         -6.28441      -11.28939        7.25304
C         -5.52339      -11.26124        8.39876
S         -4.29318      -10.08152        8.28661
C         -0.45797       -2.97072        1.26629
C         -1.05939       -3.07390       -0.13092
C         -5.70037      -12.07132        9.64863
C         -5.06441      -13.45151        9.52863
C         -6.97025       -6.13915        2.52577
C         -8.31883       -5.92171        2.79967
C         -9.02812       -5.49166        1.61393
C         -8.22834       -5.32883        0.50051
S         -6.62438       -5.78517        0.87254
C         -9.01697       -6.02789        4.13173
C         -9.65211       -7.38537        4.39476
C         -8.59589       -4.85569       -0.82296
S        -10.20692       -4.37011       -1.21512
C         -9.80165       -4.06852       -2.83194
C         -8.47078       -4.26804       -3.10040
C         -7.77381       -4.71593       -1.93424
C        -10.67364       -3.73469       -3.91078
C        -10.16303       -3.64894       -5.18607
O         -8.83229       -3.77166       -5.46265
C         -7.93428       -4.06845       -4.44810
S        -12.34636       -3.49411       -3.87953
C        -12.44458       -3.50020       -5.60667
C        -11.17771       -3.51468       -6.16869
C        -13.72233       -3.54449       -6.28180
C        -14.92164       -3.02334       -5.84664
C        -16.03935       -3.33508       -6.69988
C        -15.63304       -4.09330       -7.79801
S        -13.93421       -4.36736       -7.76666
C        -17.45832       -2.91118       -6.40569
C        -17.59526       -1.60926       -5.63208
O         -6.74406       -4.16847       -4.68459
C        -17.91141       -5.40436      -12.43295
C        -19.24537       -5.77526      -12.74503
C        -20.16021       -5.90764      -11.69695
C        -19.75968       -5.73534      -10.34651
C        -18.41692       -5.36414      -10.03311
C        -17.51897       -5.16801      -11.09484
C        -19.87631       -6.09619      -14.01077
C        -21.20284       -6.46659      -13.93612
S        -21.73908       -6.25983      -12.34044
C        -17.73722       -5.13929       -8.76833
C        -16.46665       -4.61330       -8.87098
S        -15.99179       -4.59020      -10.49856
C        -16.96754       -5.22358      -13.56537
C        -20.75706       -5.97641       -9.26460
C        -17.19137       -4.59735      -14.78342
C        -16.07948       -4.65646      -15.66903
C        -14.98005       -5.23278      -15.07464
S        -15.38189       -5.90160      -13.55390
C        -21.72965       -6.96498       -9.17669
C        -22.52198       -6.89409       -7.99519
C        -22.09121       -5.89966       -7.14782
S        -20.90161       -4.92935       -7.89926
C        -13.58757       -5.33478      -15.62136
C        -12.78613       -4.06737      -15.34599
C        -22.57261       -5.59854       -5.75919
C        -21.88562       -6.47490       -4.71773
C        -22.02506       -6.99940      -15.01674
C        -23.40321       -6.95677      -15.23575
C        -23.75308       -7.68786      -16.43493
C        -22.68227       -8.23929      -17.10607
S        -21.23731       -7.88742      -16.27096
C        -24.42024       -6.25141      -14.36642
C        -25.86853       -6.36193      -14.82810
C        -22.68869       -9.01822      -18.33052
S        -24.14349       -9.38638      -19.18893
C        -23.32126      -10.30748      -20.34261
C        -21.95747      -10.32590      -20.13932
C        -21.59868       -9.57337      -18.98137
C        -23.85534      -11.10105      -21.39882
C        -23.01306      -11.86908      -22.16178
O        -21.65891      -11.84954      -22.01909
C        -21.07565      -11.07741      -21.02878
S        -25.47461      -11.31439      -21.83653
C        -25.08469      -12.62036      -22.90678
C        -23.70813      -12.74143      -23.03691
C        -26.11907      -13.47477      -23.48001
C        -27.47567      -13.34787      -23.34600
C        -28.23025      -14.45857      -23.87454
C        -27.37577      -15.39903      -24.46674
S        -25.73854      -14.86730      -24.38329
C        -29.72895      -14.57539      -23.75159
C        -30.42209      -13.46951      -22.97416
O        -19.85023      -11.04215      -20.89760
C        -27.47012      -20.19520      -26.81944
C        -28.48832      -20.83461      -27.57005
C        -29.70975      -20.17820      -27.73172
C        -29.96558      -18.94037      -27.10351
C        -28.94319      -18.29792      -26.35192
C        -27.69503      -18.92840      -26.23703
C        -28.52677      -22.12814      -28.21464
C        -29.70615      -22.42367      -28.86154
S        -30.72959      -21.08079      -28.79937
C        -28.92485      -17.04212      -25.64604
C        -27.71252      -16.65858      -25.12067
S        -26.59406      -17.92349      -25.35220
C        -26.15153      -20.87458      -26.75348
C        -31.33081      -18.35034      -27.22115
C        -25.47332      -21.52309      -27.77706
C        -24.25682      -22.12993      -27.36316
C        -23.96063      -21.83539      -26.05245
S        -25.26487      -21.03764      -25.28637
C        -32.56246      -18.99370      -27.17344
C        -33.67590      -18.12753      -27.36490
C        -33.28999      -16.81046      -27.45513
S        -31.58934      -16.67544      -27.54367
C        -22.69447      -22.13891      -25.31178
C        -22.77780      -23.44240      -24.53847
C        -34.16758      -15.59664      -27.52781
C        -34.63090      -15.14776      -26.14661
C        -30.07422      -23.68749      -29.46762
C        -30.93243      -23.98211      -30.52394
C        -31.01075      -25.40682      -30.73545
C        -30.20935      -26.14351      -29.88822
S        -29.39276      -25.12471      -28.80231
C        -31.67749      -23.01698      -31.41030
C        -33.09201      -22.71173      -30.93922
C        -30.03712      -27.57431      -29.84533
S        -30.24469      -28.53372      -31.25435
C        -30.04634      -29.96247      -30.37735
C        -29.74211      -29.76078      -29.05236
C        -29.71195      -28.36314      -28.75195
C        -30.28958      -31.28348      -30.82667
C        -30.25220      -32.32240      -29.93079
O        -29.85318      -32.16702      -28.63977
C        -29.56442      -30.89953      -28.14390
S        -30.77493      -31.76908      -32.36636
C        -31.25580      -33.31361      -31.77317
C        -30.80077      -33.51142      -30.47740
C        -32.09648      -34.16762      -32.57264
C        -32.19495      -34.21023      -33.95050
C        -33.23689      -35.07469      -34.41920
C        -33.88742      -35.67273      -33.35838
S        -33.23907      -35.21994      -31.84640
C        -33.56409      -35.28800      -35.86540
C        -34.59250      -34.29739      -36.38868
O        -29.20056      -30.74672      -26.98170
H         -4.19259       -5.61567        2.49312
H         -1.74643      -10.47226        7.37613
H          0.72835       -9.79234        7.09705
H          0.24045       -7.43075        2.71351
H          1.17188       -5.39354        1.35385
H         -6.16068      -10.41780        5.23418
H         -7.17435      -11.89644        7.13588
H          0.59767       -2.68760        1.18125
H         -0.95819       -2.16278        1.81249
H         -0.55753       -3.84270       -0.72890
H         -0.95614       -2.11901       -0.65715
H         -2.12547       -3.32348       -0.09192
H         -6.77118      -12.18900        9.85315
H         -5.27036      -11.55144       10.51227
H         -5.50244      -14.02579        8.70469
H         -5.21890      -14.01925       10.45236
H         -3.98550      -13.38233        9.35200
H        -10.09088       -5.27770        1.61507
H         -9.80952       -5.26893        4.17043
H         -8.32815       -5.76652        4.94167
H        -10.45951       -7.59006        3.68445
H        -10.07761       -7.40596        5.40391
H         -8.93377       -8.20558        4.31731
H         -6.71724       -4.95911       -1.94122
H        -10.98957       -3.50205       -7.23589
H        -15.00534       -2.45010       -4.93084
H        -17.94539       -3.71590       -5.84152
H        -18.00912       -2.78651       -7.34410
H        -17.14242       -1.67811       -4.63810
H        -18.65397       -1.36804       -5.49429
H        -17.12209       -0.78084       -6.16923
H        -19.34321       -6.10426      -14.95259
H        -18.20110       -5.28047       -7.80240
H        -18.13004       -4.12641      -15.04746
H        -16.07379       -4.24679      -16.67177
H        -21.88504       -7.72432       -9.93258
H        -23.33367       -7.57363       -7.76359
H        -13.63713       -5.49520      -16.70521
H        -13.06114       -6.19799      -15.19882
H        -13.26700       -3.18629      -15.78585
H        -11.78261       -4.15199      -15.77539
H        -12.68033       -3.88734      -14.27059
H        -23.65490       -5.76841       -5.70796
H        -22.40723       -4.54449       -5.50943
H        -22.06795       -7.53914       -4.90464
H        -22.26491       -6.24075       -3.71737
H        -20.80164       -6.31700       -4.71314
H        -24.77063       -7.79803      -16.78960
H        -24.15514       -5.18863      -14.30783
H        -24.37383       -6.66801      -13.35546
H        -26.01888       -5.86044      -15.79007
H        -26.53496       -5.89469      -14.09648
H        -26.17613       -7.40821      -14.93381
H        -20.57448       -9.48701      -18.63722
H        -23.21901      -13.48042      -23.65993
H        -27.93462      -12.51721      -22.82730
H        -29.97001      -15.53634      -23.27465
H        -30.16485      -14.56906      -24.75787
H        -30.05277      -13.41184      -21.94191
H        -31.49741      -13.65194      -22.93897
H        -30.26218      -12.49647      -23.45027
H        -27.71351      -22.84123      -28.16632
H        -29.78595      -16.39992      -25.59578
H        -25.84534      -21.58481      -28.79232
H        -23.60613      -22.70218      -28.01323
H        -32.67751      -20.06058      -27.02749
H        -34.70810      -18.45632      -27.38937
H        -22.44195      -21.31581      -24.63261
H        -21.86814      -22.20421      -26.03190
H        -23.56082      -23.40104      -23.77467
H        -21.82530      -23.64405      -24.03821
H        -22.99776      -24.28392      -25.20386
H        -35.04756      -15.82616      -28.14068
H        -33.64741      -14.76807      -28.02137
H        -35.19544      -15.93623      -25.63632
H        -35.28250      -14.27188      -26.23349
H        -33.78325      -14.87636      -25.50795
H        -31.63616      -25.85639      -31.49878
H        -31.74030      -23.44765      -32.41783
H        -31.10614      -22.09049      -31.52717
H        -33.72302      -23.60596      -30.97191
H        -33.54465      -21.95611      -31.58994
H        -33.11963      -22.33155      -29.91456
H        -29.53531      -27.97353      -27.75490
H        -30.95779      -34.42282      -29.91292
H        -31.56612      -33.62300      -34.61027
H        -34.71903      -36.36285      -33.39520
H        -33.93426      -36.30961      -36.00965
H        -32.64592      -35.19944      -36.45869
H        -35.53844      -34.37998      -35.84303
H        -34.79277      -34.48869      -37.44774
H        -34.23780      -33.26548      -36.29174
