206
2D-PBTCl2.sdf
C          5.20410        1.18011       -7.07137
C          4.01367        1.70944       -7.67080
C          3.06236        2.33483       -6.86087
C          3.14186        2.24871       -5.46499
C          4.22314        1.59562       -4.83392
C          5.27588        1.09549       -5.63744
C          3.48743        1.62538       -9.02135
C          2.33271        2.33147       -9.23052
S          1.88037        3.16611       -7.83412
C          4.44329        1.35488       -3.42457
C          5.68760        0.84897       -3.13485
S          6.50787        0.43071       -4.57677
C          6.24581        0.64261       -8.02345
C          2.00890        2.73245       -4.64453
C          7.13674       -0.42074       -7.95944
C          7.63319       -0.81899       -9.25617
C          7.17585       -0.00977      -10.27597
S          6.54499        1.42466       -9.57795
C          1.95871        3.61519       -3.57669
C          0.62381        3.83138       -3.09924
C         -0.31373        3.15050       -3.84783
S          0.43967        2.07512       -4.93551
C          7.29542       -0.19959      -11.77382
C          6.20053       -1.09854      -12.35505
C         -1.81193        3.21556       -3.78771
C         -2.35524        4.43073       -4.53085
C          7.14444        2.29260        0.16921
S          7.03681        2.53821       -1.56191
C          6.32004        0.99832       -1.84667
C          6.45522        0.28359       -0.67700
C          6.28552        1.22956        0.38988
C          5.69522       -0.85560       -0.23722
C          4.42639       -0.46325        0.22623
S          4.78408        0.85959        1.45972
Cl         6.54717       -2.13120        0.63078
C          3.15410       -1.16962       -0.03201
S          3.05102       -2.31347       -1.38078
C          1.38890       -2.64642       -1.15109
C          0.93434       -1.93042       -0.05259
C          1.89371       -1.06945        0.53684
C          0.54525       -3.52479       -1.99525
O         -0.57235       -3.90925       -1.67928
O          1.08069       -3.76787       -3.24328
C          0.14541       -4.23644       -4.25516
C          0.10709       -5.75329       -4.39824
Cl         1.40430       -0.00687        1.78949
C         10.65037        5.99681        0.71311
C          9.74321        4.92635        1.07406
C          9.87999        4.26194        2.29231
C         10.97429        4.56540        3.11909
C         11.97992        5.49841        2.73275
C         11.79917        6.24075        1.54645
C          8.70666        4.25289        0.32483
C          8.01627        3.20166        0.91661
S          8.57547        3.07526        2.51751
C         13.24212        5.82144        3.38492
C         13.91635        6.89086        2.84578
S         13.14853        7.37141        1.39264
C         10.38798        6.71888       -0.59908
C         11.22832        3.74320        4.31041
C         11.21766        7.31029       -1.54769
C         10.55526        7.59125       -2.80245
C          9.21680        7.25939       -2.78555
S          8.74196        7.01024       -1.15781
C         11.36724        2.37061        4.37406
C         11.83779        1.91930        5.63548
C         12.07626        2.96402        6.50186
S         11.45777        4.43358        5.87249
C          8.21677        7.24567       -3.92448
C          8.24438        5.95444       -4.74557
C         12.78556        2.91173        7.82139
C         11.83586        2.71458        8.98719
C         15.74653        8.99679        5.58365
S         14.27070        8.88108        4.63304
C         14.90789        7.66893        3.58346
C         16.26133        7.63082        3.84166
C         16.42857        7.83905        5.24810
C         17.19173        6.57028        3.54136
C         17.10440        5.53296        4.48613
S         17.23375        6.38280        6.11355
Cl        18.78471        7.00099        2.92434
C         17.20700        4.09226        4.18001
S         16.92049        3.53879        2.51963
C         17.12698        1.88052        2.88759
C         17.44795        1.74682        4.22762
C         17.41437        2.97458        4.97167
C         16.98216        0.75350        1.95013
O         17.37268       -0.38249        2.20486
O         16.26282        1.05246        0.82196
C         15.73829       -0.08541        0.08765
C         16.63584       -0.54126       -1.05436
Cl        17.60571        2.92662        6.67380
C         14.45214       13.56758        7.58309
C         15.23715       12.37782        7.29426
C         16.59376       12.34636        7.58810
C         17.22740       13.51226        8.05798
C         16.52015       14.74617        8.26171
C         15.13029       14.76611        8.01704
C         14.90934       11.13917        6.61522
C         15.89115       10.16665        6.45970
S         17.27893       10.73510        7.26340
C         17.03382       16.07822        8.57398
C         16.07210       17.05351        8.78850
S         14.53887       16.40599        8.37212
C         12.96579       13.48041        7.29870
C         18.68776       13.50778        8.24324
C         12.01078       14.38875        6.85099
C         10.80736       13.75032        6.35800
C         10.84246       12.37732        6.49183
S         12.08029       11.98751        7.61186
C         19.65567       13.12885        7.33235
C         20.97760       13.29127        7.82281
C         20.99407       13.87744        9.06907
S         19.41931       13.97967        9.73033
C          9.90903       11.32667        5.92697
C         10.28241       10.89661        4.50578
C         22.18605       14.40143        9.80856
C         22.53718       15.80421        9.32230
C         17.56122       19.64240       11.24118
S         16.34846       18.39786       11.22314
C         16.34519       18.32979        9.45960
C         16.79064       19.59069        9.10712
C         17.89709       19.87753        9.94568
C         17.22411       20.17491        7.86715
C         18.59601       19.93068        7.65811
S         19.44972       20.40794        9.14560
Cl        16.62373       21.80619        7.50435
C         19.19059       19.57405        6.38605
S         18.11785       19.09957        5.09806
C         19.38346       18.80666        4.00130
C         20.60316       19.07698        4.58987
C         20.50247       19.43533        5.97117
C         19.16157       18.36696        2.63165
O         19.98624       18.48480        1.73323
O         17.94503       17.76506        2.47932
C         17.62968       17.27829        1.16155
C         16.82192       18.32328        0.41490
Cl        21.92885       19.62776        6.90199
H          3.93011        1.04798       -9.82118
H          1.76269        2.40695      -10.14573
H          3.76859        1.70572       -2.64974
H          7.33225       -0.99946       -7.06816
H          8.23048       -1.70523       -9.43473
H          2.82825        4.10822       -3.15719
H          0.36460        4.49526       -2.28206
H          8.26523       -0.65859      -12.00287
H          7.27336        0.76047      -12.30393
H          6.17020       -2.07538      -11.86040
H          6.37851       -1.27889      -13.42343
H          5.20937       -0.64152      -12.26217
H         -2.13723        3.25022       -2.74229
H         -2.25558        2.31203       -4.22460
H         -1.96531        5.36432       -4.11150
H         -3.44782        4.45958       -4.46156
H         -2.08725        4.40318       -5.59315
H         -0.10098       -2.04211        0.29042
H          0.45872       -3.79230       -5.20864
H         -0.86507       -3.85293       -4.06999
H          1.10872       -6.19108       -4.38722
H         -0.38651       -6.03826       -5.33693
H         -0.46391       -6.21345       -3.58475
H          8.54922        4.48592       -0.71542
H         13.56240        5.37800        4.32120
H         12.28236        7.45345       -1.42609
H         11.05628        7.96154       -3.69011
H         11.21029        1.72476        3.52029
H         12.07341        0.88711        5.86041
H          8.42693        8.08269       -4.60214
H          7.19486        7.39660       -3.55519
H          9.23510        5.76458       -5.17218
H          7.53600        6.01831       -5.58234
H          7.96095        5.08415       -4.14425
H         13.38237        3.81957        7.97151
H         13.50221        2.07951        7.80287
H         11.10347        3.52554        9.04556
H         12.39604        2.69228        9.92767
H         11.29073        1.76939        8.89505
H         17.63596        0.77201        4.66815
H         14.77554        0.22873       -0.33120
H         15.51808       -0.92931        0.75464
H         16.99754        0.30501       -1.64440
H         16.09050       -1.22159       -1.72158
H         17.50940       -1.08358       -0.67910
H         13.94597       11.00591        6.15208
H         18.08286       16.28997        8.75643
H         12.17459       15.45242        6.74380
H          9.99655       14.27006        5.85961
H         19.42532       12.75936        6.34120
H         21.87036       13.05975        7.25490
H          8.88491       11.71945        5.90498
H          9.88485       10.43282        6.56263
H         10.29559       11.74663        3.81512
H          9.55478       10.17134        4.11857
H         11.26735       10.41978        4.47294
H         23.04117       13.73702        9.63426
H         22.01079       14.41734       10.88982
H         22.73080       15.81410        8.24315
H         23.43334       16.17341        9.82935
H         21.71927       16.50695        9.51700
H         18.04269       19.99765       12.14544
H         21.53900       18.96880        4.05345
H         17.03029       16.36968        1.28458
H         18.52515       16.99369        0.59634
H         15.99280       18.68416        1.03210
H         16.41796       17.91659       -0.51721
H         17.44428       19.19060        0.17289
