224
P-CIT.sdf
C          0.14367        8.18036       -5.11862
C          0.46015        6.81855       -5.15220
C         -0.47505        5.79580       -4.94017
C         -1.80738        6.15358       -4.66692
C         -2.12645        7.50746       -4.64331
C         -1.19553        8.53436       -4.85822
C          1.37725        8.85656       -5.36177
C          2.33697        7.89100       -5.53657
O          1.79347        6.65811       -5.40772
C         -3.03080        5.47790       -4.39298
C         -4.01665        6.42371       -4.20635
O         -3.45706        7.66133       -4.38276
C         -0.07734        4.38654       -5.08836
C          0.84384        3.84177       -5.96560
C          0.92325        2.42164       -5.89354
C          0.06652        1.89372       -4.95127
S         -0.74147        3.14197       -4.10596
Cl         1.98839        1.53612       -6.89699
C         -0.16616        0.46386       -4.55140
C         -1.26242       -0.22030       -5.35785
C         -1.62834        9.93406       -4.71512
C         -2.57493       10.44364       -3.84167
C         -2.75035       11.84975       -3.95011
C         -1.93482       12.40741       -4.91118
S         -1.01185       11.19747       -5.70222
Cl        -3.87685       12.68335       -2.96864
C         -1.82225       13.83911       -5.35360
C         -0.77896       14.62773       -4.57455
C         -5.40353        6.24349       -3.88507
C         -6.32256        7.25787       -3.74218
C         -7.61734        6.76344       -3.44342
C         -7.67405        5.37931       -3.37299
S         -6.12575        4.70559       -3.63576
C         -8.87959        4.56621       -3.21901
C        -10.09558        4.99870       -3.80317
C        -11.32986        4.34189       -3.66300
C        -11.49128        3.15418       -2.93693
C        -10.30402        2.66915       -2.34471
C         -8.99435        3.35936       -2.47054
F        -10.10094        6.11866       -4.54828
F        -12.39226        4.92520       -4.24183
N        -10.13087        1.56894       -1.59840
N         -8.83935        1.60972       -1.29335
N         -8.09989        2.63538       -1.75983
C         -8.28743        0.54369       -0.47027
C         -8.40388        0.83640        1.01523
C        -12.74536        2.43582       -2.75570
C        -13.18750        1.69659       -1.67311
C        -14.48564        1.14913       -1.87427
C        -15.00353        1.49177       -3.10203
S        -13.89107        2.39751       -4.02153
C        -18.20661        1.02084       -4.82600
C        -18.37995        0.41088       -3.58495
C        -19.57893       -0.17822       -3.16898
C        -20.67755       -0.14184       -4.04409
C        -20.49548        0.45663       -5.28738
C        -19.29521        1.04041       -5.70891
C        -16.87073        1.50159       -4.81898
C        -16.30624        1.17698       -3.60101
O        -17.22986        0.49776       -2.85942
C        -22.03055       -0.58029       -4.03794
C        -22.59885       -0.23360       -5.24570
O        -21.64623        0.38148       -6.00764
C        -19.64212       -0.88141       -1.88044
C        -18.65501       -1.63324       -1.26847
C        -19.07035       -2.21392       -0.03736
C        -20.37413       -1.89700        0.28139
S        -21.03992       -0.83344       -0.88348
Cl       -18.00917       -3.17897        0.89424
C        -21.19315       -2.28227        1.48071
C        -21.96947       -3.57856        1.29268
C        -19.24809        1.71399       -7.01466
C        -20.25984        2.42701       -7.63350
C        -19.90455        2.92192       -8.91653
C        -18.61101        2.59765       -9.26467
S        -17.86817        1.65613       -8.03734
Cl       -21.02425        3.79423       -9.87209
C        -17.86309        2.89672      -10.53342
C        -17.10555        4.21587      -10.48805
C        -23.93302       -0.43527       -5.72471
C        -24.38298       -0.07966       -6.97587
C        -25.74277       -0.42695       -7.16662
C        -26.30574       -1.05365       -6.06532
S        -25.17063       -1.16816       -4.79386
C        -27.63316       -1.65719       -5.99541
C        -28.18452       -2.27319       -7.14380
C        -29.47385       -2.82436       -7.21413
C        -30.36003       -2.84549       -6.12881
C        -29.85210       -2.25469       -4.95064
C        -28.49900       -1.65422       -4.86428
F        -27.44606       -2.34665       -8.26637
F        -29.85644       -3.31884       -8.40301
N        -30.45131       -2.12183       -3.75899
N        -29.53996       -1.48163       -3.03017
N        -28.36632       -1.16379       -3.60984
C        -29.86217       -1.16105       -1.65168
C        -30.57162        0.17551       -1.51228
C        -31.70712       -3.39487       -6.14781
C        -32.83915       -2.97452       -5.47286
C        -33.98265       -3.76354       -5.76931
C        -33.69569       -4.76594       -6.66439
S        -32.03842       -4.79034       -7.07120
C        -35.58065       -7.33828       -8.47143
C        -36.54524       -6.65739       -7.72314
C        -37.91259       -6.94712       -7.79318
C        -38.32870       -7.96073       -8.67929
C        -37.36733       -8.65715       -9.39963
C        -35.98606       -8.36749       -9.32237
C        -34.35542       -6.69897       -8.14789
C        -34.61445       -5.69528       -7.23777
O        -35.95459       -5.69294       -6.96486
C        -39.57294       -8.50834       -9.11167
C        -39.30798       -9.52423      -10.00421
O        -37.95179       -9.60004      -10.17759
C        -38.87076       -6.18889       -6.97426
C        -38.80882       -4.87692       -6.53337
C        -39.89502       -4.51402       -5.68618
C        -40.79885       -5.54093       -5.52132
S        -40.27908       -6.94425       -6.33736
Cl       -39.98480       -2.96977       -4.95510
C        -42.05902       -5.61018       -4.70398
C        -43.29726       -5.16669       -5.45899
C        -35.03727       -9.05163      -10.21280
C        -35.22389       -9.48056      -11.51079
C        -34.04173      -10.00701      -12.11217
C        -32.96545       -9.99358      -11.24957
S        -33.44421       -9.44765       -9.69950
Cl       -34.03205      -10.56326      -13.72929
C        -31.54645      -10.44165      -11.46778
C        -30.63636       -9.33453      -11.98423
C        -40.22647      -10.39380      -10.68104
C        -39.87582      -11.38641      -11.56591
C        -41.00860      -12.08765      -12.05121
C        -42.20642      -11.63635      -11.51611
S        -41.92735      -10.32685      -10.45466
C        -43.52752      -12.23678      -11.70723
C        -43.64731      -13.63848      -11.84978
C        -44.85024      -14.32142      -12.11241
C        -46.09091      -13.68214      -12.23964
C        -46.02909      -12.27615      -12.08755
C        -44.76265      -11.53767      -11.82568
F        -42.54467      -14.40270      -11.74213
F        -44.76062      -15.65121      -12.27881
N        -47.02683      -11.38099      -12.15078
N        -46.40921      -10.21667      -11.96398
N        -45.07684      -10.22264      -11.77228
C        -47.20692       -9.00353      -11.98757
C        -47.36894       -8.43791      -13.39037
C        -47.35970      -14.34246      -12.53910
C        -48.44527      -13.86170      -13.25283
C        -49.51563      -14.79678      -13.33787
C        -49.21504      -15.97149      -12.69039
S        -47.67985      -15.92707      -11.95440
H          1.55755        9.92076       -5.41169
H          3.39760        7.92082       -5.74422
H         -3.19405        4.41366       -4.31752
H          1.42933        4.44373       -6.65120
H         -0.43403        0.41314       -3.48881
H          0.76458       -0.10374       -4.65718
H         -2.22362        0.29502       -5.25715
H         -1.39804       -1.24751       -5.00011
H         -1.01247       -0.26756       -6.42265
H         -3.12448        9.82331       -3.14383
H         -2.79487       14.33407       -5.24943
H         -1.57303       13.88260       -6.42063
H         -1.01777       14.67116       -3.50684
H         -0.73527       15.65652       -4.95003
H          0.22001       14.19193       -4.68138
H         -6.08156        8.30719       -3.86741
H         -8.48359        7.40527       -3.33103
H         -7.25136        0.37773       -0.77130
H         -8.85492       -0.36907       -0.70646
H         -7.83219        1.72918        1.28432
H         -8.02274       -0.00720        1.59942
H         -9.44622        1.00438        1.30998
H        -12.61180        1.55582       -0.76624
H        -15.01732        0.55281       -1.14326
H        -16.36826        2.04564       -5.60780
H        -22.55530       -1.08365       -3.23994
H        -17.67001       -1.76924       -1.69802
H        -21.90402       -1.48173        1.71887
H        -20.54080       -2.37863        2.35579
H        -22.66164       -3.51859        0.44600
H        -22.56162       -3.78811        2.19106
H        -21.30214       -4.43031        1.12609
H        -21.23417        2.57148       -7.18316
H        -18.56419        2.91730      -11.37611
H        -17.15394        2.08878      -10.75009
H        -17.77967        5.06521      -10.33622
H        -16.57743        4.37289      -11.43562
H        -16.36031        4.22598       -9.68585
H        -23.75803        0.38764       -7.72854
H        -26.26947       -0.26399       -8.09995
H        -28.94082       -1.19317       -1.06504
H        -30.52078       -1.95916       -1.28207
H        -29.93260        0.99645       -1.85064
H        -30.84054        0.35635       -0.46625
H        -31.49416        0.20304       -2.10368
H        -32.85447       -2.12736       -4.79723
H        -34.97131       -3.59381       -5.36097
H        -33.37820       -6.92467       -8.54260
H        -40.56255       -8.20818       -8.80634
H        -37.99333       -4.20807       -6.78300
H        -41.94096       -4.99039       -3.80548
H        -42.21266       -6.63309       -4.34754
H        -43.22435       -4.12519       -5.78771
H        -44.17740       -5.25221       -4.80982
H        -43.47863       -5.78962       -6.34251
H        -36.17399       -9.39881      -12.03081
H        -31.52778      -11.27968      -12.17330
H        -31.12782      -10.82502      -10.52912
H        -30.96653       -8.95927      -12.95832
H        -29.61630       -9.71837      -12.10184
H        -30.59300       -8.48730      -11.29122
H        -38.85106      -11.61163      -11.83879
H        -40.93582      -12.92569      -12.73465
H        -46.75317       -8.27584      -11.31017
H        -48.19611       -9.26101      -11.58687
H        -46.40273       -8.14025      -13.80774
H        -48.02343       -7.56027      -13.37424
H        -47.81490       -9.17467      -14.06917
H        -48.47815      -12.87530      -13.69872
H        -50.44900      -14.61397      -13.85019
H        -49.83158      -16.85731      -12.60232
