245
PBT-F.sdf
C          0.70817        5.22393        8.57226
C          0.99230        3.93649        9.06526
C          1.77065        3.02924        8.32966
C          2.17098        3.35272        7.01739
C          1.78858        4.58246        6.46915
C          1.12123        5.54779        7.24774
C          0.01447        5.99935        9.56770
C         -0.26229        5.30572       10.71929
S          0.24273        3.69665       10.61029
C          3.00872        2.62530        6.11838
C          3.02500        3.14274        4.85723
S          2.27423        4.64827        4.81237
C          2.19935        1.70642        8.84136
C          2.26033        0.47765        8.18947
C          2.87435       -0.52689        8.96861
C          3.19660       -0.12206       10.23817
S          2.89646        1.56125       10.41292
F          3.09843       -1.73545        8.52755
C          3.74051       -0.90847       11.37219
C          2.63082       -1.57677       12.16782
C          0.89194        6.92620        6.72286
C          1.07639        8.15841        7.33999
C          0.87424        9.24891        6.45484
C          0.59941        8.86980        5.16711
S          0.26821        7.19447        5.12717
F          1.01361       10.49509        6.81941
C          0.51783        9.70265        3.92444
C          1.90008       10.00366        3.34786
C          3.83268        2.61463        3.82046
C          4.30502        1.32964        3.65118
C          5.70406        1.41147        3.34766
C          6.11327        2.73055        3.18017
S          4.71415        3.66595        2.83904
C          7.42800        3.32795        3.02528
C          8.65992        2.81393        3.52994
C          9.77124        3.12340        2.74880
C          9.57272        2.85939        1.35975
C          8.76446        3.96576        1.00062
C          7.58681        4.23529        1.90981
O          8.69900        1.87443        4.51276
O         10.21950        4.40161        3.20970
N          8.86212        4.81216       -0.03496
S          7.58854        5.87442        0.13377
N          6.83504        5.26096        1.47532
C          8.89836        1.47970        1.01151
C          8.95004        0.28439        1.72346
C          8.00385       -0.70458        1.28678
C          7.23158       -0.29871        0.20912
S          7.72863        1.28783       -0.27447
C          9.87449        1.56154        5.29496
C         11.30268        1.68393        4.76858
C         11.41869        4.96219        2.68002
C         11.44929        6.46009        3.00608
C          4.31303       -1.74677       -1.85052
C          4.86180       -2.97784       -1.48821
C          4.42528       -4.17843       -2.08470
C          3.35531       -4.17904       -3.00669
C          2.71078       -2.98138       -3.28899
C          3.14506       -1.75619       -2.69587
C          5.15627       -0.66799       -1.31022
C          6.17650       -1.07222       -0.46442
S          6.03454       -2.75832       -0.22772
C          2.85546       -5.27652       -3.79642
C          1.97323       -4.89477       -4.74302
S          1.41658       -3.29578       -4.41286
C          5.14165       -5.45256       -1.87633
C          4.66237       -6.74857       -1.71386
C          5.70265       -7.67821       -1.48903
C          6.94071       -7.09466       -1.44359
S          6.86287       -5.49034       -2.00801
F          5.49214       -8.94256       -1.24952
C          8.23041       -7.65492       -0.96228
C          8.32172       -7.50351        0.55284
C          2.40370       -0.47987       -2.92514
C          1.73664        0.02869       -4.03742
C          1.19097        1.31807       -3.80966
C          1.43270        1.81831       -2.55564
S          2.17898        0.62096       -1.59546
F          0.53069        1.98673       -4.72549
C          1.08795        3.15710       -1.98023
C          2.18601        4.18851       -2.22018
C          1.78125       -5.60977       -5.97087
C          2.51432       -6.70134       -6.44631
C          3.21360       -6.25076       -7.63520
C          2.76436       -4.98943       -8.02363
S          1.15280       -4.87171       -7.35345
C          3.22778       -4.02889       -9.01476
C          4.55427       -3.77419       -9.49121
C          4.61836       -3.24189      -10.78670
C          3.83974       -3.97048      -11.72130
C          2.54539       -3.50433      -11.38223
C          2.20755       -3.51645       -9.90475
O          5.71873       -4.18005       -8.88401
O          4.48617       -1.82779      -10.64181
N          1.55123       -3.07384      -12.16516
S          0.30547       -2.66853      -11.13648
N          0.95886       -3.07915       -9.67298
C          3.96021       -5.53084      -11.66060
C          4.98566       -6.31895      -11.15538
C          4.67619       -7.70944      -11.01265
C          3.41136       -8.02086      -11.45593
S          2.63766       -6.58483      -12.05274
C          6.95011       -3.51724       -9.31671
C          7.68020       -4.12895      -10.52040
C          4.70043       -1.00127      -11.78229
C          4.08021        0.37511      -11.52076
C          1.13086      -11.07292      -11.84387
C          2.21139      -11.81404      -11.33742
C          2.12875      -13.21603      -11.27108
C          1.01093      -13.91225      -11.79642
C         -0.07411      -13.20031      -12.25609
C         -0.05787      -11.77256      -12.20356
C          1.50865       -9.65813      -11.94032
C          2.75905       -9.33723      -11.46418
S          3.50257      -10.75419      -10.84923
C          0.84155      -15.33609      -12.00742
C         -0.29425      -15.68256      -12.69097
S         -1.29727      -14.31886      -12.85738
C          3.27557      -14.03316      -10.80816
C          4.59163      -14.03047      -11.23191
C          5.31405      -15.10791      -10.71636
C          4.58640      -15.95302       -9.91184
S          3.05459      -15.24762       -9.59524
F          6.56403      -15.35536      -11.03966
C          4.96706      -17.28023       -9.31972
C          4.89755      -18.42373      -10.32699
C         -1.30059      -10.99531      -12.46597
C         -2.30352      -11.16922      -13.40934
C         -3.39183      -10.28261      -13.21225
C         -3.21086       -9.39016      -12.18841
S         -1.73609       -9.70066      -11.39155
F         -4.47805      -10.32252      -13.93651
C         -4.13156       -8.31059      -11.71011
C         -3.94261       -7.00627      -12.47210
C         -0.42245      -16.96104      -13.34672
C          0.17957      -18.19685      -13.07187
C          0.76487      -18.76334      -14.28672
C          0.58475      -17.88646      -15.34554
S         -0.99865      -17.12747      -14.94109
C          1.17324      -17.56283      -16.66176
C          1.68801      -18.37518      -17.72003
C          1.27421      -17.99210      -19.01187
C         -0.10601      -17.72418      -19.12632
C         -0.14355      -16.45646      -18.47786
C          0.64554      -16.33327      -17.18829
O          2.20297      -19.63044      -17.52835
O          2.26851      -17.24358      -19.64999
N         -0.71652      -15.30334      -18.85574
S         -0.27587      -14.17102      -17.70854
N          0.62709      -15.09581      -16.66359
C         -1.01291      -18.81887      -18.52908
C         -0.68584      -20.14406      -18.23043
C         -1.59901      -20.82773      -17.39191
C         -2.68825      -20.04832      -17.13684
S         -2.61209      -18.53141      -17.96135
C          2.90631      -20.33372      -18.59482
C          2.29188      -20.63675      -19.97830
C          1.90463      -16.33107      -20.69763
C          2.77490      -16.65178      -21.88999
H         -0.28575        7.03518        9.44843
H         -0.76465        5.66225       11.60544
H          3.58239        1.74386        6.37454
H          1.93627        0.31054        7.16835
H          4.32857       -0.26645       12.04222
H          4.43118       -1.67764       10.99365
H          1.90921       -0.83787       12.54245
H          3.04111       -2.11282       13.02612
H          2.07539       -2.29343       11.55025
H          1.38917        8.28646        8.36736
H          0.00833       10.64652        4.14575
H         -0.07726        9.19514        3.15539
H          2.50885       10.58386        4.04971
H          1.80716       10.58615        2.42493
H          2.44690        9.08469        3.11066
H          3.81491        0.43063        4.00534
H          6.37051        0.55923        3.36243
H          9.55994        0.13566        2.60627
H          7.88191       -1.66021        1.78550
H          9.74925        0.50366        5.55629
H          9.80186        2.11081        6.24110
H         11.43904        1.23978        3.77943
H         11.99479        1.17407        5.45389
H         11.63326        2.72720        4.73664
H         11.50238        4.82752        1.59952
H         12.26324        4.48227        3.18049
H         10.64159        6.99845        2.49609
H         12.40136        6.90809        2.70126
H         11.31399        6.64374        4.07892
H          5.01227        0.37571       -1.56431
H          3.29510       -6.25514       -3.82408
H          3.61607       -7.02670       -1.72554
H          9.07709       -7.13813       -1.42816
H          8.30943       -8.71334       -1.23354
H          8.18141       -6.45696        0.85852
H          9.29905       -7.83346        0.90700
H          7.55071       -8.09641        1.05613
H          1.64471       -0.47832       -4.98928
H          0.90635        3.07687       -0.90185
H          0.15476        3.51988       -2.42663
H          3.11761        3.90433       -1.71831
H          1.87946        5.16346       -1.82746
H          2.40056        4.30672       -3.28700
H          2.85923       -7.55112       -5.86727
H          4.04445       -6.77605       -8.09008
H          5.91733       -5.92828      -10.77896
H          5.36684       -8.42526      -10.57462
H          7.63998       -3.59124       -8.46836
H          6.79402       -2.44412       -9.47963
H          7.81713       -5.20889      -10.41485
H          8.68010       -3.69027      -10.63368
H          7.15398       -3.94775      -11.46464
H          4.26641       -1.42474      -12.69079
H          5.77993       -0.88054      -11.90571
H          2.98796        0.31337      -11.44721
H          4.32684        1.07447      -12.32704
H          4.43026        0.80558      -10.57470
H          0.85662       -8.91431      -12.37674
H          1.61571      -16.06653      -11.82251
H          4.98903      -13.31388      -11.95606
H          4.32654      -17.52137       -8.47261
H          5.99796      -17.21213       -8.93370
H          3.88920      -18.53963      -10.74377
H          5.16344      -19.36366       -9.84163
H          5.58967      -18.27679      -11.16441
H         -2.29668      -11.92636      -14.18126
H         -3.98728       -8.12456      -10.63859
H         -5.16803       -8.64674      -11.82841
H         -2.96295       -6.56251      -12.26418
H         -4.70832       -6.28244      -12.17325
H         -4.02269       -7.15543      -13.55408
H          0.43306      -18.52773      -12.07541
H          1.43786      -19.60845      -14.28627
H          0.25193      -20.60570      -18.44420
H         -1.41576      -21.81771      -16.98019
H         -3.52517      -20.30499      -16.50349
H          3.09334      -21.32177      -18.15573
H          3.89314      -19.87662      -18.73855
H          1.23355      -20.89902      -19.99435
H          2.80588      -21.49617      -20.42719
H          2.42232      -19.80666      -20.67677
H          2.11078      -15.30464      -20.35917
H          0.85443      -16.38196      -20.99820
H          3.83112      -16.50250      -21.64392
H          2.51741      -16.02525      -22.74788
H          2.65047      -17.70431      -22.16181
