236
PBT-S-TTz.sdf
C          4.25890       -7.05013       -5.53128
S          3.95485       -6.02885       -4.22100
C          5.49720       -5.22284       -4.34540
C          6.17453       -5.66725       -5.49435
C          5.45761       -6.75848       -6.12300
C          6.05009       -4.23739       -3.49583
C          7.29224       -3.62225       -3.82750
C          7.94819       -4.05288       -4.98654
C          7.40240       -5.04447       -5.83335
C          8.01945       -5.40117       -7.14923
C          7.38695       -5.64149       -8.36465
C          8.28059       -5.95797       -9.43124
C          9.59393       -5.87950       -9.03746
S          9.71616       -5.62359       -7.35768
S         10.97142       -5.99454      -10.12327
C         12.02466       -7.18526       -9.25159
C          5.34405       -3.90172       -2.22626
C          4.73469       -4.76521       -1.31843
C          4.16067       -4.10598       -0.19053
C          4.41381       -2.75584       -0.20438
S          5.12184       -2.28098       -1.68441
S          4.00002       -1.59427        1.04924
C          4.79093       -2.33881        2.51382
C          8.05131       -2.55959       -3.19152
C          9.17061       -2.14834       -3.88136
S          9.44538       -3.21178       -5.15854
C         10.03975       -1.01133       -3.60170
C         10.86123       -0.27243       -4.45665
C         11.47008        0.83270       -3.75641
C         11.10744        0.92953       -2.42798
S         10.08742       -0.36888       -2.00371
C         11.07527       -0.46903       -5.94002
C         12.27059       -1.35089       -6.27872
C         11.51251        1.97182       -1.50573
S         11.00380        2.01651        0.15865
C         11.92862        3.46220        0.34917
C         12.51586        3.79081       -0.83542
N         12.29467        2.96628       -1.89688
N         12.16273        4.27401        1.41489
C         12.96006        5.26039        1.03562
S         13.43716        5.24502       -0.63782
C         13.40162        6.25361        1.99285
S         14.37186        7.60656        1.61597
C         14.42879        8.15537        3.24615
C         13.69997        7.31960        4.09167
C         13.11013        6.23970        3.34468
C         13.57516        7.49586        5.58913
C         12.77272        6.43693        6.32413
C         13.31071       -7.40729      -10.02666
C          4.56296       -1.45827        3.73357
C         15.20914        9.32931        3.59088
S         14.67624       10.50107        4.69830
C         16.19840       11.32819        4.75218
C         17.01818       10.87328        3.71279
C         16.43579        9.70004        3.08766
C         16.61356       12.35942        5.62749
C         17.84790       13.03092        5.40067
C         18.63572       12.62879        4.30486
C         18.24014       11.55427        3.46917
C         19.01594       11.16561        2.25373
C         18.53232       10.83572        0.99210
C         19.55115       10.49139        0.05298
C         20.80916       10.64072        0.58490
S         20.73238       10.98735        2.25641
S         22.34095       10.40973       -0.24719
C         22.18649       11.56182       -1.65070
C         15.76808       12.69276        6.81463
C         15.08646       11.83725        7.67436
C         14.41966       12.50527        8.74764
C         14.64773       13.86013        8.72773
S         15.43753       14.32266        7.28504
S         14.13158       15.03759        9.92860
C         14.84348       14.34549       11.45897
C         18.49130       14.12302        6.10344
C         19.62369       14.61575        5.49796
S         20.04123       13.63907        4.17932
C         20.38296       15.79110        5.87089
C         19.90043       17.05313        6.22272
C         20.99729       17.94250        6.50675
C         22.24484       17.36166        6.39087
S         22.09764       15.73186        5.91877
C         18.44144       17.45472        6.27108
C         18.17292       18.91131        6.62840
C         23.50451       18.02666        6.64506
S         25.04621       17.26831        6.41127
C         25.78475       18.72306        6.98187
C         24.82324       19.63979        7.27576
N         23.52831       19.27562        7.08487
N         27.07682       19.08561        7.17876
C         27.10290       20.32353        7.63268
S         25.56186       21.09440        7.85227
C         28.36836       20.98297        7.87079
S         28.55557       22.54879        8.50703
C         30.26363       22.53314        8.29862
C         30.71445       21.31861        7.81567
C         29.60594       20.41849        7.59524
C         32.15528       20.98042        7.49525
C         32.41912       19.61045        6.90005
C         23.46705       11.54386       -2.47354
C         14.52233       15.24805       12.64190
C         31.04211       23.71834        8.56725
S         32.58854       23.66441        9.24431
C         32.91814       25.33893        9.00236
C         31.75633       25.97822        8.54757
C         30.69632       25.02010        8.30686
C         34.12052       26.05525        9.22016
C         34.14741       27.46210        9.01390
C         32.99164       28.09371        8.53225
C         31.79090       27.37812        8.34017
C         30.50370       28.04643        8.00092
C         29.24073       27.79578        8.52736
C         28.20572       28.57624        7.93490
C         28.70429       29.48055        7.02918
S         30.37666       29.25965        6.78915
S         27.75567       30.72977        6.23900
C         28.23989       30.50406        4.50581
C         35.40020       25.36889        9.59318
C         36.69502       25.64713        9.16461
C         37.69006       24.79007        9.72937
C         37.13759       23.81071       10.51911
S         35.46929       24.07312       10.73617
S         38.02919       22.52788       11.32726
C         37.38090       21.04120       10.49713
C         35.17254       28.44809        9.29638
C         34.83217       29.74806        8.98447
S         33.32233       29.75734        8.22615
C         35.59635       30.95467        9.24889
C         35.16336       32.26191        9.47293
C         36.26928       33.10635        9.85513
C         37.48483       32.45408        9.91904
S         37.31120       30.84372        9.38776
C         33.74719       32.78821        9.46149
C         33.31458       33.37063        8.12233
C         38.73458       33.02279       10.38360
S         40.23351       32.13685       10.41698
C         40.98733       33.53567       11.09954
C         40.06274       34.52464       11.24500
N         38.78791       34.26173       10.84564
N         42.26498       33.80234       11.48646
C         42.31776       35.04163       11.94358
S         40.81586       35.92075       11.93516
C         43.57274       35.61443       12.39455
S         43.72094       37.19007       13.05600
C         45.41083       37.04312       13.23445
C         45.88917       35.81864       12.81285
C         44.81090       34.99270       12.34901
C         47.33549       35.41908       12.81706
C         47.76786       34.77348       14.12375
C         27.53911       31.53141        3.63702
C         38.00497       19.79318       11.10855
H          3.54621       -7.80980       -5.82228
H          5.81147       -7.31106       -6.98414
H          6.31380       -5.59325       -8.50176
H          7.96946       -6.18240      -10.44497
H         11.48212       -8.13003       -9.14922
H         12.27046       -6.81343       -8.25300
H          4.68105       -5.83897       -1.45321
H          3.61920       -4.61326        0.59853
H          5.86618       -2.44899        2.33702
H          4.37075       -3.33202        2.70171
H          7.73284       -2.04601       -2.29354
H         12.12324        1.55714       -4.23247
H         11.22818        0.51074       -6.40958
H         10.16907       -0.86229       -6.41064
H         13.20963       -0.86804       -5.98977
H         12.30573       -1.53358       -7.35830
H         12.23233       -2.32135       -5.77540
H         12.50512        5.45334        3.78410
H         13.09184        8.45604        5.79259
H         14.58389        7.52803        6.02093
H         11.73879        6.40634        5.96503
H         12.74735        6.66602        7.39433
H         13.21215        5.44440        6.20263
H         13.11665       -7.78630      -11.03561
H         13.93061       -8.14599       -9.50790
H         13.89487       -6.48395      -10.10629
H          5.01121       -0.46716        3.60454
H          5.02203       -1.91340        4.61828
H          3.49563       -1.33302        3.94608
H         16.93486        9.12109        2.32038
H         17.47825       10.82179        0.74200
H         19.35722       10.17293       -0.96409
H         22.00186       12.57647       -1.28208
H         21.34373       11.26782       -2.28453
H         15.06487       10.76073        7.55842
H         13.83513       12.00149        9.50794
H         15.92981       14.25435       11.35324
H         14.43196       13.34821       11.64392
H         18.09891       14.58777        6.99573
H         20.88436       18.98409        6.78872
H         17.93003       16.83770        7.01708
H         17.98416       17.24393        5.29836
H         18.52338       19.13833        7.64101
H         17.09752       19.11647        6.59465
H         18.66750       19.59687        5.93386
H         29.70092       19.42503        7.19919
H         32.74138       21.03934        8.41795
H         32.53956       21.73734        6.79909
H         32.11400       18.81875        7.59324
H         33.49128       19.49327        6.71157
H         31.88759       19.47305        5.95540
H         24.32675       11.88580       -1.88683
H         23.37226       12.21226       -3.33647
H         23.68543       10.54145       -2.85796
H         14.96193       16.24404       12.52059
H         14.93041       14.82019       13.56461
H         13.44168       15.35914       12.78291
H         29.73310       25.27915        7.88467
H         29.04843       27.05887        9.29838
H         27.15619       28.49845        8.19361
H         27.96546       29.49352        4.18760
H         29.32158       30.62245        4.39582
H         36.94137       26.44570        8.47526
H         38.75321       24.87882        9.53780
H         37.61746       21.08240        9.42847
H         36.29319       20.99093       10.60653
H         36.10931       28.20272        9.78097
H         36.15617       34.14901       10.13440
H         33.65837       33.57597       10.22130
H         33.04296       32.01448        9.78211
H         33.90047       34.26038        7.87068
H         32.26017       33.66620        8.16750
H         33.42742       32.65715        7.30012
H         45.97994       37.87131       13.63470
H         44.94034       33.98381       11.97056
H         47.95694       36.30371       12.63024
H         47.52575       34.72536       11.98918
H         47.62197       35.45292       14.97021
H         48.82952       34.50961       14.08041
H         47.19827       33.85956       14.32259
H         26.44951       31.44909        3.71045
H         27.81447       31.37729        2.58850
H         27.83210       32.55135        3.90905
H         39.09573       19.79142       11.00174
H         37.62438       18.89673       10.60728
H         37.75977       19.70290       12.17224
