272
PBT1-C.sdf
C          0.44918        6.43047       -4.38295
C         -0.77511        7.14192       -4.20895
C         -1.01745        7.75635       -2.97546
C         -0.16441        7.54988       -1.85220
C          1.03752        6.79311       -2.01249
C          1.34408        6.30472       -3.28476
C         -1.89843        7.35854       -5.10790
C         -2.85050        8.21674       -4.62767
S         -2.42355        8.79276       -3.10173
C          2.07454        6.39445       -1.06167
C          3.17838        5.78996       -1.62121
S          2.93719        5.62129       -3.28527
C          0.80168        5.89913       -5.73608
C         -0.51331        8.09792       -0.50926
C          4.41565        5.35711       -1.00126
C          5.38823        4.53919       -1.54605
C          6.48521        4.30001       -0.66389
C          6.36386        4.97196        0.53673
S          4.91330        5.90396        0.54129
C          7.32071        5.02263        1.63102
S          9.00178        4.97083        1.32287
C          9.46707        5.21645        2.98327
C          8.32462        5.37198        3.76854
C          7.11662        5.03478        2.99582
C          8.19569        5.69789        5.22449
C          7.10881        4.91104        5.84876
C          6.09790        4.31076        5.02976
C          5.86677        4.69723        3.65766
C          6.73302        4.73429        7.17387
S          5.68587        3.35373        7.32215
C          5.48677        3.23754        5.63704
C         10.89935        5.15977        3.29425
C         11.94976        5.30557        2.39608
C         13.23782        5.14877        2.98764
S         11.53207        4.77853        4.85119
O          8.86425        6.54609        5.79977
O          4.75198        4.66130        3.16184
C          7.04043        5.49616        8.42798
C          8.17293        4.88779        9.22497
C          4.71381        2.11781        4.99304
C          5.58832        1.30041        4.03778
C         13.17595        4.86846        4.33838
C         -1.84222        8.11846       -0.04961
C         -2.19330        8.65132        1.18971
C         -1.20506        9.08101        2.07049
C          0.12871        9.00305        1.67595
C          0.45512        8.59337        0.38113
C          0.47706        6.60882       -6.90564
C          0.76699        6.11979       -8.17986
C          1.50365        4.94804       -8.32914
C          1.91186        4.26196       -7.18863
C          1.50334        4.69436       -5.92461
C         -1.57487        9.63808        3.41443
C         -1.72743        8.55850        4.47099
C          1.84518        4.42827       -9.69600
C          3.12882        5.02798      -10.24261
C         16.15650        4.85857        8.53107
C         15.70225        4.73750        7.18150
C         16.61242        4.29681        6.21541
C         17.99988        4.11837        6.50914
C         18.46148        4.28812        7.85203
C         17.51949        4.58406        8.83757
C         14.40621        5.01538        6.56554
C         14.30334        4.68286        5.23486
S         15.76199        3.97983        4.72165
C         19.79799        4.22199        8.44509
C         19.83027        4.27673        9.82022
S         18.26061        4.48593       10.40424
C         15.18397        5.19200        9.61665
C         18.98681        3.76439        5.44594
C         20.94989        4.14005       10.72953
C         20.98245        4.42898       12.08110
C         22.24967        4.17100       12.68538
C         23.17189        3.66667       11.79022
S         22.44158        3.46635       10.24363
C         24.52647        3.22272       12.05642
S         24.93965        2.52840       13.56563
C         26.54816        2.08232       13.08028
C         26.73750        2.42647       11.74401
C         25.65841        3.30053       11.27054
C         27.87395        2.11386       10.83717
C         28.20478        3.27247        9.98354
C         27.23280        4.30846        9.77226
C         25.83166        4.13128       10.08352
C         29.29867        3.53092        9.17103
S         29.36679        5.21875        8.77291
C         27.81331        5.50391        9.41093
C         27.43094        1.49879       14.09110
C         27.04826        0.88974       15.27760
C         28.14646        0.47276       16.08615
S         29.14997        1.59239       14.02650
O         28.40102        1.01299       10.75261
O         24.95070        4.64944        9.41391
C         30.37186        2.63967        8.62067
C         31.62882        2.63324        9.46628
C         27.25756        6.88794        9.59119
C         26.49139        7.40762        8.39226
C         29.37661        0.78270       15.53577
C         18.89537        4.29259        4.14662
C         19.80198        3.95410        3.14138
C         20.90577        3.15577        3.43130
C         21.06939        2.68103        4.72918
C         20.08303        2.91580        5.68864
C         13.86658        4.70503        9.59739
C         12.95059        4.99688       10.60918
C         13.35580        5.69744       11.74262
C         14.67180        6.13935       11.82365
C         15.53843        5.95690       10.74460
C         21.88591        2.78395        2.35619
C         22.98241        3.81784        2.17756
C         12.38830        5.98055       12.85594
C         12.32143        4.85244       13.87028
C         34.47198        0.24062       16.15097
C         33.05822        0.17560       16.34751
C         32.58024       -0.51852       17.46235
C         33.43895       -1.29303       18.29895
C         34.84959       -1.26124       18.07705
C         35.33469       -0.44006       17.05796
C         31.93834        0.68194       15.55440
C         30.68777        0.47393       16.09309
S         30.87195       -0.22118       17.63674
C         35.95737       -1.96691       18.71959
C         37.21159       -1.54092       18.34700
S         37.06705       -0.36740       17.14159
C         35.03200        1.04871       15.02439
C         32.89502       -2.17252       19.37598
C         38.50948       -1.91282       18.86951
C         39.74844       -1.65838       18.31085
C         40.83437       -2.11141       19.11752
C         40.41542       -2.69636       20.29557
S         38.69657       -2.65817       20.39515
C         41.24828       -3.16949       21.39579
S         42.72231       -2.43421       21.77345
C         42.97477       -3.37026       23.21247
C         41.89027       -4.21110       23.41074
C         41.04518       -4.27873       22.21799
C         41.56987       -5.09436       24.56765
C         41.06152       -6.40573       24.10622
C         40.52649       -6.53460       22.77245
C         40.13413       -5.38995       21.96818
C         40.90172       -7.60611       24.77179
S         40.70303       -8.90631       23.64148
C         40.55108       -7.83813       22.32008
C         44.22792       -3.21014       23.92966
C         45.11234       -2.13381       23.86756
C         46.28189       -2.30726       24.66779
S         44.90446       -4.45593       24.90560
O         41.62994       -4.74994       25.74049
O         39.19238       -5.40956       21.22172
C         40.86924       -7.95065       26.23274
C         42.20137       -8.43281       26.76786
C         40.51954       -8.31595       20.89912
C         39.13245       -8.64510       20.38512
C         46.28531       -3.52744       25.30018
C         31.69874       -2.88919       19.20020
C         31.18824       -3.73780       20.18158
C         31.91840       -3.98707       21.34048
C         33.13731       -3.33796       21.51996
C         33.56850       -2.38728       20.59229
C         34.44860        2.25964       14.61506
C         34.95312        3.00248       13.54423
C         36.13350        2.61557       12.91224
C         36.77939        1.46391       13.34770
C         36.19357        0.66314       14.32800
C         31.39334       -4.92963       22.38274
C         31.77752       -6.37306       22.10836
C         36.69580        3.40764       11.76704
C         37.60813        4.53180       12.22403
H         -1.99417        6.92722       -6.09613
H         -3.75329        8.54932       -5.12316
H          2.02917        6.59422        0.00079
H          5.32901        4.12257       -2.54442
H          7.33075        3.67696       -0.92678
H         11.82272        5.52155        1.34096
H         14.16599        5.25726        2.43780
H          6.13972        5.51625        9.06169
H          7.25033        6.54587        8.19498
H          7.96500        3.84320        9.47942
H          8.31112        5.43771       10.16123
H          9.10932        4.92236        8.65966
H          3.85879        2.52222        4.43895
H          4.31018        1.44140        5.75357
H          5.85192        1.86911        3.13802
H          5.05593        0.40200        3.70758
H          6.52378        0.98463        4.51302
H         -2.65253        7.73055       -0.66013
H         -3.24569        8.71901        1.45310
H          0.92640        9.28278        2.35981
H          1.50107        8.66087        0.09315
H         -0.02603        7.57057       -6.85225
H          0.41778        6.67330       -9.04753
H          2.53353        3.37337       -7.26796
H          1.77392        4.05997       -5.08521
H         -2.50976       10.20273        3.32017
H         -0.81247       10.36048        3.72722
H         -2.50114        7.83365        4.19626
H         -2.01178        9.01473        5.42419
H         -0.79077        8.01114        4.62068
H          1.01337        4.64160      -10.37705
H          1.93361        3.33654       -9.65481
H          3.06369        6.11882      -10.31507
H          3.32324        4.63143      -11.24392
H          3.98650        4.78323       -9.60700
H         13.56903        5.45489        7.09257
H         20.70786        4.08251        7.87535
H         20.12858        4.80245       12.63342
H         22.45006        4.33222       13.73792
H         26.01807        0.73596       15.57873
H         28.02077       -0.03959       17.03338
H         30.63202        2.98144        7.60903
H         29.99108        1.62031        8.49517
H         32.04732        3.64049        9.56526
H         32.38992        2.00089        8.99816
H         31.42539        2.24663       10.46900
H         28.06207        7.58707        9.84779
H         26.58782        6.88482       10.46200
H         27.15641        7.55626        7.53749
H         26.03056        8.37090        8.63823
H         25.69327        6.72426        8.08955
H         18.09855        4.97810        3.87488
H         19.63269        4.32624        2.13423
H         21.94772        2.10100        5.00261
H         20.20951        2.41994        6.64785
H         13.51442        4.07746        8.78375
H         11.92499        4.65368       10.50274
H         15.03674        6.64280       12.71584
H         16.52081        6.41258       10.83361
H         21.34327        2.64666        1.41411
H         22.32940        1.81079        2.59645
H         22.57143        4.79759        1.91236
H         23.65607        3.50238        1.37464
H         23.57379        3.93576        3.09171
H         11.39578        6.16002       12.42880
H         12.67910        6.91208       13.35668
H         12.01757        3.90942       13.40338
H         11.59065        5.09913       14.64720
H         13.29071        4.69130       14.35415
H         32.05722        1.17510       14.59896
H         35.83483       -2.72347       19.48406
H         39.88474       -1.14097       17.36912
H         41.87388       -1.97519       18.84579
H         44.93702       -1.23931       23.28105
H         47.07331       -1.57421       24.77307
H         40.12170       -8.75126       26.39288
H         40.50567       -7.10101       26.81447
H         42.55747       -9.31400       26.22452
H         42.10185       -8.71009       27.82198
H         42.95872       -7.64919       26.68565
H         41.17349       -9.18758       20.77924
H         40.94964       -7.53700       20.25266
H         38.72329       -9.51643       20.89964
H         39.18922       -8.87140       19.31682
H         38.43978       -7.80934       20.51427
H         47.03939       -3.91962       25.97015
H         31.12382       -2.80541       18.28301
H         30.22327       -4.20996       20.01725
H         33.75649       -3.55124       22.38830
H         34.47274       -1.83678       20.84018
H         33.57052        2.65446       15.11850
H         34.41396        3.88840       13.21879
H         37.72969        1.15982       12.91564
H         36.69625       -0.27569       14.54249
H         30.30201       -4.83598       22.42992
H         31.76864       -4.62510       23.36664
H         31.40086       -6.71123       21.13703
H         31.35398       -7.02035       22.88203
H         32.86493       -6.50387       22.11157
H         35.86947        3.81143       11.17173
H         37.24846        2.73305       11.10205
H         37.08184        5.23494       12.87792
H         37.97489        5.08448       11.35345
H         38.47510        4.14623       12.77116
