224
PBT1Cl-Bz.sdf
C          3.07952       -3.32987       -3.34922
C          3.33416       -4.32606       -4.32559
C          4.59917       -4.35849       -4.92514
C          5.55965       -3.35283       -4.66615
C          5.29635       -2.33269       -3.71260
C          4.06584       -2.36687       -3.03272
C          2.48494       -5.36099       -4.87913
C          3.12912       -6.20768       -5.74109
S          4.75300       -5.78138       -5.92042
C          6.07587       -1.18752       -3.28345
C          5.50860       -0.46170       -2.26391
S          4.01903       -1.13372       -1.81877
C          1.78254       -3.40015       -2.62171
C          6.82038       -3.35521       -5.45384
C          6.98828       -3.61344       -6.80744
C          8.34229       -3.58006       -7.23509
C          9.18979       -3.17244       -6.23079
S          8.36126       -3.08954       -4.73227
C          1.12322       -4.53040       -2.15600
C         -0.36246       -2.89992       -1.44035
S          0.81493       -2.00863       -2.30241
C          6.03365        0.69632       -1.58698
S          7.71141        0.90163       -1.29446
C          7.47460        2.36224       -0.43466
C          6.13196        2.70091       -0.41331
C          5.30990        1.75669       -1.08100
C          8.58371        3.14181        0.10945
C          8.54101        4.55587        0.12430
C          9.53189        5.37760        0.69145
C         10.68443        4.87969        1.31014
C         10.77205        3.46747        1.33121
C          9.74008        2.59044        0.72823
N         11.70902        2.68340        1.88510
N         11.30257        1.45571        1.57980
N         10.13673        1.31342        0.92922
C         11.67657        5.72648        1.95453
C         12.12543        0.32682        1.97520
C         13.18771       -0.00386        0.94085
C         11.47824        6.91126        2.63616
C         12.67786        7.41434        3.20651
C         13.76838        6.61505        2.92735
S         13.33962        5.33512        1.89131
C         10.64887       -2.83289       -6.31125
C         -1.49260       -2.21302       -0.73211
C         -1.20577       -2.04503        0.75576
C         11.54010       -3.99757       -5.91854
F          7.48759        5.18537       -0.42676
F          9.33655        6.70658        0.63705
C         -0.12512       -4.25220       -1.53324
Cl         8.78924       -3.95988       -8.84237
C         17.58984        8.07783        5.90033
C         16.86116        7.53757        4.81739
C         17.56817        7.00985        3.73330
C         18.96922        7.13005        3.64404
C         19.70461        7.71487        4.70548
C         18.99814        8.13472        5.84722
C         15.44447        7.45287        4.58162
C         15.10195        6.80049        3.42337
S         16.48219        6.20515        2.65079
C         21.11423        7.99629        4.85630
C         21.45783        8.49248        6.08931
S         20.09450        8.64769        7.07706
C         16.82364        8.49720        7.10606
C         19.64112        6.66816        2.40064
C         19.22553        6.82076        1.08430
C         20.06841        6.17766        0.13870
C         21.19322        5.64856        0.72801
S         21.08585        5.73361        2.43617
C         15.73975        7.86307        7.70051
C         16.00780        9.63111        9.17636
S         17.14682        9.96825        7.94724
C         22.76229        8.82746        6.58595
S         24.15509        7.93850        6.14295
C         25.16500        8.84518        7.18175
C         24.44566        9.84427        7.81559
C         23.07273        9.84250        7.46629
C         26.60122        8.60358        7.27300
C         27.50217        9.67518        7.46172
C         28.89993        9.52551        7.59417
C         29.54153        8.28071        7.55413
C         28.67643        7.17822        7.35997
C         27.21455        7.32386        7.21750
N         28.98018        5.87574        7.27832
N         27.79349        5.29809        7.09323
N         26.70501        6.08165        7.05983
C         30.97170        8.05634        7.68648
C         27.72863        3.85612        6.94821
C         27.94197        3.40779        5.51219
C         31.75417        7.08959        7.07620
C         33.11124        7.17579        7.46934
C         33.34739        8.20319        8.33580
S         31.90157        9.01272        8.74758
C         22.40014        5.04057        0.07848
C         15.91055       10.49137       10.40109
C         16.67409        9.88203       11.57218
C         22.32217        3.52554        0.01417
F         27.02937       10.93352        7.51028
F         29.61821       10.64916        7.73954
C         15.24313        8.53367        8.85334
Cl        19.69024        6.14175       -1.52969
C         37.06562       11.18602       10.03248
C         36.33932       10.05096        9.60743
C         36.99646        8.81661        9.54591
C         38.38284        8.71652        9.77316
C         39.12329        9.85961       10.17498
C         38.43556       11.07529       10.34415
C         34.98482        9.92146        9.14427
C         34.60739        8.63685        8.86325
S         35.86193        7.55211        9.20661
C         40.53094       10.04311       10.44189
C         40.86056       11.28905       10.91385
S         39.49426       12.28577       10.97663
C         36.31116       12.46040       10.17897
C         39.06156        7.41789        9.51052
C         38.84501        6.51925        8.47340
C         39.69484        5.38002        8.51240
C         40.61387        5.45581        9.53390
S         40.25424        6.77048       10.57238
C         35.03771       12.65024       10.70128
C         35.53569       14.83489       10.10091
S         36.91096       13.96194        9.58166
C         42.14732       11.75916       11.34730
S         43.26536       10.73141       12.14191
C         44.38230       12.00029       12.40161
C         43.91836       13.17684       11.83592
C         42.64731       13.03731       11.22114
C         45.66724       11.78631       13.06438
C         46.81635       12.51228       12.67689
C         48.08214       12.39882       13.28996
C         48.34537       11.54635       14.37204
C         47.22388       10.78837       14.79134
C         45.88738       10.89871       14.15294
N         47.13749        9.88633       15.78299
N         45.86269        9.49654       15.72962
N         45.06291       10.05434       14.80834
C         49.63811       11.38296       15.03596
C         45.39407        8.49357       16.66977
C         45.64067        7.07848       16.17876
C         50.17875       10.24477       15.60876
C         51.46351       10.46339       16.17859
C         51.87536       11.76424       16.02296
S         50.70293       12.71765       15.22619
C         41.77117        4.54848        9.83550
C         35.46659       16.32614        9.95591
C         35.82717       17.03561       11.25541
C         43.02144        4.93593        9.05261
F         46.72996       13.37059       11.64297
F         49.07008       13.14770       12.77276
C         34.57066       13.99082       10.60102
Cl        39.57005        4.12257        7.35865
H          1.43763       -5.49091       -4.63777
H          2.71886       -7.06466       -6.25807
H          7.03661       -0.91250       -3.69743
H          6.16752       -3.84475       -7.47447
H          1.51273       -5.53455       -2.26878
H          5.74520        3.59959        0.05379
H          4.23483        1.85549       -1.17491
H         11.46899       -0.52723        2.16349
H         12.60680        0.59602        2.92407
H         12.73205       -0.31246       -0.00515
H         13.82554       -0.81883        1.29776
H         13.82940        0.86062        0.73622
H         10.50945        7.38158        2.75754
H         12.72609        8.31379        3.80894
H         10.86860       -1.96835       -5.67271
H         10.89980       -2.51900       -7.33244
H         -2.40586       -2.80878       -0.85143
H         -1.69669       -1.23233       -1.17628
H         -1.03388       -3.01163        1.24267
H         -2.05487       -1.56523        1.25369
H         -0.31954       -1.42376        0.92437
H         11.34597       -4.31808       -4.89003
H         12.59262       -3.70432       -5.98794
H         11.38224       -4.85755       -6.57749
H         -0.78862       -5.00736       -1.12965
H         14.69587        7.86391        5.24595
H         21.85854        7.81901        4.09109
H         18.32096        7.34541        0.80152
H         15.31005        6.94095        7.32874
H         24.88422       10.56075        8.50001
H         22.34974       10.54942        7.85591
H         26.76584        3.51563        7.33551
H         28.51673        3.43383        7.58596
H         27.14463        3.78017        4.86184
H         27.95153        2.31445        5.45358
H         28.89577        3.77414        5.11538
H         31.37108        6.35564        6.38176
H         33.91232        6.53686        7.09506
H         23.30627        5.34034        0.61923
H         22.51468        5.43783       -0.93794
H         14.85622       10.60025       10.68292
H         16.29043       11.50024       10.20466
H         16.29340        8.88544       11.82315
H         16.57370       10.51326       12.46112
H         17.74135        9.78363       11.34550
H         22.23644        3.08810        1.01413
H         23.22623        3.12317       -0.45385
H         21.45886        3.19747       -0.57397
H         14.40568        8.18933        9.44817
H         34.31108       10.75995        9.00133
H         41.28129        9.27333       10.32643
H         38.10007        6.66603        7.70147
H         34.43492       11.84784       11.10971
H         44.46883       14.11024       11.85112
H         42.12390       13.84541       10.72359
H         44.33257        8.67198       16.86068
H         45.93651        8.65868       17.61039
H         45.06743        6.87135       15.26970
H         45.34426        6.35360       16.94393
H         46.69974        6.91260       15.95094
H         49.67174        9.28705       15.62452
H         52.05121        9.70116       16.67268
H         52.80309       12.20772       16.34681
H         41.50427        3.51368        9.59193
H         42.00294        4.56388       10.90656
H         34.44837       16.61242        9.66523
H         36.13033       16.67301        9.15584
H         35.15706       16.74218       12.07126
H         35.74775       18.12035       11.12921
H         36.85216       16.80485       11.56513
H         42.85630        4.87428        7.97127
H         43.84671        4.26100        9.30390
H         43.34089        5.95786        9.28450
H         33.58801       14.32143       10.91618
