224
PBT4Cl-Bz.sdf
C          9.41613        4.36581        8.15036
C          8.94254        5.69595        8.30463
C          8.45166        6.36890        7.17730
C          8.72737        5.91059        5.86888
C          9.34295        4.63453        5.70784
C          9.56218        3.82855        6.84455
C          8.94327        6.59972        9.43463
C          8.17295        7.71808        9.24298
S          7.47997        7.71898        7.70066
C          9.90015        3.98206        4.55246
C         10.30159        2.67342        4.73368
S          9.98876        2.21011        6.34037
C          9.78695        3.60952        9.39249
C          8.38764        6.79603        4.69697
C          7.80214        6.55941        3.45454
C          7.50307        7.78149        2.73067
C          7.77254        8.91161        3.47372
S          8.79640        8.49730        4.77794
C          9.16962        3.53985       10.64542
C         11.08971        2.27882       11.09513
S         11.26143        2.70153        9.44814
C         10.85984        1.79124        3.72015
S         11.25772        2.43536        2.17777
C         11.51142        0.90076        1.47599
C         11.57494       -0.06531        2.46344
C         11.16520        0.44190        3.74835
C         11.43100        0.72948        0.03262
C         11.49469       -0.47973       -0.67308
C         10.60894       -0.73449       -1.75008
C          9.37373       -0.05798       -1.82073
C          9.85156        1.27211       -1.82292
C         10.84862        1.68956       -0.81547
N          9.85407        2.21310       -2.79376
N         10.76300        3.10741       -2.33400
N         11.17889        2.96809       -1.05992
C          8.45030       -0.47932       -0.67085
C         11.55811        3.91856       -3.24695
C         12.93515        3.31846       -3.54102
C          8.57353       -1.61847        0.12366
C          7.53654       -1.75733        1.09477
C          6.57073       -0.78308        0.98939
S          7.08199        0.43295       -0.13436
C          7.30519       10.33429        3.26835
C         12.13646        1.43197       11.77265
C         11.70906       -0.02037       11.95186
C          8.20663       11.18000        2.38633
F         12.39011       -1.41716       -0.33335
F         10.87908       -1.70567       -2.63720
C          9.96722        2.86789       11.63489
Cl         6.79540        7.83932        1.16569
Cl         7.34858        5.02188        2.83242
Cl         9.56698        2.80402       13.30868
Cl         7.62583        4.20060       11.05538
C          1.75201        0.32188        2.66593
C          3.02965       -0.31442        2.41424
C          3.16099       -1.67444        2.73282
C          2.19521       -2.36602        3.49312
C          0.93602       -1.76644        3.72671
C          0.68725       -0.46891        3.22263
C          4.33095        0.17052        1.91157
C          5.25491       -0.82007        1.62337
S          4.58848       -2.33619        2.02695
C         -0.18762       -2.24505        4.49140
C         -1.36007       -1.55254        4.30805
S         -1.01431       -0.12009        3.44861
C          1.60685        1.79391        2.32263
C          2.52257       -3.73170        4.04489
C          1.86922       -4.96321        4.00028
C          2.63025       -6.03462        4.60225
C          3.86261       -5.62209        5.06840
S          3.98871       -3.91729        4.97722
C          0.68955        2.57093        1.60483
C          2.19477        4.26257        2.12568
S          2.74125        2.92913        3.05199
C         -2.67852       -1.94567        4.79686
S         -2.97811       -3.56505        5.32770
C         -4.63250       -3.27967        5.67405
C         -4.93304       -1.94592        5.47478
C         -3.83878       -1.20207        4.91890
C         -5.54835       -4.39629        5.89310
C         -6.88663       -4.42775        5.45011
C         -7.42696       -5.57749        4.81652
C         -6.55740       -6.52317        4.23862
C         -5.75964       -6.82434        5.36609
C         -5.16326       -5.71739        6.15957
N         -5.74646       -7.92114        6.15786
N         -5.16348       -7.46523        7.29214
N         -4.57272       -6.25098        7.24305
C         -5.86360       -5.93371        2.99602
C         -5.45774       -8.06090        8.59176
C         -6.51907       -7.29994        9.39311
C         -6.20997       -4.76457        2.32200
C         -5.36500       -4.45034        1.22258
C         -4.42126       -5.43017        0.97239
S         -4.48538       -6.63320        2.22477
C          5.01609       -6.45421        5.58553
C          2.67041        5.67112        2.37657
C          3.89642        6.07775        1.59031
C          5.07381       -6.56107        7.10200
F         -7.64482       -3.32447        5.52745
F         -8.72554       -5.59600        4.48849
C          1.21313        3.86372        1.24985
Cl         2.09464       -7.67162        4.66955
Cl         0.34519       -5.26697        3.24963
Cl         0.54677        4.88594        0.03122
Cl        -0.91492        2.18335        1.12994
C         -1.85494       -7.19371       -3.15262
C         -2.33471       -6.32171       -2.10179
C         -2.17880       -4.93302       -2.25124
C         -1.35930       -4.37144       -3.25750
C         -0.81457       -5.21235       -4.26302
C         -1.10201       -6.59783       -4.23272
C         -2.94944       -6.57967       -0.79488
C         -3.54063       -5.48510       -0.19318
S         -3.20013       -4.09439       -1.12351
C          0.02870       -4.87505       -5.38851
C          0.41316       -5.92440       -6.18619
S         -0.43827       -7.31215       -5.69198
C         -2.27092       -8.67954       -3.15588
C         -1.00976       -2.89939       -3.21965
C         -0.55213       -2.10919       -2.16365
C         -0.37262       -0.73073       -2.52163
C         -0.53709       -0.48697       -3.86700
S         -1.15273       -1.89072       -4.63666
C         -1.68338       -9.86766       -3.61935
C         -3.64475      -10.81270       -2.74797
S         -3.83860       -9.13846       -2.47573
C          1.32324       -5.85045       -7.32229
S          2.38220       -4.49394       -7.55340
C          2.92390       -5.03378       -9.11701
C          2.42951       -6.29763       -9.34027
C          1.49731       -6.75085       -8.35445
C          3.53227       -4.10798      -10.04640
C          3.35051       -4.20689      -11.46449
C          3.29490       -3.04004      -12.25806
C          2.96538       -1.82097      -11.70497
C          3.92667       -1.72085      -10.66284
C          4.19102       -2.87471       -9.78195
N          4.93848       -0.84962      -10.49100
N          5.71984       -1.48687       -9.59547
N          5.20342       -2.57397       -8.95880
C          1.50202       -1.77039      -11.26433
C          7.15669       -1.23987       -9.58539
C          7.95814       -2.26139      -10.39581
C          0.47730       -2.63791      -11.64898
C         -0.77536       -2.37363      -11.02328
C         -0.69071       -1.28859      -10.18083
S          0.89411       -0.63229      -10.12714
C         -0.35251        0.82317       -4.61122
C         -4.54677      -11.85653       -2.11584
C         -5.86026      -12.10718       -2.83642
C          1.10384        1.24143       -4.82138
F          3.18887       -5.38211      -12.05062
F          3.27980       -3.17030      -13.60109
C         -2.55652      -11.02096       -3.56320
Cl         0.04734        0.49125       -1.40593
Cl        -0.18768       -2.66406       -0.56683
Cl        -2.20692      -12.54312       -4.29618
Cl        -0.06039      -10.09502       -4.15885
H          9.43979        6.40548       10.37665
H          7.95479        8.50695        9.94895
H          9.98615        4.47925        3.59431
H         11.76139       -1.11337        2.25922
H         11.03876       -0.19619        4.61725
H         11.67558        4.89903       -2.77315
H         10.99608        4.05021       -4.17695
H         13.45224        3.00496       -2.62726
H         13.57384        4.05117       -4.04729
H         12.85615        2.44037       -4.19154
H          9.35971       -2.35757        0.00971
H          7.49279       -2.60618        1.77643
H          7.18895       10.83317        4.23943
H          6.29811       10.32514        2.82874
H         12.36930        1.85545       12.75714
H         13.07315        1.45461       11.20353
H         10.84705       -0.10940       12.62163
H         12.52927       -0.59909       12.39251
H         11.44491       -0.48688       10.99720
H          9.21621       11.25652        2.79945
H          7.80059       12.19680        2.30742
H          8.27585       10.77428        1.37261
H          4.55918        1.21284        1.73391
H         -0.14600       -3.14321        5.09487
H         -5.92378       -1.53481        5.62880
H         -3.92552       -0.16352        4.62468
H         -4.51645       -8.07421        9.14886
H         -5.78050       -9.09585        8.43616
H         -6.32822       -6.22134        9.41397
H         -6.53937       -7.65114       10.43187
H         -7.52109       -7.44985        8.97621
H         -7.04172       -4.12465        2.59814
H         -5.51132       -3.57434        0.60056
H          5.96741       -6.04657        5.21973
H          4.95969       -7.46974        5.17090
H          2.85452        5.82493        3.44600
H          1.86531        6.37331        2.11956
H          4.76911        5.51892        1.92616
H          4.08742        7.14436        1.75517
H          3.78351        5.92078        0.51359
H          5.21845       -5.58108        7.56701
H          5.91504       -7.19727        7.40249
H          4.15986       -7.00426        7.50962
H         -3.03576       -7.56510       -0.35783
H          0.36124       -3.87320       -5.61260
H          2.62680       -6.83924      -10.25891
H          0.94067       -7.67683       -8.44879
H          7.47932       -1.24602       -8.54064
H          7.32878       -0.24050       -9.99439
H          7.76207       -3.28700      -10.06610
H          9.03304       -2.07573      -10.28659
H          7.72090       -2.20534      -11.46436
H          0.60861       -3.46381      -12.34146
H         -1.68241       -2.93974      -11.19084
H         -1.49348       -0.85940       -9.59431
H         -0.85273        1.62366       -4.04991
H         -0.84446        0.78479       -5.58895
H         -4.75021      -11.59869       -1.06879
H         -4.00615      -12.81264       -2.06890
H         -6.55239      -11.27139       -2.70101
H         -6.34553      -13.00241       -2.42316
H         -5.71768      -12.27473       -3.90774
H          1.64447        1.36846       -3.87719
H          1.14226        2.20741       -5.34257
H          1.65231        0.51723       -5.43151
