248
PBTA-PSF.sdf
C          3.04174       -5.92789        4.84130
C          4.37621       -6.19243        4.49894
C          5.24611       -5.17416        4.04541
C          4.73041       -3.86417        3.87686
C          3.37670       -3.62690        4.09127
C          2.51068       -4.62083        4.60533
C          2.43611       -7.10317        5.43731
C          3.22655       -8.22756        5.41421
S          4.72226       -7.88917        4.68998
C          5.39565       -2.63829        3.57803
C          4.57775       -1.54643        3.42087
S          2.96262       -1.98760        3.60986
C          6.69704       -5.41731        3.73048
C          1.06724       -4.34427        4.88308
C          5.03680       -0.22750        3.09657
C          4.36489        0.84675        2.55499
C          5.25811        1.91272        2.23004
C          6.56877        1.63558        2.57855
S          6.67580        0.15950        3.40213
C          7.76473        2.45488        2.52690
C          9.07484        2.03149        2.31456
C         10.18788        2.88490        2.46573
C         10.13314        4.25365        2.86854
C          8.80847        4.67738        3.20898
C          7.65941        3.77875        2.95772
F          9.31012        0.76042        1.94680
F         11.38528        2.32111        2.22213
N          8.28452        5.78786        3.79687
N          6.96431        5.50024        3.86316
N          6.53107        4.42849        3.23179
C          6.01718        6.07542        4.80880
C          4.78818        6.64565        4.10544
C         11.34002        5.09738        2.77970
C         12.43702        4.86626        1.95909
C         13.43927        5.86526        2.03755
C         13.12581        6.86313        2.93613
S         11.59325        6.53603        3.67149
C          7.52753       -6.19481        4.55558
C          8.87468       -6.42385        4.24402
C          9.48081       -5.81608        3.14619
C          8.69512       -5.00128        2.33603
C          7.32260       -4.85102        2.59593
C          0.63770       -3.17431        5.53479
C         -0.71651       -2.91455        5.78151
C         -1.70344       -3.84488        5.45987
C         -1.29633       -5.02764        4.84139
C          0.05273       -5.24725        4.51566
S         -3.43789       -3.68157        5.85624
C         -3.75781       -1.91798        5.52328
S         11.21805       -5.97645        2.78054
C         11.28884       -7.74148        2.33137
C         -5.24158       -1.63392        5.69498
C         12.70183       -8.09436        1.89653
F         -1.02446       -1.74544        6.36293
F          9.57920       -7.23993        5.04348
C         15.71179        9.63984        3.13035
C         15.03432       10.02417        4.29470
C         15.40041       11.16673        5.04022
C         16.52031       11.92912        4.61478
C         17.28422       11.48595        3.52779
C         16.88886       10.37241        2.74046
C         15.02002        8.51474        2.51419
C         13.95638        8.00924        3.24784
S         13.76543        8.90348        4.66660
C         17.03722       13.17040        5.12426
C         18.22850       13.56318        4.56818
S         18.72389       12.46618        3.38789
C         14.66425       11.58167        6.27708
C         17.69193        9.94022        1.54296
C         18.99290       14.71486        4.94745
C         19.66273       15.61556        4.14802
C         20.26104       16.66192        4.91208
C         20.03171       16.53238        6.27158
S         19.12202       15.12639        6.60038
C         20.32150       17.44822        7.36820
C         20.60093       17.10880        8.69107
C         20.72148       18.06176        9.72425
C         20.55677       19.47035        9.57563
C         20.16095       19.84315        8.25286
C         20.12504       18.82566        7.17013
F         20.77633       15.81876        9.02276
F         20.99703       17.55795       10.94142
N         19.72782       21.00368        7.69087
N         19.46585       20.64393        6.41092
N         19.85934       19.44216        6.01582
C         18.51108       21.30446        5.53718
C         19.15813       22.17802        4.48284
C         20.91612       20.37504       10.68391
C         21.79043       20.07360       11.72070
C         22.00108       21.13991       12.62791
C         21.32004       22.28175       12.26290
S         20.33583       21.97740       10.87596
C         13.26029       11.63614        6.33702
C         12.59132       12.00186        7.50904
C         13.28761       12.42689        8.63926
C         14.67902       12.43418        8.58928
C         15.35010       11.96980        7.44797
C         17.94880        8.58789        1.25541
C         18.69397        8.19712        0.13329
C         19.29431        9.13463       -0.70422
C         19.09424       10.48158       -0.41994
C         18.26702       10.86876        0.64805
S         20.36079        8.68897       -2.06084
C         19.14542        7.93802       -3.19158
S         12.47305       13.01914       10.10888
C         11.72655       11.46482       10.69735
C         19.83612        7.55214       -4.48945
C         11.03539       11.71161       12.02766
F         18.82510        6.88403       -0.11231
F         11.25034       11.94654        7.51544
C         21.13593       25.88402       13.38371
C         22.31449       25.61247       14.09460
C         22.98946       26.60565       14.84621
C         22.47947       27.92602       14.83956
C         21.38224       28.22909       14.02723
C         20.66586       27.23004       13.32277
C         20.60170       24.66528       12.80321
C         21.44071       23.58099       12.88898
S         22.78640       23.96832       13.85730
C         22.89386       29.08244       15.58792
C         22.22465       30.22939       15.26010
S         21.13600       29.94225       13.99759
C         24.23532       26.32667       15.63391
C         19.45982       27.56793       12.49632
C         22.40145       31.50496       15.88374
C         22.95279       31.74437       17.12701
C         22.93678       33.12234       17.46267
C         22.40096       33.89559       16.45190
S         21.94947       32.95004       15.11043
C         22.32923       35.33328       16.31935
C         21.32044       36.05640       15.68928
C         21.41091       37.43675       15.45877
C         22.53061       38.24450       15.80272
C         23.62801       37.51273       16.35785
C         23.46334       36.08242       16.67138
F         20.20324       35.42876       15.28780
F         20.33482       38.00456       14.88486
N         24.92034       37.81886       16.65126
N         25.41742       36.63687       17.09363
N         24.55714       35.65124       17.30242
C         26.81247       36.23627       17.01837
C         27.55054       36.34687       18.33476
C         22.40462       39.70128       15.73536
C         21.60368       40.45045       14.88117
C         21.35428       41.76408       15.37046
C         22.06789       42.02187       16.51678
S         23.04349       40.69552       16.97948
C         24.36144       25.20815       16.47341
C         25.52711       24.97534       17.21351
C         26.58724       25.88125       17.20933
C         26.47614       27.01646       16.41052
C         25.34434       27.20398       15.60174
C         19.24989       27.01060       11.22241
C         18.10284       27.29150       10.47545
C         17.15353       28.21186       10.91670
C         17.36482       28.82461       12.14797
C         18.46950       28.46905       12.94072
S         15.74131       28.69454        9.94076
C         14.78408       27.14326        9.95986
S         28.04121       25.68016       18.22040
C         28.78538       24.23253       17.40182
C         13.47123       27.35462        9.22263
C         30.11982       23.91164       18.05277
F         17.93056       26.64027        9.31543
F         25.59851       23.85333       17.94574
H          1.43948       -7.13387        5.84790
H          2.99598       -9.21899        5.76564
H          6.46757       -2.56602        3.45637
H          3.30135        0.86642        2.34965
H          4.94143        2.84891        1.78320
H          6.51962        6.81102        5.43294
H          5.69214        5.24182        5.45142
H          5.06068        7.47097        3.44290
H          4.06596        7.00357        4.83861
H          4.29119        5.88732        3.49918
H         12.52687        4.01236        1.29731
H         14.35793        5.83354        1.46151
H          7.15194       -6.64546        5.46935
H          9.13672       -4.47415        1.49221
H          6.75282       -4.24296        1.89415
H          1.34573       -2.42180        5.87245
H         -2.02480       -5.80088        4.60287
H          0.29813       -6.16957        3.99147
H         -3.44740       -1.67260        4.50361
H         -3.20279       -1.28914        6.22357
H         10.59140       -7.93646        1.51008
H         10.99968       -8.35956        3.18644
H         -5.84937       -2.21167        4.99054
H         -5.44266       -0.57243        5.51327
H         -5.57629       -1.86186        6.71298
H         13.00732       -7.51950        1.01562
H         12.75968       -9.15611        1.63313
H         13.42662       -7.91357        2.69805
H         15.31058        8.09192        1.57267
H         16.56354       13.74306        5.91318
H         19.69254       15.56308        3.06619
H         20.78578       17.50219        4.46975
H         17.77594       21.83704        6.14311
H         17.96945       20.49899        5.01582
H         19.64184       23.04686        4.93660
H         18.40901       22.52617        3.76806
H         19.92287       21.62597        3.91930
H         22.29922       19.12326       11.82927
H         22.67041       21.07270       13.47844
H         12.64914       11.37375        5.47923
H         15.25882       12.79313        9.43741
H         16.43935       11.94753        7.48591
H         17.58477        7.79569        1.90300
H         19.57657       11.24923       -1.02262
H         18.10810       11.93795        0.77397
H         18.34715        8.65820       -3.39918
H         18.70159        7.05114       -2.72982
H         12.50936       10.70956       10.82282
H         11.00174       11.09516        9.96595
H         20.26278        8.42659       -4.99342
H         19.11652        7.09490       -5.17668
H         20.63758        6.82507       -4.31801
H         11.74358       12.05208       12.79128
H         10.57908       10.78501       12.39108
H         10.23926       12.45835       11.93464
H         19.66435       24.61461       12.26379
H         23.67047       29.07324       16.34195
H         23.34355       30.97418       17.78023
H         23.34319       33.52695       18.38323
H         27.29882       36.77980       16.20663
H         26.80821       35.17305       16.72898
H         27.66082       37.39036       18.63835
H         28.54867       35.90429       18.24385
H         27.02660       35.81398       19.13882
H         21.08696       40.03561       14.02155
H         20.65835       42.46360       14.92311
H         22.05518       42.92286       17.11352
H         23.55123       24.49235       16.58469
H         27.26559       27.76635       16.40389
H         25.33438       28.08565       14.96076
H         19.97374       26.33460       10.77973
H         16.67473       29.58422       12.50945
H         18.54362       28.94809       13.91571
H         14.58218       26.85230       10.99594
H         15.35310       26.34230        9.47865
H         28.93718       24.45443       16.34039
H         28.11648       23.37065       17.48347
H         12.86371       28.13318        9.69745
H         12.88379       26.43046        9.22703
H         13.63815       27.63479        8.17671
H         30.82397       24.74556       17.95970
H         30.57362       23.04112       17.56717
H         30.00168       23.67291       19.11550
