278
PBTIBDTT.sdf
C         -3.35554      -11.42459        4.39679
C         -2.68332      -10.35305        3.78770
C         -3.39731       -9.30851        3.13101
C         -4.83452       -9.28816        3.02864
C         -5.51054      -10.35306        3.64485
C         -4.79518      -11.42462        4.32043
C         -5.79296       -8.32873        2.37810
C         -7.15573       -8.59034        2.45533
S         -7.26827      -10.04299        3.45066
C         -2.37517      -12.34193        4.99074
C         -1.06597      -11.94328        4.90590
S         -0.94928      -10.56152        3.94592
C         -5.46257      -12.60519        4.94783
C         -2.59479       -8.18264        2.58336
C         -8.39169       -7.82031        1.89402
C         -5.11807      -13.33886        6.08637
C         -5.92038      -14.49799        6.30412
C         -6.94109      -14.57717        5.38347
S         -6.79954      -13.37114        4.18442
C         -1.49200       -7.54628        3.14000
C         -0.95642       -6.51560        2.32200
C         -1.70421       -6.33134        1.18340
S         -2.89771       -7.53886        1.02159
S         -8.46808       -6.43220        0.72600
C        -10.28401       -6.21112        0.69338
C        -10.75120       -7.25687        1.54791
C         -9.71252       -8.08394        2.20704
C         -8.06302      -15.56870        5.33387
C         -9.24595      -15.12018        6.18229
C         -1.53699       -5.28108        0.13055
C         -2.25049       -3.98958        0.50474
C        -11.20341       -5.23385       -0.26942
C        -12.18615       -7.59256        1.88921
C        -12.68270       -6.74233        3.04542
S        -11.42355       -3.32655       -0.49114
C        -13.12187       -3.42235       -1.45701
C        -13.34122       -4.76295       -1.17689
C        -12.22864       -5.70740       -1.08523
C        -14.37325       -2.32152       -1.98059
C        -15.71334       -2.75223       -2.14604
C        -16.19478       -3.93670       -1.47129
N        -15.53312       -4.32202       -0.36491
C        -14.70682       -5.25555       -0.88483
O        -15.00073       -6.43398       -1.08332
C        -15.00208       -3.35984        0.67292
C        -15.94683       -2.34600        1.29004
O        -17.18425       -4.55060       -1.91386
S        -14.89189       -0.45323       -1.85715
C        -16.78189       -0.73334       -2.39653
C        -16.63477       -1.98922       -2.96813
C        -18.19475        0.09396       -2.28791
C        -18.64220        1.28459       -1.68012
C        -20.13203        1.53570       -1.71117
C        -20.98343        0.58611       -2.26463
S        -19.85124       -0.63551       -2.95580
C        -17.81845        2.27137       -0.90013
C        -17.80089        1.88674        0.57271
C        -25.08842        0.10467       -2.58247
C        -25.22304        1.17836       -1.69583
C        -26.56414        1.65787       -1.28376
C        -27.82197        1.05848       -1.77141
C        -27.68302       -0.05817       -2.59017
C        -26.34463       -0.53136       -3.01337
C        -29.35153        1.41542       -1.59414
C        -30.34308        0.56158       -2.12608
S        -29.36259       -0.71073       -2.91163
C        -23.57802       -0.14329       -2.90630
C        -22.59218        0.60806       -2.24647
S        -23.54335        1.72127       -1.24598
C        -26.25813       -1.64024       -3.99594
C        -26.73575        2.74020       -0.27777
C        -31.98876        0.54574       -2.10701
C        -27.07023       -1.89621       -5.08249
C        -26.64278       -2.99683       -5.87707
C        -25.46584       -3.54074       -5.41690
S        -25.04252       -2.86648       -3.90496
C        -27.72387        2.84838        0.69436
C        -27.67513        4.05719        1.43948
C        -26.58338        4.81957        1.09842
S        -25.72604        4.12934       -0.21069
S        -33.18086        1.77856       -1.45099
C        -34.82397        0.82339       -1.80263
C        -34.34363       -0.31170       -2.48647
C        -32.83284       -0.45277       -2.60532
C        -24.64037       -4.62658       -6.04125
C        -23.68994       -4.09683       -7.10950
C        -26.13318        6.10163        1.72894
C        -26.70012        7.31653        1.01411
C        -36.35121        1.37482       -1.40553
C        -35.23081       -1.39893       -3.02636
C        -35.51583       -1.29591       -4.51698
S        -38.17592        0.59359       -1.44730
C        -39.14703        2.20025       -0.92845
C        -38.05147        3.07621       -1.18400
C        -36.66486        2.64309       -0.93377
C        -40.79511        2.77702       -0.80194
C        -41.10136        4.15783       -0.85987
C        -40.18460        5.11040       -1.44899
N        -39.41052        4.58090       -2.44117
C        -38.23287        4.42205       -1.77161
O        -37.40946        5.28138       -1.60343
C        -39.79510        3.50106       -3.41323
C        -41.07336        3.62787       -4.23001
O        -40.14678        6.25219       -1.03939
S        -42.62947        2.20724       -1.15575
C        -43.42013        4.01976       -1.08679
C        -42.39698        4.65690       -0.39464
C        -44.79879        4.76124       -1.58337
C        -46.14019        4.42677       -1.88476
C        -47.00977        5.56358       -2.37303
C        -46.48737        6.84669       -2.48265
S        -44.81534        6.67586       -1.85767
C        -46.80522        3.07321       -1.82190
C        -46.68306        2.35122       -3.15332
C        -49.06285        9.58039       -4.17302
C        -48.13387       10.57391       -3.85332
C        -48.36853       11.97418       -4.24554
C        -49.54109       12.41001       -5.02063
C        -50.50874       11.43514       -5.26887
C        -50.28556       10.03126       -4.87091
C        -49.97218       13.77961       -5.67467
C        -51.22839       13.90187       -6.26231
S        -51.93158       12.27645       -6.06391
C        -48.51608        8.21476       -3.69565
C        -47.26272        8.13615       -3.04108
S        -46.75025        9.79558       -2.93945
C        -51.29003        9.01126       -5.27798
C        -47.38290       12.99811       -3.82319
C        -51.99416       15.16339       -6.94470
C        -52.01767        8.93003       -6.45632
C        -52.84203        7.76999       -6.54818
C        -52.71056        6.95257       -5.44868
S        -51.74422        7.69892       -4.25088
C        -46.00940       12.92053       -3.69573
C        -45.39773       14.12538       -3.24107
C        -46.31046       15.14312       -3.09825
S        -47.90131       14.57240       -3.31515
S        -51.39019       16.86389       -7.34459
C        -52.94772       17.56202       -8.07496
C        -53.84420       16.45429       -8.01216
C        -53.32253       15.19548       -7.37282
C        -53.33773        5.60793       -5.21293
C        -52.52221        4.47191       -5.82030
C        -46.05985       16.57683       -2.74185
C        -45.70877       17.42008       -3.96054
C        -53.21728       19.01905       -8.85450
C        -55.28173       16.42817       -8.50306
C        -56.23904       16.97410       -7.45661
S        -53.18612       20.88081       -8.34258
C        -54.14498       21.55829       -9.87367
C        -54.60777       20.30006      -10.34128
C        -53.74607       19.12051      -10.14164
C        -54.88193       23.03624      -10.36452
C        -55.93206       23.07855      -11.31486
C        -56.76367       21.92933      -11.58254
N        -56.87019       21.05402      -10.54907
C        -55.93290       20.12455      -10.93835
O        -56.15910       19.20126      -11.70369
C        -56.91481       21.42494       -9.08082
C        -57.93288       22.42410       -8.55453
O        -57.30716       21.77787      -12.67763
S        -55.17388       24.75996       -9.66640
C        -56.46782       25.26612      -10.92618
C        -56.28456       24.33829      -11.94257
C        -57.67154       26.24622      -10.91902
C        -57.91262       27.64622      -10.94127
C        -59.32268       28.02124      -11.02152
C        -60.16315       26.95438      -11.14764
S        -59.27747       25.49372      -11.19591
C        -56.95240       28.78987      -10.83223
C        -56.74476       29.11948       -9.36650
H         -5.45318       -7.45333        1.85299
H         -2.60245      -13.27376        5.50159
H         -0.18476      -12.43029        5.30992
H         -4.29305      -13.09473        6.74408
H         -5.78068      -15.20144        7.11114
H         -1.05558       -7.81061        4.09518
H         -0.08890       -5.92136        2.57973
H         -9.97517       -8.87785        2.90703
H         -7.70965      -16.54217        5.69547
H         -8.39514      -15.72104        4.29985
H         -8.96000      -14.99212        7.23206
H        -10.04633      -15.86567        6.13819
H         -9.65184      -14.16652        5.82787
H         -1.91385       -5.64084       -0.83313
H         -0.46881       -5.07938        0.00034
H         -3.32687       -4.14567        0.63567
H         -2.10941       -3.24503       -0.28515
H         -1.85761       -3.57076        1.43778
H        -12.25464       -8.65074        2.19090
H        -12.83587       -7.49541        1.01883
H        -12.04965       -6.87060        3.93205
H        -13.70420       -7.02156        3.31787
H        -12.66788       -5.68334        2.77372
H        -12.38636       -6.77975       -1.16685
H        -14.17702       -2.73847        0.34025
H        -14.54726       -3.98811        1.44665
H        -15.94474       -1.40386        0.72657
H        -15.55879       -2.08045        2.28129
H        -16.96778       -2.70103        1.37553
H        -17.52545       -2.45360       -3.38469
H        -20.54433        2.41871       -1.23020
H        -18.27875        3.26773       -0.98680
H        -16.80862        2.36017       -1.30626
H        -18.81655        1.86784        0.98917
H        -17.21514        2.60452        1.15142
H        -17.37397        0.88832        0.70706
H        -29.64292        2.30710       -1.05548
H        -23.26717       -0.89725       -3.61496
H        -27.93664       -1.29595       -5.33439
H        -27.15171       -3.33655       -6.77074
H        -28.49072        2.10191        0.85787
H        -28.38833        4.33128        2.20832
H        -32.40688       -1.34254       -3.06099
H        -25.31270       -5.36078       -6.50084
H        -24.06156       -5.16259       -5.28048
H        -24.22978       -3.58169       -7.91199
H        -23.13419       -4.92646       -7.56076
H        -22.96196       -3.39443       -6.69008
H        -25.03850        6.15608        1.74703
H        -26.45937        6.12038        2.77716
H        -26.36497        7.35588       -0.02741
H        -26.37118        8.23402        1.51199
H        -27.79543        7.30291        1.01545
H        -36.17452       -1.39165       -2.47883
H        -34.76067       -2.36740       -2.81922
H        -35.90137       -0.31009       -4.79655
H        -36.26651       -2.04449       -4.79347
H        -34.61882       -1.49001       -5.11578
H        -35.86696        3.36640       -0.82104
H        -39.89652        2.51048       -2.97904
H        -38.93443        3.38990       -4.07853
H        -41.92994        3.18130       -3.71896
H        -40.95514        3.03485       -5.14799
H        -41.30109        4.64753       -4.48818
H        -42.53209        5.70586       -0.14282
H        -48.04414        5.37521       -2.65281
H        -47.88038        3.21263       -1.61618
H        -46.41939        2.47151       -0.99465
H        -47.16630        2.92234       -3.95629
H        -47.16113        1.36942       -3.10815
H        -45.63140        2.22399       -3.42279
H        -49.28823       14.60088       -5.67730
H        -49.08152        7.30828       -3.86310
H        -51.95119        9.66085       -7.25215
H        -53.47049        7.53648       -7.39897
H        -45.43267       12.02643       -3.91366
H        -44.33638       14.24003       -3.06477
H        -53.96378       14.32715       -7.26360
H        -54.34100        5.59817       -5.65626
H        -53.46803        5.42280       -4.14061
H        -52.39530        4.59924       -6.90102
H        -53.02800        3.51429       -5.65376
H        -51.52586        4.40750       -5.37014
H        -45.23378       16.62606       -2.02277
H        -46.93478       17.01180       -2.24324
H        -44.81336       17.04189       -4.46651
H        -45.51232       18.45408       -3.65808
H        -46.52557       17.43276       -4.69098
H        -55.57362       15.39015       -8.72541
H        -55.39392       16.96788       -9.44564
H        -56.14389       16.42763       -6.51123
H        -57.27576       16.88203       -7.79558
H        -56.03208       18.02968       -7.25830
H        -53.91234       18.22297      -10.73055
H        -55.98653       21.83708       -8.69461
H        -57.00161       20.47775       -8.54023
H        -57.55326       23.45312       -8.58563
H        -58.07281       22.22313       -7.48330
H        -58.89369       22.38683       -9.05819
H        -56.93822       24.37411      -12.81837
H        -59.69415       29.04841      -10.98830
H        -61.24784       26.99585      -11.22656
H        -57.38367       29.68427      -11.32026
H        -56.02310       28.57722      -11.36124
H        -57.68784       29.43202       -8.89666
H        -56.02297       29.92806       -9.24752
H        -56.39345       28.23188       -8.83413
