266
PBZ-m-CF3.sdf
C         -2.07286       10.41126        0.73724
C         -1.06020       11.17734        0.14131
C          0.28808       11.06501        0.55050
C          0.62241       10.15732        1.58801
C         -0.36914        9.34683        2.14458
C         -1.71569        9.45907        1.74088
C         -3.36122       10.76555        0.17447
C         -3.30970       11.76725       -0.75872
S         -1.71418       12.18288       -1.11952
C          1.88131        9.90163        2.21951
C          1.88737        8.79015        3.02095
S          0.31443        8.28284        3.34297
C          1.38087       11.86502       -0.07667
C         -2.76858        8.60169        2.34813
C          3.06191        8.16004        3.53253
C          3.25443        7.48810        4.71731
C          4.61935        7.12331        4.89392
C          5.40563        7.46376        3.80782
S          4.47923        8.17262        2.57470
C          6.79096        7.14968        3.52141
C          7.71568        7.93988        2.83751
C          9.00337        7.47815        2.50649
C          9.48362        6.16613        2.77913
C          8.48822        5.27686        3.28586
C          7.20844        5.83078        3.74760
F          7.39483        9.20177        2.50649
F          9.82071        8.35599        1.89677
N          8.38331        3.92165        3.41741
N          7.13993        3.76891        3.95906
N          6.54900        4.87302        4.40100
C          6.19008        2.70412        3.68340
C          6.65178        1.27223        3.62378
C         10.91594        5.87778        2.77306
C         11.66450        4.84599        2.25257
C         13.07049        5.01235        2.50433
C         13.37033        6.15641        3.22627
S         11.93900        7.00038        3.60898
C          2.61687       11.28704       -0.43480
C          3.70447       12.04028       -0.93045
C          3.49264       13.38171       -1.25208
C          2.27647       13.97765       -0.90437
C          1.25869       13.24068       -0.29380
C         -3.97449        9.15665        2.80417
C         -5.07751        8.37539        3.22696
C         -4.88756        7.00048        3.39556
C         -3.66004        6.43733        3.02429
C         -2.63888        7.21404        2.46825
O         -5.77701        6.05542        3.82357
C         -6.78889        6.43899        4.74742
O          4.49723       14.05310       -1.90452
C          4.04855       15.18465       -2.66297
C         -7.15597        5.24426        5.60732
C         -6.39695        9.09393        3.33779
F         -6.35637       10.36674        2.83737
F         -7.39712        8.48364        2.64317
F         -6.84203        9.23700        4.61476
C          5.06314       11.39477       -1.04869
C          5.09535       15.59588       -3.67785
F          5.06845       10.09756       -0.61094
F          5.54481       11.34437       -2.31968
F          6.01581       12.01761       -0.29685
C         16.42801        7.54714        4.99331
C         17.13989        7.03533        3.89875
C         18.55843        7.02158        3.87238
C         19.27981        7.52702        4.98526
C         18.58448        8.14354        6.02171
C         17.16228        8.14107        6.06534
C         15.00226        7.31366        4.81497
C         14.66733        6.64088        3.65530
S         16.04178        6.46863        2.67691
C         20.68660        7.46164        5.29470
C         21.05833        8.06627        6.46971
S         19.72763        8.87962        7.13037
C         19.34045        6.48052        2.72297
C         16.46058        8.70727        7.25138
C         22.38561        8.11038        7.02818
C         22.80435        8.24296        8.33855
C         24.22440        8.44490        8.43698
C         24.81086        8.57098        7.18937
S         23.75192        7.87904        6.02599
C         26.04468        9.23934        6.79455
C         27.12497        9.52315        7.64540
C         28.18575       10.38514        7.28171
C         28.27282       11.10297        6.06086
C         27.12173       10.94138        5.23831
C         26.11865        9.94124        5.58171
F         27.15139        8.98896        8.87366
F         29.16184       10.54782        8.19534
N         26.65094       11.61229        4.14390
N         25.49665       10.94959        3.87966
N         25.30308        9.81687        4.52846
C         24.28522       11.52995        3.31748
C         23.69294       10.65791        2.21402
C         29.48846       11.76614        5.61384
C         29.72506       12.99103        5.02801
C         31.11431       13.19105        4.72058
C         31.90214       12.10487        5.05463
S         30.95772       10.86859        5.75101
C         19.00366        5.29119        2.06050
C         19.68202        4.84776        0.89987
C         20.83191        5.52811        0.48092
C         21.26348        6.63048        1.21788
C         20.48507        7.14232        2.25378
C         16.92925        8.44117        8.55301
C         16.48145        9.12708        9.70634
C         15.36461        9.95576        9.58061
C         14.82525       10.17191        8.30170
C         15.38445        9.59120        7.15398
O         14.71891       10.67412       10.54910
C         14.71076       10.16612       11.88024
O         21.47004        5.09598       -0.65622
C         22.43203        6.01406       -1.19737
C         13.44398       10.61665       12.58307
C         17.33076        8.98196       10.94557
F         18.53394        8.37555       10.71070
F         17.65312       10.17354       11.52254
F         16.74985        8.22794       11.91836
C         19.10933        3.68915        0.12329
C         22.75665        5.66074       -2.63400
F         17.89072        3.28559        0.60147
F         18.88745        3.97582       -1.19048
F         19.88834        2.57374        0.15200
C         35.43256       10.96982        4.35233
C         35.78634       12.30754        4.56916
C         37.10823       12.76333        4.34840
C         38.09184       11.85104        3.89939
C         37.77509       10.49695        3.83350
C         36.45730       10.03601        4.02847
C         34.00178       10.79945        4.50102
C         33.32390       11.93885        4.87056
S         34.41520       13.20258        5.14706
C         39.43759       12.07995        3.44491
C         40.13967       10.93429        3.19078
S         39.20261        9.57283        3.54648
C         37.53121       14.16027        4.62131
C         36.12461        8.59640        3.86619
C         41.48478       10.85929        2.71377
C         42.20771       11.86469        2.10303
C         43.51421       11.43967        1.74828
C         43.75335       10.13524        2.13237
S         42.40450        9.43949        2.89055
C         44.99026        9.39184        2.16423
C         45.15682        8.02622        1.94971
C         46.37963        7.37516        2.17787
C         47.55171        8.01420        2.67098
C         47.34609        9.35882        3.09952
C         46.09465       10.03582        2.73616
F         44.12606        7.29407        1.49656
F         46.41662        6.05775        1.90773
N         48.04994       10.24584        3.86115
N         47.20478       11.31113        3.91796
N         46.20387       11.32660        3.05412
C         47.20045       12.36990        4.91836
C         45.79125       12.65190        5.48147
C         48.86232        7.39312        2.51784
C         49.95619        7.29127        3.35151
C         51.03648        6.56500        2.75195
C         50.75657        6.15248        1.45915
S         49.20266        6.66392        0.97899
C         36.74314       15.26656        4.28709
C         37.05361       16.57300        4.72549
C         38.27755       16.80578        5.36719
C         39.15359       15.73587        5.54655
C         38.74628       14.43519        5.26522
C         35.27074        7.92407        4.75259
C         34.81873        6.60598        4.51571
C         35.35915        5.88551        3.44498
C         36.32936        6.49206        2.64796
C         36.63577        7.83967        2.80462
O         34.88689        4.61888        3.20474
C         35.23099        4.08783        1.91667
O         38.55144       18.07181        5.82753
C         39.63394       18.14799        6.76930
C         34.34571        2.91132        1.56768
C         33.72792        6.04738        5.39211
F         33.21815        6.98795        6.24640
F         32.64800        5.59675        4.69405
F         34.13437        5.02455        6.19203
C         36.01883       17.65202        4.53799
C         39.58691       19.44923        7.54227
F         34.83243       17.17058        4.05026
F         35.68597       18.28783        5.69534
F         36.39693       18.61516        3.65608
H         -4.30653       10.32837        0.46625
H         -4.13712       12.23532       -1.27389
H          2.79355       10.44216        2.00039
H          2.47436        7.29997        5.44425
H          4.99538        6.59525        5.76309
H          5.67271        2.98184        2.75564
H          5.43714        2.76869        4.48478
H          7.29391        1.09590        2.75949
H          5.76838        0.62661        3.52442
H          7.17544        0.98344        4.53734
H         11.24015        4.01229        1.70576
H         13.82237        4.30496        2.17433
H          2.76717       10.21596       -0.28972
H          2.08367       15.03060       -1.08596
H          0.35443       13.77307       -0.00855
H         -4.09337       10.24019        2.76197
H         -3.50194        5.36594        3.14239
H         -1.73851        6.70219        2.13363
H         -7.67334        6.75511        4.18719
H         -6.44443        7.23219        5.41563
H          3.86666       16.02529       -1.98382
H          3.13003       14.94121       -3.21184
H         -7.38541        4.36738        4.99467
H         -8.02028        5.47993        6.23552
H         -6.31726        4.97582        6.25796
H          6.02229       15.89982       -3.18566
H          4.72453       16.43429       -4.27769
H          5.33187       14.76411       -4.34975
H         14.26057        7.58317        5.55699
H         21.40875        6.94700        4.67429
H         22.13433        8.26463        9.18705
H         24.73674        8.66184        9.36589
H         24.47899       12.55137        2.99098
H         23.56185       11.56765        4.14801
H         24.38920       10.56360        1.37655
H         22.75243       11.08067        1.84794
H         23.47072        9.64319        2.57159
H         28.95320       13.72252        4.82001
H         31.50664       14.08688        4.25305
H         18.16562        4.69592        2.42165
H         22.19081        7.14945        0.99557
H         20.81984        8.07375        2.70748
H         17.74649        7.72805        8.67663
H         13.96768       10.83481        8.19032
H         14.96936        9.86119        6.18549
H         15.57159       10.57277       12.41855
H         14.72202        9.07333       11.89441
H         23.34924        5.96950       -0.59768
H         22.03447        7.03671       -1.20035
H         13.31683       11.70111       12.51694
H         13.46968       10.32285       13.63708
H         12.56793       10.15598       12.11547
H         23.17240        4.65272       -2.70568
H         23.48153        6.37287       -3.04326
H         21.85255        5.69229       -3.24958
H         33.48511        9.86495        4.32540
H         39.88162       13.06110        3.33112
H         41.83224       12.86401        1.92009
H         44.26393       12.08630        1.30465
H         47.56177       13.26867        4.40675
H         47.88780       12.10609        5.72389
H         45.03005       12.75294        4.69580
H         45.77477       13.58664        6.05083
H         45.45891       11.84274        6.14106
H         49.98601        7.69614        4.35371
H         51.98204        6.35014        3.22836
H         51.36526        5.58722        0.78445
H         35.82394       15.11539        3.72235
H         40.15013       15.86207        5.95777
H         39.41721       13.63346        5.56887
H         34.89431        8.45203        5.62974
H         36.84542        5.95960        1.85568
H         37.29990        8.27838        2.06335
H         36.27764        3.76020        1.92843
H         35.08347        4.84228        1.13333
H         40.58610       18.08709        6.22824
H         39.56881       17.33616        7.50490
H         34.46125        2.10336        2.29437
H         34.60489        2.53382        0.57273
H         33.29353        3.21088        1.56456
H         39.67255       20.30700        6.87092
H         40.40692       19.48276        8.26862
H         38.63979       19.54402        8.08084
