185
PCE10-2F.sdf
C         -2.33715       -3.83914       -5.04680
C         -2.34681       -3.60494       -3.65803
C         -1.13541       -3.67700       -2.95463
C          0.05683       -3.88040       -3.61301
C          0.08729       -4.12717       -5.00850
C         -1.12554       -4.08758       -5.72110
C         -3.41773       -3.28098       -2.78100
C         -3.08589       -3.37685       -1.44832
S         -1.43761       -3.47304       -1.24215
C          1.17471       -4.49378       -5.89006
C          0.81098       -4.59730       -7.20775
S         -0.86157       -4.38531       -7.40275
C         -3.62399       -3.93326       -5.77217
C          1.31349       -3.78261       -2.83028
C         -4.04593       -3.30870       -0.39745
C         -4.02831       -3.40343       -6.98878
C         -5.34703       -3.79632       -7.33925
C         -5.96054       -4.58376       -6.40110
S         -4.87870       -4.94615       -5.13404
C          1.61709       -4.26615       -1.56010
C          2.90964       -3.87814       -1.13930
C          3.61603       -3.22171       -2.10191
S          2.61235       -2.81258       -3.41747
S         -5.61518       -3.94439       -0.64671
C         -6.30043       -2.75538        0.40522
C         -5.34650       -1.77159        0.62846
C         -4.05789       -2.35909        0.59530
C         -4.88722       -0.54130       -0.13717
C         -3.57029       -0.10101        0.17956
S         -2.74946       -1.28888        1.22581
F         -5.59866       -0.00548       -1.09478
C         -2.70668        1.01429       -0.20335
C         -7.34505       -5.15041       -6.39096
C         -7.34197       -6.63183       -6.73866
C          5.06394       -2.87241       -2.12227
C          5.87788       -4.07793       -2.57530
O         -2.90566        1.44036       -1.49180
O         -1.83269        1.48328        0.51681
C         -2.06322        2.55312       -1.89912
C         -0.74152        2.12241       -2.52966
F          3.39445       -4.18866        0.03599
F         -5.92076       -3.43677       -8.45567
C         -9.14951       -4.22481        4.62489
C        -10.01848       -5.30754        4.83954
C        -10.29697       -6.17565        3.78314
C         -9.70828       -5.97660        2.51362
C         -8.87849       -4.83594        2.27510
C         -8.58833       -3.98631        3.35730
C        -10.69013       -5.72835        6.02268
C        -11.21818       -6.99348        5.94939
S        -11.41226       -7.40459        4.32518
C         -8.18228       -4.36378        1.09111
C         -7.33795       -3.28038        1.29418
S         -7.46859       -2.74518        2.89442
C         -8.80402       -3.40820        5.81122
C         -9.90881       -7.00217        1.46144
C        -11.70132       -7.70634        7.09372
C         -8.46278       -3.82219        7.10332
C         -8.27459       -2.72682        7.97204
C         -8.31179       -1.51470        7.33423
S         -8.90965       -1.69212        5.74865
C        -10.20485       -6.88596        0.11311
C        -10.38831       -8.15148       -0.51039
C        -10.27137       -9.21971        0.34120
S         -9.68395       -8.68207        1.84920
S        -11.14144       -7.30382        8.65561
C        -12.72240       -7.54127        9.34499
C        -13.58159       -7.94061        8.32956
C        -12.84874       -8.44715        7.21886
C        -14.56948       -7.20958        7.43705
C        -14.88819       -7.88069        6.22212
S        -13.84800       -9.30867        6.00057
F        -14.96157       -5.98309        7.68153
C        -15.77338       -7.65531        5.07779
C         -7.89139       -0.17813        7.83889
C         -6.38300       -0.01288        7.66933
C        -10.49433      -10.68241        0.09447
C        -11.96920      -11.06809        0.11434
O        -15.89250       -6.33617        4.73305
O        -16.28834       -8.55732        4.42407
C        -16.72268       -6.09516        3.56244
C        -15.93977       -6.13786        2.25552
F        -10.67414       -8.27941       -1.77851
F         -7.99594       -2.86839        9.24046
C        -12.84625       -7.13799       14.69245
C        -12.09738       -7.81621       15.69587
C        -11.16482       -8.76998       15.27459
C        -10.93439       -9.02117       13.89957
C        -11.75097       -8.41399       12.90768
C        -12.72840       -7.49664       13.31831
C        -12.05439       -7.68449       17.15044
C        -11.20109       -8.56422       17.78608
S        -10.41275       -9.51377       16.64158
C        -11.76783       -8.54716       11.46716
C        -12.69063       -7.75631       10.79419
S        -13.67536       -6.96806       11.92551
C        -13.75799       -6.05209       15.11464
C         -9.78345       -9.87555       13.49246
C        -10.80923       -8.56724       19.18047
C        -14.63549       -5.98567       16.18781
C        -15.33826       -4.75841       16.23549
C        -15.03219       -3.90706       15.20701
S        -13.74109       -4.53673       14.28349
C         -8.78377       -9.64322       12.55660
C         -7.74633      -10.61231       12.62640
C         -7.92480      -11.54185       13.61945
S         -9.52982      -11.44058       14.19754
S        -11.82521       -8.06151       20.48917
C        -10.63618       -6.89282       20.99495
C         -9.50906       -7.14685       20.28209
C         -9.50591       -8.33896       19.55584
C         -8.65726       -6.29973       19.49393
C         -7.79319       -7.00354       18.63377
S         -7.91258       -8.76139       18.83208
F         -8.85617       -5.00993       19.40989
C         -6.89034       -6.56754       17.58870
C        -15.64540       -2.58963       14.85742
C        -14.78656       -1.42620       15.32293
C         -6.97755      -12.57878       14.14448
C         -5.94612      -11.98974       15.10326
O         -7.21674       -5.32068       17.14156
O         -5.97788       -7.23757       17.11675
C         -6.32723       -4.79001       16.14410
C         -6.68813       -5.25821       14.74234
F         -6.68274      -10.57225       11.86976
F        -16.22208       -4.48269       17.15634
H         -4.42733       -3.09154       -3.10770
H          2.18927       -4.65193       -5.56380
H          1.43786       -4.79895       -8.04933
H         -3.41379       -2.76734       -7.61275
H          0.95372       -4.85395       -0.94083
H         -7.97575       -4.61019       -7.10715
H         -7.80238       -5.00558       -5.40566
H         -6.91967       -6.79792       -7.73511
H         -8.36053       -7.03071       -6.72379
H         -6.74641       -7.20894       -6.02287
H          5.38787       -2.56253       -1.12405
H          5.25306       -2.02948       -2.79644
H          5.73485       -4.92971       -1.90053
H          6.94431       -3.83150       -2.59597
H          5.58123       -4.40160       -3.58033
H         -1.86833        3.23408       -1.06092
H         -2.63156        3.12966       -2.63599
H         -0.10802        1.58611       -1.81586
H         -0.18454        2.99793       -2.87892
H         -0.90530        1.45966       -3.38502
H        -10.66778       -5.16971        6.94843
H         -8.23617       -4.88242        0.14354
H         -8.39875       -4.85170        7.41784
H        -10.31430       -5.94527       -0.40824
H         -8.15969       -0.07349        8.89574
H         -8.40856        0.62123        7.29499
H         -5.83739       -0.77186        8.23928
H         -6.06589        0.97314        8.01641
H         -6.09031       -0.11607        6.61779
H         -9.97320      -11.28225        0.85129
H        -10.06143      -10.95785       -0.87336
H        -12.43998      -10.82275        1.07284
H        -12.07605      -12.14767       -0.04229
H        -12.52883      -10.55862       -0.67698
H        -17.16002       -5.09814        3.68122
H        -17.56502       -6.79661        3.51704
H        -15.09183       -5.44654        2.27719
H        -16.58616       -5.86087        1.41257
H        -15.54101       -7.13710        2.05489
H        -12.60628       -6.93570       17.70517
H        -11.06164       -9.17676       10.93846
H        -14.78496       -6.78134       16.90537
H         -8.74643       -8.78494       11.89829
H        -10.88707       -6.09266       21.67682
H        -16.64037       -2.51234       15.31259
H        -15.79906       -2.52421       13.77288
H        -14.64048       -1.45550       16.40773
H        -15.26270       -0.47563       15.06465
H        -13.79866       -1.44708       14.85012
H         -6.45825      -13.05410       13.30395
H         -7.52235      -13.37283       14.66889
H         -5.34989      -11.20480       14.62311
H         -5.25533      -12.77094       15.44213
H         -6.41883      -11.55537       15.99039
H         -5.28559       -5.03636       16.38190
H         -6.41273       -3.70308       16.19368
H         -6.59491       -6.34490       14.64502
H         -6.02867       -4.79165       14.00359
H         -7.72355       -5.00150       14.49818
