272
PDBT-F.sdf
C          0.04053        1.56852        1.00558
C          1.13832        0.70743        1.04540
C          0.84553       -0.68008        0.77452
C         -0.49125       -0.94489        0.52116
S         -1.32876        0.60999        0.53230
C         -1.09709       -2.31167        0.31889
S         -0.26687       -3.61276       -0.53842
C         -1.49169       -4.87898       -0.24225
C         -2.39054       -4.33185        0.64424
C         -2.31516       -2.83308        0.72735
C         -3.46776       -5.05025        1.35952
C         -4.68167       -4.26598        1.37904
C         -4.66905       -2.84313        1.15608
C         -3.45483       -2.06043        1.22965
C         -5.95699       -4.69324        1.64833
S         -7.08405       -3.54748        1.04594
C         -5.88798       -2.39394        0.70079
C         -1.44635       -6.22274       -0.99047
C         -0.60037       -6.56538       -2.03660
C         -0.81225       -7.88363       -2.60509
S         -2.52912       -7.61345       -0.76601
O         -3.33050       -6.15704        1.87254
O         -3.43928       -0.93100        1.68632
C         -6.41998       -5.96129        2.29297
C         -6.72153       -7.05210        1.29142
C         -6.21062       -1.15108       -0.07704
C         -6.69439       -0.00467        0.78480
C          0.05425        3.05714        1.24559
C         -0.94258        4.03341        1.45801
C         -0.40845        5.40564        1.55064
C          0.90301        5.41788        1.24023
S          1.60502        3.82795        1.38043
S         -0.93018        7.10602        1.77165
C          0.47099        7.77628        0.81837
C          1.22417        6.61108        0.50991
C          0.46035        8.86483       -0.19346
C          0.15409        8.24439       -1.44291
C          0.93652        7.07249       -1.69961
C          1.91019        6.64635       -0.72957
C         -1.22671        8.07681       -1.89683
C         -1.53392        6.74468       -1.89333
S         -0.14546        5.86736       -2.48783
S         -2.68600        9.03779       -1.79112
C         -3.48981        7.69252       -1.08464
C         -2.80701        6.50296       -1.26220
C          1.32739       10.12516       -0.28338
C          3.28440        7.06437       -0.41974
C          2.28019       10.66662        0.56941
C          2.88740       11.87482        0.09740
C          2.36119       12.38001       -1.06556
S          1.20361       11.24493       -1.67428
C          4.05898        8.19144       -0.60517
C          4.49754        7.53649        1.63646
S          4.16707        6.09135        0.77208
C          4.71300        7.56959        3.12613
C          3.47635        7.31816        4.00364
C          2.73264       13.70907       -1.72904
C          1.72833       14.82755       -1.44889
C         -1.82322       -8.63722       -2.01385
C          4.71265        8.48278        0.65048
F          5.28567        9.62987        0.89158
F          3.84062       12.48710        0.75185
C         -8.95675      -12.49934       -2.00029
C         -9.97444      -13.29219       -1.47784
C        -10.76297      -12.66971       -0.41795
C        -10.34827      -11.39399       -0.05025
S         -8.96936      -11.02661       -1.08780
C        -10.89738      -10.52042        1.07255
S        -12.19523      -11.06434        2.13845
C        -12.20548       -9.65923        3.22071
C        -11.14358       -8.84932        2.82240
C        -10.62910       -9.20848        1.46280
C        -10.62043       -7.65274        3.52799
C        -10.30870       -6.58102        2.57954
C        -10.12111       -6.86079        1.18265
C         -9.92316       -8.20579        0.67170
C         -9.99842       -5.25138        2.81156
S        -10.34321       -4.34410        1.37821
C        -10.20966       -5.73376        0.39088
C        -13.25418       -9.51489        4.30467
C        -14.08375      -10.51673        4.79198
C        -15.05319      -10.09194        5.78039
S        -13.72388       -8.02660        5.13054
O        -10.43935       -7.58565        4.73440
O         -9.25654       -8.40527       -0.32826
C         -9.44492       -4.55991        4.02758
C        -10.45878       -3.73889        4.78741
C        -10.33700       -5.66788       -1.10878
C         -9.02612       -5.69253       -1.88001
C         -7.95458      -12.81582       -3.09269
C         -7.24051      -11.97440       -3.96864
C         -6.29716      -12.67496       -4.85702
C         -6.25888      -14.00095       -4.60624
S         -7.53677      -14.47011       -3.46019
S         -5.09170      -12.29291       -6.12692
C         -4.12118      -13.84620       -5.85974
C         -5.03047      -14.64145       -5.08283
C         -2.60498      -13.87492       -5.57944
C         -2.70322      -13.61240       -4.19005
C         -3.43498      -14.66271       -3.51673
C         -4.32320      -15.59219       -4.32240
C         -2.42921      -12.39104       -3.45487
C         -3.10695      -12.32283       -2.28646
S         -3.83935      -13.91448       -1.91045
S         -1.58721      -10.86976       -3.78397
C         -2.23442      -10.06767       -2.35805
C         -3.09922      -10.96852       -1.71455
C         -1.32998      -14.89215       -5.58293
C         -4.38028      -16.86892       -5.23023
C         -0.58063      -15.18985       -4.41870
C          0.74369      -15.58602       -4.61074
C          1.08657      -15.89175       -5.89704
S         -0.27029      -15.42735       -6.92799
C         -5.61695      -17.34611       -5.71852
C         -4.28021      -18.80305       -6.97486
S         -3.15350      -17.86265       -6.01041
C         -4.07131      -19.86401       -8.06716
C         -2.72307      -20.45225       -8.41750
C          2.53333      -16.33395       -6.16980
C          2.98095      -17.21813       -7.31188
C        -15.00636       -8.74200        6.10988
C         -5.54934      -18.39901       -6.65147
F         -6.61476      -18.91228       -7.21479
F          1.60655      -15.60494       -3.62662
C        -18.57125       -1.31068        5.61250
C        -18.35189       -0.00640        6.03810
C        -17.75947        0.84251        5.04339
C        -17.48672        0.18464        3.85870
S        -17.91619       -1.48770        4.02121
C        -16.84688        0.72718        2.66028
S        -15.63398        1.94920        2.77201
C        -15.28701        1.95059        1.07281
C        -15.99587        0.92441        0.46060
C        -17.10315        0.50683        1.31539
C        -15.85761        0.43193       -0.92685
C        -17.16272        0.13519       -1.52540
C        -18.34918        0.03628       -0.71125
C        -18.33514       -0.04823        0.74845
C        -17.46196       -0.11624       -2.85846
S        -19.15733        0.02657       -3.12698
C        -19.48529        0.22959       -1.46479
C        -14.41955        2.97792        0.50272
C        -13.51693        3.79739        1.16642
C        -12.86247        4.73657        0.31167
S        -14.50345        3.44077       -1.15869
O        -14.78417        0.25666       -1.48967
O        -19.26482       -0.48253        1.40351
C        -16.56735       -0.46109       -4.01681
C        -16.13957        0.74342       -4.83390
C        -20.84199        0.65115       -0.97573
C        -21.77492       -0.51227       -0.71564
C        -19.22439       -2.41031        6.35288
C        -19.59374       -3.67968        5.90976
C        -20.24394       -4.46627        6.93601
C        -20.20789       -3.85661        8.14857
S        -19.68569       -2.19262        8.01228
S        -20.97766       -6.06302        7.07250
C        -20.70117       -6.10041        8.80814
C        -20.36113       -4.78870        9.24117
C        -20.14132       -7.20031        9.56097
C        -18.74946       -6.89901        9.71865
C        -18.52891       -5.62106       10.32859
C        -19.68718       -4.74942       10.49829
C        -17.62026       -7.36346        8.90182
C        -16.65877       -6.41574        8.73522
S        -16.90440       -5.07691        9.86577
S        -17.27234       -8.76085        7.86645
C        -15.86084       -8.01110        7.12789
C        -15.73176       -6.72018        7.64765
C        -20.73922       -7.87252       10.78036
C        -20.70766       -4.57755       11.63261
C        -20.02711       -8.36669       11.87516
C        -20.79001       -9.20040       12.71544
C        -22.11231       -9.30376       12.36611
S        -22.41511       -8.29190       10.98735
C        -21.98158       -4.15346       11.43998
C        -22.01293       -4.16608       13.78569
S        -20.40445       -4.68660       13.34971
C        -22.51146       -3.73252       15.15186
C        -22.29906       -4.62349       16.36262
C        -23.11369      -10.16579       13.11044
C        -24.25036      -10.77540       12.31240
C        -13.29520        4.63282       -0.98833
C        -22.75288       -3.97886       12.64078
F        -23.98275       -3.52156       12.64118
F        -20.26441       -9.86067       13.71451
H          2.14517        1.03663        1.27452
H          1.60475       -1.45325        0.80770
H          0.15830       -5.88945       -2.41880
H         -0.20387       -8.24729       -3.42502
H         -7.30770       -5.76328        2.89509
H         -5.67151       -6.31621        3.00917
H         -7.37900       -6.68597        0.50107
H         -7.21101       -7.89108        1.79542
H         -5.81248       -7.42403        0.81373
H         -6.96832       -1.37650       -0.83878
H         -5.31954       -0.83495       -0.63527
H         -7.64931       -0.24706        1.26101
H         -6.84237        0.88601        0.16485
H         -5.97277        0.24243        1.56882
H         -1.99992        3.80453        1.48735
H         -4.45664        7.84235       -0.61615
H         -3.17500        5.55219       -0.89227
H          2.58975       10.19959        1.49110
H          3.93499        8.92468       -1.38965
H          5.09639        8.56052        3.39300
H          5.48056        6.84051        3.40446
H          2.55956        7.78321        3.62639
H          3.65479        7.72227        5.01085
H          3.28342        6.24701        4.13934
H          2.88380       13.61413       -2.81187
H          3.70232       14.05261       -1.33211
H          0.82336       14.70089       -2.05036
H          2.14895       15.81172       -1.69994
H          1.44092       14.85728       -0.39310
H        -10.17795      -14.29963       -1.82215
H        -11.58930      -13.18066        0.06415
H        -14.01951      -11.54483        4.45464
H        -15.75082      -10.78934        6.23113
H         -8.62386       -3.89608        3.72161
H         -8.97889       -5.29212        4.69901
H        -10.89151       -2.95988        4.15263
H         -9.97409       -3.24497        5.63678
H        -11.26475       -4.37119        5.16670
H        -10.90250       -4.77762       -1.39844
H        -10.94247       -6.52477       -1.43386
H         -8.43644       -4.78906       -1.70587
H         -9.23864       -5.75332       -2.95398
H         -8.39976       -6.55363       -1.63324
H         -7.35256      -10.89649       -3.95849
H         -3.68920      -10.69556       -0.85006
H         -0.87917      -14.94847       -3.40960
H         -6.57192      -16.90143       -5.47032
H         -4.48879      -19.45318       -9.00088
H         -4.73113      -20.71744       -7.83452
H         -1.97228      -19.69141       -8.63219
H         -2.83011      -21.06186       -9.33045
H         -2.35816      -21.13316       -7.64423
H          2.84531      -16.90050       -5.27100
H          3.17328      -15.44171       -6.15135
H          2.47174      -18.18453       -7.33569
H          4.05324      -17.44684       -7.16693
H          2.90380      -16.72266       -8.27975
H        -18.62522        0.35817        7.02146
H        -17.55408        1.89499        5.20750
H        -13.32230        3.73769        2.22985
H        -12.11556        5.45074        0.63953
H        -17.08748       -1.16829       -4.67695
H        -15.68145       -0.99587       -3.65695
H        -17.00235        1.27812       -5.24443
H        -15.51851        0.41872       -5.67611
H        -15.55542        1.44610       -4.23269
H        -21.30038        1.35012       -1.68491
H        -20.71838        1.22391       -0.04594
H        -22.02545       -1.02990       -1.64583
H        -22.70367       -0.14620       -0.26578
H        -21.33359       -1.24185       -0.03009
H        -19.39849       -4.04719        4.90965
H        -14.98517       -6.01998        7.29563
H        -18.96733       -8.21769       12.03310
H        -22.44286       -3.93385       10.48587
H        -23.59996       -3.58687       15.08108
H        -22.10293       -2.73702       15.37053
H        -22.90595       -5.53240       16.31495
H        -22.62944       -4.07673       17.25810
H        -21.25252       -4.89389       16.51311
H        -23.52012       -9.61566       13.96873
H        -22.55772      -11.01121       13.54702
H        -25.01016      -10.02820       12.06839
H        -24.74387      -11.55470       12.90971
H        -23.89924      -11.24428       11.38918
H        -12.96870        5.21654       -1.84114
