272
PDBT-T1.sdf
C          0.16275        1.23755        1.70207
C          0.76564        0.90670        0.49186
C          0.38967       -0.38168       -0.04526
C         -0.49420       -1.08871        0.75114
S         -0.76326       -0.14191        2.21295
C         -1.08353       -2.43783        0.49783
S         -0.29512       -3.68582       -0.44868
C         -1.53167       -4.94300       -0.20877
C         -2.43380       -4.40465        0.70728
C         -2.34542       -2.92124        0.79935
C         -3.52748       -5.10069        1.39059
C         -4.74528       -4.29951        1.34830
C         -4.72829       -2.88507        1.08801
C         -3.50886       -2.10336        1.15187
C         -6.02460       -4.72078        1.60375
S         -7.13706       -3.59735        0.94378
C         -5.94567       -2.43489        0.62174
C         -1.48669       -6.26189       -0.96921
C         -0.62726       -6.57559       -2.01634
C         -0.82047       -7.88396       -2.61356
S         -2.56030       -7.65601       -0.78189
O         -3.41681       -6.17874        1.95689
O         -3.51842       -0.90736        1.40158
C         -6.47822       -5.97798        2.27030
C         -6.75565       -7.09057        1.28970
C         -6.26524       -1.18451       -0.15095
C         -6.73058       -0.02829        0.71178
C          0.30798        2.52287        2.46856
C          0.12152        2.77731        3.83673
C          0.62035        4.09797        4.23807
C          0.76065        5.00723        3.01273
S          0.69241        3.99194        1.56786
S          0.87531        5.04617        6.15426
C          1.19388        7.11361        5.16842
C          0.95892        6.77218        3.38025
C          0.27037        8.12519        5.61366
C         -0.90604        7.47161        5.30843
C         -0.45688        6.34256        4.38869
C          1.42555        6.22833        4.38655
C         -2.30460        7.24554        5.55546
C         -2.72038        6.10741        4.89900
S         -1.88970        5.99516        3.39391
S         -3.54817        7.69391        6.67261
C         -3.89239        5.99954        6.84184
C         -3.48125        5.26487        5.74761
C          0.91410        9.28607        6.30047
C          2.90255        5.94271        3.86010
C          2.30244        9.42504        6.36836
C          2.77381       10.56506        7.05119
C          1.72454       11.35371        7.51208
S          0.19842       10.69347        6.96490
C          4.07533        5.92515        4.61789
C          5.16381        5.39979        3.84759
C          4.75112        5.11212        2.55932
S          3.44713        6.14455        2.20667
C          5.32463        4.31132        1.44754
C          4.98551        2.82430        1.51367
C          1.90847       12.55671        8.40508
C          1.52058       12.25236        9.84709
C         -8.98474      -12.51092       -1.97884
C         -9.99304      -13.29974       -1.42936
C        -10.78880      -12.65611       -0.38676
C        -10.37155      -11.37594       -0.04215
S         -9.02612      -11.01001       -1.11865
C        -10.89678      -10.49778        1.08331
S        -12.20572      -11.01171        2.14575
C        -12.16181       -9.62354        3.24864
C        -11.08487       -8.83691        2.84853
C        -10.58891       -9.19928        1.48436
C        -10.52069       -7.65380        3.54708
C        -10.24672       -6.57636        2.59415
C        -10.07227       -6.86300        1.19539
C         -9.85695       -8.21129        0.70254
C         -9.94622       -5.24229        2.80919
S        -10.35751       -4.35608        1.37717
C        -10.17439       -5.74551        0.39225
C        -13.19545       -9.47453        4.34164
C        -14.02490      -10.47361        4.83370
C        -14.98634      -10.04690        5.82794
S        -13.64707       -7.98673        5.17209
O        -10.27352       -7.60770        4.74395
O         -9.14399       -8.42310       -0.26173
C         -9.35684       -4.53398        3.99992
C        -10.34919       -3.70196        4.77233
C        -10.30425       -5.69401       -1.10931
C         -9.00210       -5.72939       -1.89770
C         -7.97789      -12.83952       -3.06710
C         -7.26172      -12.00036       -3.94293
C         -6.32585      -12.70393       -4.83764
C         -6.28216      -14.03136       -4.58797
S         -7.55029      -14.49529       -3.42236
S         -5.13958      -12.31908       -6.12547
C         -4.15864      -13.87701       -5.88173
C         -5.05770      -14.67313       -5.08896
C         -2.62288      -13.89745       -5.63110
C         -2.70479      -13.62974       -4.24002
C         -3.43428      -14.67822       -3.55663
C         -4.32550      -15.62157       -4.34966
C         -2.43058      -12.40351       -3.50925
C         -3.12406      -12.32345       -2.35035
S         -3.85373      -13.90841       -1.96032
S         -1.58151      -10.88089       -3.83556
C         -2.24160      -10.07507       -2.41746
C         -3.12519      -10.96640       -1.79056
C         -1.32006      -14.90123       -5.64440
C         -1.83597       -8.65118       -2.04926
C         -4.36433      -16.89935       -5.26649
C         -0.55997      -15.18237       -4.48351
C          0.80351      -15.48963       -4.66140
C          1.14529      -15.80736       -5.95401
S         -0.23376      -15.40892       -6.98562
C         -5.58706      -17.37495       -5.78984
C         -5.52555      -18.50091       -6.65371
C         -4.23583      -18.90056       -6.93278
S         -3.12828      -17.92441       -5.98104
C         -3.99330      -20.00690       -7.98229
C         -2.63288      -20.58999       -8.29898
C          2.61996      -16.21338       -6.20835
C          3.17277      -17.02997       -7.35764
C        -18.39531       -1.17157        5.64900
C        -18.17203        0.13857        6.05489
C        -17.59967        0.97770        5.03797
C        -17.33483        0.30084        3.86208
S        -17.74609       -1.37014        4.06072
C        -16.70224        0.81880        2.64858
S        -15.52004        2.07305        2.73120
C        -15.12649        2.00424        1.04386
C        -15.82199        0.95514        0.45512
C        -16.92736        0.52432        1.31322
C        -15.66515        0.40592       -0.91127
C        -16.97066        0.12949       -1.52081
C        -18.15093        0.01375       -0.70331
C        -18.10414       -0.13129        0.74982
C        -17.28344       -0.12119       -2.84801
S        -18.97973        0.07290       -3.10813
C        -19.29146        0.25604       -1.44002
C        -14.23705        3.00889        0.46504
C        -13.32608        3.82340        1.12533
C        -12.65460        4.74699        0.26696
S        -14.29380        3.44369       -1.20430
O        -14.58710        0.17195       -1.44015
O        -18.99370       -0.67735        1.38482
C        -16.41080       -0.49269       -4.01367
C        -15.96558        0.69717       -4.84247
C        -20.63129        0.70441       -0.93192
C        -21.59311       -0.43576       -0.67488
C        -13.08096        4.63618       -1.03453
C        -19.04490       -2.26821        6.39844
C        -19.37765       -3.55353        5.96949
C        -20.05169       -4.33272        6.98805
C        -20.05559       -3.70619        8.19201
S        -19.54731       -2.03494        8.04304
S        -20.77964       -5.93356        7.12773
C        -20.57162       -5.95208        8.88392
C        -20.21956       -4.63262        9.29307
C        -20.02885       -7.05741        9.66380
C        -18.62889       -6.76834        9.78704
C        -18.39101       -5.47592       10.36476
C        -19.54184       -4.58693       10.54707
C        -17.51656       -7.25661        8.95479
C        -16.56305       -6.31097        8.73482
S        -16.78316       -4.93774        9.82674
S        -17.17933       -8.68507        7.95039
C        -15.78488       -7.95051        7.16421
C        -15.65994       -6.64230        7.63665
C        -20.60281       -7.69148       10.93090
C        -14.93612       -8.69500        6.15243
C        -20.55395       -4.41475       11.67772
C        -19.86828       -8.11421       12.04285
C        -20.58750       -8.91915       12.96986
C        -21.89960       -9.12320       12.59605
S        -22.25534       -8.17979       11.17758
C        -21.86423       -3.95832       11.48804
C        -22.63398       -3.79837       12.66759
C        -21.90361       -4.02177       13.81597
S        -20.30241       -4.56974       13.39249
C        -22.41477       -3.59301       15.18944
C        -22.20088       -4.42709       16.43765
C        -22.85902      -10.02964       13.36230
C        -23.88333      -10.81926       12.56537
H          1.45883        1.56348       -0.02121
H          0.76035       -0.75421       -0.99308
H          0.13235       -5.88963       -2.37451
H         -0.19740       -8.22982       -3.43134
H         -7.37005       -5.77797        2.85977
H         -5.73839       -6.31144        3.00576
H         -7.40103       -6.73680        0.48538
H         -7.24500       -7.92328        1.80474
H         -5.84063       -7.46441        0.82689
H         -7.02672       -1.39600       -0.91350
H         -5.37263       -0.87595       -0.71071
H         -7.69067       -0.24876        1.18788
H         -6.86016        0.86610        0.09182
H         -6.00529        0.20807        1.49541
H         -0.30472        2.06246        4.52892
H         -4.43357        5.64036        7.70448
H         -3.63349        4.20048        5.60127
H          2.99784        8.69085        5.93359
H          3.80599       10.80497        7.21903
H          4.12678        6.17483        5.67406
H          6.13904        5.16756        4.25397
H          6.40536        4.45272        1.43880
H          4.94055        4.68407        0.48859
H          4.88764        2.43382        2.53171
H          5.77484        2.26173        1.00412
H          4.05200        2.60200        0.97994
H          1.39659       13.45481        8.04072
H          2.98422       12.83515        8.42536
H          0.43626       12.32787        9.96615
H          1.98544       12.95330       10.54964
H          1.82867       11.24121       10.13624
H        -10.18925      -14.31770       -1.74376
H        -11.61223      -13.15807        0.11057
H        -13.96595      -11.50100        4.49254
H        -15.68383      -10.74224        6.28153
H         -8.54367       -3.87430        3.66400
H         -8.87224       -5.25548        4.67058
H        -10.78818       -2.92720        4.13701
H         -9.84616       -3.20326        5.60792
H        -11.14987       -4.32921        5.16974
H        -10.87212       -4.80626       -1.40533
H        -10.90967       -6.55591       -1.42078
H         -8.40676       -4.82640       -1.74312
H         -9.23113       -5.79609       -2.96844
H         -8.37398       -6.59106       -1.65750
H         -7.37206      -10.92244       -3.92898
H         -3.73057      -10.68097       -0.94103
H         -0.88271      -14.96790       -3.47486
H          1.52835      -15.48386       -3.85228
H         -6.54072      -16.90159       -5.58784
H         -6.39214      -18.96899       -7.11583
H         -4.40473      -19.63863       -8.93672
H         -4.64461      -20.86002       -7.72570
H         -1.89127      -19.82969       -8.54511
H         -2.72555      -21.24146       -9.18639
H         -2.26228      -21.23251       -7.49622
H          2.91185      -16.80506       -5.31820
H          3.23172      -15.30418       -6.12506
H          2.72862      -18.02417       -7.44659
H          4.24837      -17.20778       -7.15963
H          3.13267      -16.50413       -8.31179
H        -18.42703        0.51601        7.03798
H        -17.39326        2.03302        5.18308
H        -13.13730        3.77349        2.19057
H        -11.90190        5.45684        0.59133
H        -16.95504       -1.19153       -4.66431
H        -15.53363       -1.04629       -3.65972
H        -16.82156        1.24636       -5.24812
H        -15.35888        0.35498       -5.68831
H        -15.36310        1.39091       -4.24924
H        -21.07942        1.42181       -1.63005
H        -20.48351        1.26329        0.00276
H        -21.85134       -0.94935       -1.60501
H        -22.51515       -0.04649       -0.23069
H        -21.17265       -1.17267        0.01559
H        -12.74387        5.20802       -1.89012
H        -19.14331       -3.93406        4.98259
H        -14.92916       -5.94820        7.24258
H        -18.81027       -7.92191       12.17162
H        -20.14044       -9.38116       13.84515
H        -22.27712       -3.70811       10.51704
H        -23.65116       -3.41776       12.67416
H        -23.50756       -3.46313       15.10984
H        -22.02370       -2.58665       15.37819
H        -22.80269       -5.34203       16.44442
H        -22.54236       -3.83816       17.30506
H        -21.15416       -4.67696       16.61507
H        -23.36333       -9.47161       14.16142
H        -22.24450      -10.78177       13.88530
H        -24.70849      -10.18344       12.23406
H        -24.32046      -11.60541       13.19845
H        -23.43965      -11.31355       11.69689
