272
PDBT-2Cl.sdf
C          0.28716        1.45090        1.13564
C          1.33544        0.53385        1.10170
C          0.96759       -0.81848        0.75999
C         -0.38716       -1.00762        0.53396
S         -1.14408        0.58184        0.64170
C         -1.04974       -2.33955        0.30059
S         -0.25810       -3.64900       -0.57218
C         -1.49852       -4.88940       -0.29105
C         -2.39859       -4.32025        0.60483
C         -2.28889       -2.82497        0.68576
C         -3.48942       -5.00325        1.32315
C         -4.69773       -4.18688        1.30054
C         -4.65113       -2.77281        1.06672
C         -3.41194       -2.03028        1.18097
C         -5.98788       -4.57316        1.57282
S         -7.08397       -3.41012        0.94706
C         -5.84967       -2.29984        0.57975
C         -1.45281       -6.23466       -1.00362
C         -0.58492       -6.58521       -2.03129
C         -0.78592       -7.90628       -2.59437
S         -2.53584       -7.61609       -0.78257
O         -3.38227       -6.07861        1.89442
O         -3.37200       -0.91589        1.67715
C         -6.47125       -5.81287        2.24746
C         -6.77171       -6.92901        1.27815
C         -6.12467       -1.06560       -0.22965
C         -6.55895        0.12592        0.59735
C          0.37322        2.92709        1.49803
C         -0.65186        3.84491        1.83187
C         -0.15901        5.20155        2.13196
C          1.44567        5.29549        1.80577
S          2.00023        3.65096        1.52822
S         -1.09792        7.17585        2.38981
C          0.87137        8.24333        1.81672
C          2.11557        6.91593        1.59699
C          0.88212        9.18244        0.73120
C          0.34793        8.27049       -0.19400
C          0.50280        6.95766        0.43130
C          1.07330        6.93015        2.24826
C         -0.88611        8.17354       -0.93423
C         -1.30351        6.85323       -1.04640
S          0.07630        5.80675       -0.86454
S         -2.20573        9.22745       -1.37446
C         -3.31986        7.96607       -0.97858
C         -2.73131        6.71748       -0.98498
C          2.06407       10.13663        0.68220
C          1.48813        7.77448        3.79057
C          3.43641        9.94442        0.85540
C          4.07795       11.04680        1.53217
C          3.29081       12.18032        1.67486
S          1.79825       11.90542        0.83124
C          1.47470        9.14297        4.19155
C          2.09300        8.24541        6.17505
S          1.89850        6.83711        5.19453
C          2.01954        8.35197        7.67460
C          1.84117        7.11009        8.50272
C          3.78406       13.47110        2.36489
C          2.86790       14.50840        2.99677
C         -1.81215       -8.64968       -2.01777
C          2.18866        9.37133        5.39218
Cl         2.61896       10.93985        5.98708
Cl         5.69069       10.94020        2.16099
Cl         4.33152        8.51280        0.51895
Cl         0.60924       10.51103        3.57260
C         -9.00677      -12.44568       -1.98067
C        -10.00308      -13.26620       -1.45649
C        -10.78981      -12.66925       -0.38484
C        -10.38824      -11.39164       -0.01419
S         -9.04488      -10.98565       -1.06956
C        -10.92856      -10.54082        1.11789
S        -12.23888      -11.09041        2.15441
C        -12.23942       -9.71365        3.26981
C        -11.16907       -8.90193        2.89587
C        -10.63626       -9.24614        1.53892
C        -10.63204       -7.72074        3.61860
C        -10.31321       -6.63668        2.68429
C        -10.11379       -6.90532        1.28788
C         -9.88703       -8.24566        0.78682
C         -9.99101       -5.31212        2.92328
S        -10.30249       -4.39186        1.49034
C        -10.20254       -5.77840        0.49642
C        -13.29710       -9.60239        4.34744
C        -14.12467      -10.62396        4.79715
C        -15.10392      -10.23875        5.79268
S        -13.78427       -8.14387        5.20829
O        -10.44011       -7.67788        4.82568
O         -9.13855       -8.43869       -0.15481
C         -9.44935       -4.62896        4.14801
C        -10.48784       -3.83920        4.90620
C        -10.35105       -5.70716       -1.00224
C         -9.05757       -5.71222       -1.80262
C         -8.00313      -12.72782       -3.06921
C         -7.27708      -11.86682       -3.91767
C         -6.31809      -12.55212       -4.80026
C         -6.30926      -13.87893       -4.57687
S         -7.58821      -14.36735       -3.44522
S         -5.06729      -12.16859       -6.03450
C         -4.15650      -13.78735       -5.83245
C         -5.11564      -14.54657       -5.07841
C         -2.62609      -13.92302       -5.52728
C         -2.72107      -13.64791       -4.15229
C         -3.57518      -14.62791       -3.52053
C         -4.47029      -15.55962       -4.36201
C         -2.45023      -12.41573       -3.42664
C         -3.18030      -12.30002       -2.29345
S         -4.00614      -13.84641       -1.93146
S         -1.55922      -10.91609       -3.75267
C         -2.23218      -10.07582       -2.36064
C         -3.13537      -10.94474       -1.72936
C         -1.40979      -15.03695       -5.53363
C         -4.48900      -16.75427       -5.41706
C         -0.62376      -15.49056       -4.42516
C          0.74789      -15.67252       -4.74504
C          0.91721      -16.16377       -6.01808
S         -0.46374      -15.61748       -6.96177
C         -5.62002      -17.16048       -6.19361
C         -4.11866      -18.67690       -7.12384
S         -3.19576      -17.82854       -5.90234
C         -3.57883      -19.73077       -8.09718
C         -3.33133      -19.21221       -9.52139
C          2.24109      -16.86613       -6.38561
C          2.42516      -17.77817       -7.57555
C        -15.07524       -8.89653        6.15697
C         -5.44111      -18.32933       -7.00237
Cl        -6.73096      -19.15164       -7.81608
Cl         2.03441      -15.50779       -3.59281
Cl        -0.99458      -15.66964       -2.73718
Cl        -7.17712      -16.39507       -6.30106
C        -18.71920       -1.37939        5.75619
C        -18.99360       -0.03240        5.92006
C        -18.32913        0.80303        4.96581
C        -17.51725        0.09469        4.09747
S        -17.53550       -1.58072        4.52931
C        -16.65876        0.62155        3.04102
S        -15.97861        2.20040        3.17039
C        -14.99386        2.03995        1.75631
C        -15.11630        0.75070        1.25403
C        -16.29515        0.08802        1.81471
C        -14.32962        0.11635        0.17240
C        -15.19369       -0.66731       -0.71638
C        -16.50902       -1.06874       -0.29180
C        -16.95646       -0.99981        1.09763
C        -14.91935       -1.17849       -1.97509
S        -16.38723       -1.60660       -2.77675
C        -17.32287       -1.32444       -1.37658
C        -14.25743        3.19544        1.25426
C        -13.89922        4.34382        1.94777
C        -13.22558        5.31135        1.14212
S        -13.81892        3.36200       -0.40579
O        -13.11549        0.20806        0.05799
O        -17.82676       -1.73257        1.54393
C        -13.61487       -1.37912       -2.69360
C        -13.24004       -0.23073       -3.61125
C        -18.82341       -1.28881       -1.42662
C        -19.46952       -2.64142       -1.21722
C        -19.29032       -2.49703        6.50208
C        -19.60038       -3.77181        6.04541
C        -20.25011       -4.56305        7.05846
C        -20.20543       -3.96533        8.28019
S        -19.70977       -2.29648        8.16481
S        -20.99170       -6.15073        7.16560
C        -20.71404       -6.19302        8.88377
C        -20.34511       -4.91088        9.35766
C        -20.23584       -7.30525        9.64236
C        -18.82610       -7.09741        9.84710
C        -18.54787       -5.82205       10.43764
C        -19.66742       -4.91204       10.61137
C        -17.69811       -7.56475        8.99378
C        -16.72519       -6.62356        8.82110
S        -16.92265       -5.30465        9.97375
S        -17.35692       -8.94924        7.92238
C        -15.94173       -8.19373        7.18593
C        -15.81534       -6.90905        7.71558
C        -21.05372       -8.01375       10.70098
C        -20.58318       -4.74810       11.81557
C        -20.66454       -9.05036       11.54731
C        -21.78038       -9.75188       12.11564
C        -22.98552       -9.07827       11.99310
S        -22.74842       -7.68522       11.00342
C        -21.90260       -4.26508       11.84764
C        -21.58290       -4.54653       14.15882
S        -20.08561       -5.05915       13.46074
C        -21.91518       -4.39012       15.64137
C        -20.93325       -4.79784       16.71930
C        -24.31850       -9.56593       12.57147
C        -25.60621       -8.80046       12.30980
C        -13.10189        4.89323       -0.16086
C        -22.47672       -4.21968       13.15650
Cl       -24.10766       -3.72236       13.45811
Cl       -21.63249      -11.32174       12.82050
Cl       -19.04636       -9.59866       11.78398
Cl       -22.85455       -3.73183       10.49858
H          2.35989        0.79492        1.33932
H          1.68248       -1.63331        0.73695
H          0.18262       -5.91526       -2.40269
H         -0.16232       -8.27732       -3.40024
H         -7.36253       -5.58143        2.82724
H         -5.74106       -6.15485        2.98849
H         -7.44273       -6.58096        0.49293
H         -7.24452       -7.76021        1.81021
H         -5.86951       -7.30320        0.79030
H         -6.88835       -1.27889       -0.98935
H         -5.21954       -0.80147       -0.79272
H         -7.52183       -0.05936        1.08264
H         -6.67047        1.00325       -0.04940
H         -5.82411        0.36698        1.37055
H         -1.70633        3.58725        1.79541
H         -4.36787        8.19566       -0.81527
H         -3.26955        5.78880       -0.81213
H          1.14628        8.99337        7.87800
H          2.88771        8.90967        8.04726
H          0.99657        6.50569        8.16440
H          1.63588        7.41392        9.53755
H          2.74992        6.50576        8.50633
H          4.46438       13.99327        1.67920
H          4.41642       13.14655        3.20583
H          2.35860       15.13223        2.25828
H          3.49123       15.20113        3.59128
H          2.14045       14.08517        3.69345
H        -10.19254      -14.27416       -1.80718
H        -11.60100      -13.19697        0.10528
H        -14.04919      -11.64090        4.42881
H        -15.79453      -10.95662        6.22127
H         -8.63911       -3.94538        3.85377
H         -8.97372       -5.36267        4.81147
H        -10.92260       -3.05841        4.27482
H        -10.02710       -3.35198        5.77183
H        -11.28980       -4.49253        5.25757
H        -10.93419       -4.82181       -1.27666
H        -10.95036       -6.57043       -1.32190
H         -8.46776       -4.80934       -1.62722
H         -9.29417       -5.75289       -2.87273
H         -8.42459       -6.57699       -1.58817
H         -7.39007      -10.79090       -3.88271
H         -3.73585      -10.64214       -0.88223
H         -4.32358      -20.53679       -8.20229
H         -2.67778      -20.21763       -7.71755
H         -4.21892      -18.73787       -9.95798
H         -3.06082      -20.04119      -10.19212
H         -2.51133      -18.48984       -9.54847
H          2.48816      -17.51609       -5.52292
H          3.04625      -16.11863       -6.39496
H          1.70547      -18.59902       -7.60034
H          3.42360      -18.24761       -7.50451
H          2.41097      -17.22827       -8.51632
H        -19.67101        0.35188        6.67350
H        -18.45475        1.87927        4.93348
H        -14.10675        4.50053        2.99919
H        -12.85517        6.26420        1.50243
H        -13.66923       -2.30146       -3.28833
H        -12.81262       -1.54770       -1.96605
H        -13.99892       -0.07013       -4.38402
H        -12.29355       -0.45360       -4.11662
H        -13.11661        0.70142       -3.05272
H        -19.15863       -0.85844       -2.37823
H        -19.18482       -0.59742       -0.65270
H        -19.22242       -3.32561       -2.03359
H        -20.55817       -2.52791       -1.18337
H        -19.15001       -3.10170       -0.27778
H        -19.39269       -4.12382        5.04165
H        -15.07350       -6.20404        7.36142
H        -22.85798       -4.91899       15.84641
H        -22.13846       -3.32456       15.80200
H        -20.89685       -5.88382       16.84396
H        -21.27660       -4.38652       17.68117
H        -19.92618       -4.41446       16.54751
H        -24.21596       -9.67102       13.66255
H        -24.47858      -10.58524       12.19315
H        -25.67827       -7.89580       12.92178
H        -26.46361       -9.43150       12.59131
H        -25.73732       -8.53669       11.25845
H        -12.63508        5.42127       -0.98256
