140
PDCBT-F.sdf
C          1.54959       -2.80431      -16.06556
C          1.70741       -4.17569      -16.11141
C          1.30412       -4.76174      -14.85257
C          0.89403       -3.82880      -13.90441
S          0.94856       -2.24449      -14.57545
C          2.22984       -4.83200      -17.30958
O          2.27567       -6.19727      -17.21090
O          2.61001       -4.20534      -18.29609
C          2.88902       -6.87463      -18.32337
C          1.89489       -7.12484      -19.44863
C         -0.81779       -5.88573       -9.30738
C         -1.69250       -5.50709       -8.30537
C         -1.92366       -6.54461       -7.38152
S         -0.41828       -7.55759       -9.15305
C         -0.27848       -5.01371      -10.34012
C          0.07250       -3.67064      -10.21259
C          0.44095       -3.11162      -11.49200
C          0.47504       -4.03762      -12.52454
S         -0.05714       -5.56408      -11.95471
C          0.09670       -2.95195       -8.93248
O         -0.31392       -1.65193       -9.03325
O          0.43021       -3.47682       -7.87682
C         -0.33139       -0.91694       -7.79313
C         -1.65114       -1.09880       -7.05943
C         -1.53642      -11.28394       -6.02033
C         -1.56668      -10.32376       -5.02699
C         -1.51951       -8.99778       -5.53446
C         -1.37266       -8.95062       -6.90782
S         -1.32439      -10.53800       -7.55934
C         -1.31603       -7.73876       -7.69664
F         -2.65919       -6.36144       -6.31623
C         -1.65088      -12.72144       -5.82344
C         -2.45660      -13.41752       -4.92342
C         -2.12630      -14.83385       -4.93384
C         -1.15080      -15.19543       -5.84831
S         -0.62725      -13.79852       -6.69738
C         -3.48375      -12.85200       -4.02973
O         -4.04226      -11.69202       -4.48408
O         -3.81900      -13.40421       -2.98823
C         -5.06726      -11.08575       -3.67611
C         -4.47142      -10.13268       -2.65253
C         -0.16361      -20.44161       -6.01563
C          0.95201      -21.25585       -5.93080
C          0.61623      -22.61905       -5.79660
S         -1.59848      -21.38461       -5.81049
C         -0.15809      -19.00080       -6.25410
C          0.72138      -18.27229       -7.05520
C          0.48025      -16.85042       -6.93419
C         -0.59882      -16.52055       -6.12800
S         -1.26789      -17.95396       -5.45471
C          1.72999      -18.88345       -7.92927
O          2.89772      -18.17704       -7.98178
O          1.54693      -19.93363       -8.52984
C          3.93122      -18.75126       -8.80813
C          4.77982      -19.74308       -8.02778
C         -2.76016      -26.16175       -4.96409
C         -1.64102      -26.49828       -5.70301
C         -0.83518      -25.36874       -6.03213
C         -1.34520      -24.17684       -5.54834
S         -2.77863      -24.46632       -4.65189
C         -0.73254      -22.87094       -5.69465
F          1.53280      -23.55067       -5.76276
C         -3.76314      -27.07297       -4.43222
C         -5.14704      -26.95136       -4.35681
C         -5.72490      -28.07096       -3.63574
C         -4.80911      -29.02109       -3.22154
S         -3.23675      -28.56015       -3.71739
C         -5.95617      -25.83982       -4.87188
O         -5.47323      -25.29350       -6.02614
O         -6.98883      -25.47528       -4.32195
C         -6.10900      -24.08260       -6.47001
C         -7.31355      -24.38225       -7.34146
C         -6.88106      -33.54459       -1.33683
C         -7.09282      -34.14246       -0.10709
C         -7.90079      -35.29660       -0.20319
S         -7.78445      -34.36105       -2.55701
C         -6.00891      -32.41073       -1.61609
C         -4.77631      -32.11757       -1.03359
C         -4.25081      -30.86413       -1.53524
C         -5.05265      -30.25548       -2.48733
S         -6.47037      -31.18654       -2.73793
C         -4.10160      -33.00026       -0.07325
O         -3.45579      -32.32110        0.92248
O         -4.14311      -34.22289       -0.13990
C         -2.81298      -33.14662        1.91422
C         -3.76767      -33.50292        3.04344
C        -10.89299      -38.16638       -2.90790
C        -10.26197      -38.76556       -1.84312
C         -9.30454      -37.89750       -1.24026
C         -9.22363      -36.66108       -1.86159
S        -10.32426      -36.57732       -3.17836
C         -8.37738      -35.55521       -1.46732
F         -8.16570      -36.03925        0.83974
H          1.77381       -2.09794      -16.85580
H          1.35177       -5.82672      -14.65542
H          3.26236       -7.83634      -17.95516
H          3.76427       -6.32261      -18.69539
H          1.03573       -7.69561      -19.08336
H          2.36395       -7.68380      -20.26561
H          1.50831       -6.18474      -19.85390
H         -2.10534       -4.51364       -8.19425
H          0.73716       -2.07504      -11.61344
H         -0.19770        0.14074       -8.04222
H          0.51225       -1.19828       -7.15151
H         -2.49067       -0.77733       -7.68361
H         -1.66208       -0.51227       -6.13388
H         -1.82431       -2.14850       -6.80236
H         -1.66973      -10.55159       -3.97346
H         -1.59002       -8.11557       -4.90862
H         -2.61921      -15.54316       -4.27646
H         -5.69520      -11.84234       -3.19301
H         -5.71205      -10.51882       -4.35609
H         -3.81435      -10.66109       -1.95514
H         -5.26139       -9.63694       -2.07906
H         -3.86821       -9.36119       -3.14161
H          1.97220      -20.90600       -6.00854
H          1.06719      -16.11207       -7.47008
H          4.56392      -17.92774       -9.15457
H          3.50817      -19.22260       -9.70319
H          5.23793      -19.26415       -7.15688
H          5.57788      -20.14869       -8.65976
H          4.17890      -20.57933       -7.65641
H         -1.39472      -27.51266       -5.99525
H          0.08657      -25.43779       -6.59901
H         -6.78962      -28.14783       -3.43926
H         -5.36659      -23.52976       -7.05676
H         -6.37902      -23.44500       -5.62031
H         -7.02651      -25.00145       -8.19670
H         -7.76093      -23.45517       -7.71406
H         -8.07573      -24.93520       -6.78413
H         -6.64897      -33.80978        0.82119
H         -3.29950      -30.45328       -1.21492
H         -1.97396      -32.57098        2.31802
H         -2.38734      -34.05239        1.46616
H         -4.16122      -32.59931        3.51978
H         -3.25774      -34.10243        3.80512
H         -4.62666      -34.07286        2.67568
H        -11.66204      -38.58488       -3.54272
H        -10.47782      -39.77304       -1.50786
H         -8.70172      -38.17577       -0.38335
