122
PDCBT-Cl.sdf
C          2.25867        1.51674       -7.99010
C          3.28292        0.58603       -7.92664
C          2.76102       -0.72706       -8.23549
C          1.39560       -0.74953       -8.50660
S          0.75114        0.83926       -8.42162
C          4.65730        0.98730       -7.60647
O          5.55475       -0.04527       -7.61030
O          4.97313        2.15237       -7.35330
C          6.90341        0.33532       -7.29771
C         -0.90394       -5.52397       -8.64690
C         -1.36083       -6.37297       -9.63467
C         -1.76207       -7.64355       -9.14575
S         -0.78171       -6.35952       -7.15961
C         -0.60202       -4.11451       -8.81857
C         -1.26265       -3.20125       -9.64018
C         -0.55893       -1.93406       -9.64928
C          0.53463       -1.88399       -8.80020
S          0.75748       -3.40007       -8.04024
C         -2.47719       -3.47856      -10.43428
O         -3.32646       -4.36430       -9.83191
O         -2.69205       -2.96060      -11.52296
C         -4.46758       -4.80638      -10.58138
C         -1.69352      -11.31320       -6.06062
C         -1.86710      -10.33826       -5.09625
C         -1.86256       -9.01850       -5.62412
C         -1.59294       -8.99162       -6.97765
S         -1.40091      -10.58905       -7.58405
C         -1.74532      -12.74983       -5.84850
C         -2.55487      -13.45180       -4.95614
C         -2.16072      -14.85058       -4.91253
C         -1.17161      -15.20585       -5.82113
S         -0.66494      -13.80457       -6.67532
C         -3.62487      -12.85768       -4.12847
O         -4.27068      -11.82145       -4.74325
O         -3.90195      -13.26437       -3.00675
C         -5.23854      -11.08579       -3.98012
C         -1.44060       -7.82038       -7.81333
C         -0.15936      -20.44889       -6.02564
C          0.95101      -21.26491       -5.97996
C          0.64712      -22.64737       -5.88347
S         -1.57789      -21.38556       -5.79560
C         -0.14700      -19.00276       -6.25419
C          0.72134      -18.27411       -7.06165
C          0.47564      -16.84964       -6.92238
C         -0.59636      -16.52600       -6.10227
S         -1.24292      -17.96613       -5.42124
C          1.72687      -18.87951       -7.95712
O          2.86555      -18.13272       -8.08563
O          1.57780      -19.96809       -8.50669
C          3.90366      -18.75517       -8.86073
C         -0.70734      -22.88558       -5.72500
Cl        -2.57453       -8.73124      -10.19445
Cl         1.93563      -23.77776       -5.99766
C         -1.40198      -24.14581       -5.51997
S         -0.62860      -25.51091       -4.82884
C         -2.04646      -26.46870       -4.80235
C         -3.08098      -25.78107       -5.41047
C         -2.71060      -24.46410       -5.83117
C         -2.05496      -27.83128       -4.28676
C         -1.34892      -28.40205       -3.22658
C         -1.57393      -29.84377       -3.18669
C         -2.47620      -30.31477       -4.13014
S         -3.01991      -29.01420       -5.09981
C         -0.45916      -27.68721       -2.28448
O         -0.88649      -26.42089       -1.98526
O          0.53911      -28.20070       -1.80054
C         -0.00170      -25.59692       -1.21085
C         -4.28505      -35.27296       -3.45141
C         -4.08881      -36.51646       -4.01888
C         -4.75790      -37.55933       -3.32991
S         -5.12429      -35.43128       -1.96256
C         -3.88524      -33.99783       -4.02613
C         -3.86509      -33.63681       -5.37420
C         -3.30547      -32.30265       -5.52932
C         -2.97637      -31.67162       -4.33823
S         -3.27563      -32.73107       -3.02550
C         -4.31363      -34.48091       -6.50380
O         -5.36491      -35.29795       -6.19125
O         -3.78866      -34.44441       -7.61008
C         -5.78650      -36.25391       -7.17635
C         -7.51669      -38.93392        0.53563
C         -6.57871      -39.83982        0.11173
C         -5.69011      -39.26789       -0.83960
C         -5.99343      -37.95598       -1.15362
S         -7.32701      -37.40751       -0.21711
C         -5.32585      -37.13447       -2.14220
Cl        -4.80660      -39.13254       -4.01812
H          2.33080        2.58484       -7.82730
H          3.37891       -1.61593       -8.25895
H          7.53322       -0.55707       -7.36125
H          6.97209        0.72799       -6.27723
H          7.28634        1.07107       -8.01519
H         -1.50232       -6.06425      -10.66212
H         -0.87881       -1.09109      -10.25265
H         -5.01109       -5.52411       -9.95624
H         -4.16820       -5.32748      -11.49762
H         -5.13594       -3.97130      -10.80458
H         -2.04413      -10.55658       -4.05084
H         -2.03811       -8.13460       -5.02289
H         -2.63204      -15.56011       -4.24073
H         -5.60769      -10.27343       -4.61614
H         -4.78847      -10.62970       -3.09161
H         -6.08646      -11.72016       -3.70992
H          1.96130      -20.89879       -6.09473
H          1.05464      -16.10686       -7.46027
H          4.78607      -18.10520       -8.82985
H          3.60004      -18.86512       -9.90635
H          4.19245      -19.72648       -8.44316
H         -4.07051      -26.19627       -5.55679
H         -3.38797      -23.78713       -6.33710
H         -1.08440      -30.49072       -2.46774
H         -0.46686      -24.60785       -1.12049
H          0.96512      -25.45980       -1.70975
H          0.13303      -26.00340       -0.20544
H         -3.56758      -36.67198       -4.95466
H         -3.18125      -31.83373       -6.49970
H         -6.60404      -36.83861       -6.73797
H         -4.98147      -36.95336       -7.42917
H         -6.16578      -35.75244       -8.06987
H         -8.31056      -39.09000        1.25543
H         -6.52642      -40.86480        0.45771
H         -4.87344      -39.81719       -1.29209
