248
PE32.sdf
C         -1.68262        6.01201        6.37292
C         -2.16968        6.08980        7.70496
C         -1.23248        6.07045        8.75451
C          0.16013        6.06979        8.49423
C          0.64333        6.00228        7.16110
C         -0.29298        5.94185        6.12284
C         -3.51406        6.21120        8.23102
C         -3.58552        6.17159        9.59843
S         -2.05398        6.00527       10.28906
C          1.99285        6.00326        6.62561
C          2.07109        5.88044        5.25735
S          0.51046        5.74026        4.60513
C         -2.62614        5.99517        5.21933
C          1.15918        6.11507        9.59617
C          2.34371        5.40525        9.73945
C          3.09521        5.77315       10.89316
C          2.43194        6.69030       11.67715
S          1.01160        7.23852       10.89607
C         -2.54055        6.65104        3.99756
C         -4.54360        5.51353        3.67789
S         -4.02050        4.98029        5.21824
C          3.24447        5.87189        4.41057
S          4.84325        5.78970        5.03474
C          5.56931        5.92960        3.48491
C          4.58859        5.99378        2.51004
C          3.27083        5.92595        3.03070
C          7.03537        5.93143        3.28350
C          7.67514        5.24867        2.15731
C          9.08175        5.32782        1.92912
C          9.92629        6.11014        2.79682
C          9.32241        6.75233        3.90468
C          7.88822        6.66038        4.16741
N          9.87870        7.52553        4.85435
N          8.86047        7.78453        5.66745
N          7.64063        7.36455        5.29917
C         11.37207        6.26897        2.57664
C          9.09818        8.55417        6.87493
C          9.48774        7.69192        8.06587
C         12.03362        6.46488        1.37654
C         13.43914        6.55202        1.53144
C         13.82071        6.50333        2.85514
S         12.49294        6.13764        3.86493
C          2.81888        7.26360       13.01023
C         -5.84766        5.02152        3.11832
C         -6.98030        6.01907        3.32529
C          2.40159        6.36940       14.16897
C         -3.60193        6.33540        3.10110
Cl        -3.65058        6.95193        1.50473
Cl         4.63714        5.10458       11.21761
O          6.75384        4.45191        1.52283
C          6.78728        4.06181        0.17274
O          9.89870        4.68432        1.05179
C          9.68251        3.97625       -0.13318
C         17.57640        8.08872        5.87934
C         16.86769        7.48279        4.81064
C         17.59369        7.05761        3.68861
C         19.00463        7.13640        3.65356
C         19.71384        7.70558        4.73950
C         18.98146        8.19956        5.82658
C         15.46400        7.19412        4.64027
C         15.13267        6.73271        3.38916
S         16.51892        6.52291        2.44648
C         21.13239        7.87540        4.96870
C         21.45507        8.48615        6.15985
S         20.04118        8.94409        6.97461
C         16.84153        8.62545        7.05746
C         19.77087        6.66731        2.46669
C         20.83994        7.27172        1.82100
C         21.35618        6.50955        0.73259
C         20.61803        5.37204        0.49277
S         19.45793        5.13816        1.72930
C         17.14404        8.52625        8.40825
C         15.20044        9.80004        8.54581
S         15.44633        9.62233        6.86080
C         22.78406        8.74805        6.66530
S         23.09867        9.85241        7.93773
C         24.79957        9.78795        7.70432
C         25.11475        8.73812        6.86094
C         23.96319        8.16399        6.24267
C         25.68709       10.75374        8.38038
C         25.43955       12.19480        8.43651
C         26.36880       13.09216        9.04620
C         27.59439       12.60482        9.63242
C         27.85319       11.21816        9.55626
C         26.92365       10.28710        8.92200
N         28.91090       10.51979       10.00449
N         28.66410        9.28698        9.57711
N         27.49032        9.05543        8.96360
C         28.58437       13.48678       10.27596
C         29.65390        8.25325        9.82481
C         30.71157        8.16274        8.73591
C         28.34395       14.57533       11.09532
C         29.53077       15.22329       11.51395
C         30.66279       14.55378       11.09878
S         30.26957       13.30838       10.00076
C         20.75547        4.35695       -0.60743
C         14.00532       10.55740        9.05119
C         12.86970        9.63812        9.48502
C         20.03742        4.77838       -1.88427
C         16.24162        9.23823        9.25054
Cl        16.47744        9.34049       10.94299
Cl        22.73283        7.01594       -0.14894
O         24.36046       12.52733        7.65216
C         23.45320       13.57367        7.91350
O         26.40451       14.45055        9.11094
C         25.48156       15.45644        8.81522
C         35.58005       13.98268       12.32600
C         34.30372       14.53042       12.07032
C         34.11833       15.90467       12.27187
C         35.17496       16.73992       12.73090
C         36.45458       16.18503       13.00832
C         36.63343       14.82338       12.77907
C         33.05334       13.93334       11.63766
C         32.01223       14.82346       11.50224
S         32.49535       16.37930       11.93576
C         37.64868       16.80670       13.50995
C         38.70340       15.91987       13.73282
S         38.28386       14.38844       13.10099
C         35.82822       12.52332       12.16653
C         34.92515       18.19474       12.87206
C         34.28072       19.06001       12.00353
C         34.17323       20.39020       12.48803
C         34.81083       20.55543       13.69645
S         35.34982       19.04860       14.31119
C         36.57365       11.66021       12.97483
C         35.92009       10.15135       11.33697
S         35.25221       11.63236       10.79999
C         40.00029       16.15182       14.29617
S         40.70207       17.71992       14.32791
C         42.25531       17.10959       14.75623
C         42.14183       15.79723       15.16566
C         40.84722       15.24494       14.89818
C         43.45864       17.96708       14.66788
C         43.77546       18.82600       13.52728
C         44.99315       19.58227       13.46671
C         45.97237       19.51284       14.52933
C         45.67540       18.66253       15.62026
C         44.44311       17.87832       15.69369
N         46.39709       18.41374       16.72580
N         45.69664       17.46968       17.34176
N         44.50400       17.13047       16.82639
C         47.26332       20.24583       14.51082
C         46.24131       16.87770       18.55076
C         47.14640       15.68618       18.27919
C         47.51866       21.53375       14.07068
C         48.88956       21.90402       14.16580
C         49.65060       20.90124       14.71537
S         48.73666       19.48957       14.99604
C         35.00905       21.80674       14.50328
C         35.67674        8.88672       10.55915
C         34.57073        8.03693       11.17312
C         36.21911       22.61005       14.04223
C         36.69276       10.34590       12.45468
Cl        37.69458        9.17277       13.20230
Cl        33.34380       21.60570       11.61432
O         42.87485       18.60632       12.51226
C         42.42497       19.55764       11.57692
O         45.51568       20.37388       12.49110
C         45.03413       20.80337       11.25230
H         -4.40963        6.30000        7.63066
H         -4.47250        6.21810       10.21581
H          2.88202        6.09604        7.23530
H          2.68670        4.66734        9.02426
H         -1.72596        7.31286        3.72940
H          4.80257        6.06955        1.45190
H          2.38685        5.94815        2.40552
H          8.20224        9.14303        7.08965
H          9.91356        9.25532        6.65431
H          8.67241        7.02046        8.35165
H          9.72769        8.32315        8.92885
H         10.36830        7.07750        7.84679
H         11.52893        6.53375        0.42207
H         14.12325        6.70791        0.70753
H          2.36387        8.25351       13.14595
H          3.90365        7.41937       13.04639
H         -6.12667        4.06806        3.58277
H         -5.73818        4.81945        2.04642
H         -7.13376        6.24012        4.38716
H         -7.91668        5.61089        2.92881
H         -6.78358        6.96555        2.81020
H          1.32042        6.19313       14.17435
H          2.66893        6.84002       15.12240
H          2.90036        5.39488       14.12634
H          5.76713        3.79936       -0.12790
H          7.35017        3.13514        0.08237
H          7.11370        4.85525       -0.50316
H         10.66012        3.86204       -0.61656
H          9.07304        4.52211       -0.85145
H          9.33826        2.96565        0.08472
H         14.70721        7.39465        5.38826
H         21.89451        7.54927        4.27371
H         21.25744        8.22285        2.12748
H         18.00581        7.99164        8.78868
H         26.13073        8.43688        6.63580
H         24.01422        7.37998        5.49745
H         29.13272        7.30017        9.95512
H         30.14050        8.49992       10.77689
H         30.27487        7.84922        7.78321
H         31.48151        7.43382        9.01467
H         31.20926        9.12641        8.57658
H         27.35141       14.90252       11.37412
H         29.54162       16.09596       12.15377
H         20.35824        3.38700       -0.28500
H         21.81644        4.19477       -0.82982
H         13.63014       11.23771        8.27754
H         14.29936       11.18885        9.89747
H         12.53411        8.99651        8.66325
H         12.01226       10.23389        9.81681
H         13.16884        8.99151       10.31682
H         18.96794        4.94053       -1.71154
H         20.13871        3.99772       -2.64670
H         20.45564        5.70302       -2.29625
H         22.47549       13.29597        7.50458
H         23.75445       14.44435        7.33159
H         23.30244       13.78427        8.97492
H         25.91104       16.39508        9.18550
H         24.54607       15.34136        9.36064
H         25.37277       15.57766        7.73810
H         32.91101       12.87846       11.45190
H         37.74312       17.84087       13.77707
H         33.86712       18.74409       11.05039
H         37.06628       11.98237       13.88367
H         42.96177       15.22265       15.58161
H         40.59467       14.20933       15.08416
H         45.40937       16.60555       19.20722
H         46.82139       17.66077       19.05462
H         46.58895       14.85572       17.83592
H         47.59792       15.33387       19.21356
H         47.96131       15.94720       17.59405
H         46.74880       22.18633       13.67822
H         49.28826       22.86212       13.86045
H         50.70745       20.91702       14.94022
H         35.13183       21.56067       15.56434
H         34.11389       22.43541       14.43515
H         36.59956        8.29643       10.51854
H         35.41220        9.11741        9.52085
H         34.81610        7.72812       12.19542
H         34.42160        7.12831       10.57815
H         33.61732        8.57571       11.20514
H         37.14029       22.01993       14.09720
H         36.34660       23.49192       14.67941
H         36.10384       22.95782       13.00994
H         41.40497       19.29274       11.27590
H         43.01368       19.45182       10.66595
H         42.38390       20.57908       11.96108
H         45.78590       21.48949       10.84496
H         44.13072       21.40392       11.34790
H         44.96258       19.97592       10.54710
