278
PE4.sdf
C         -0.89694       -0.08859       -5.46234
C         -0.25958       -1.28383       -5.07826
C          1.13183       -1.32075       -4.81192
C          1.92332       -0.15403       -4.97099
C          1.29096        1.02486       -5.37815
C         -0.09938        1.07494       -5.61010
C         -2.31657       -0.30465       -5.64329
C         -2.72418       -1.58597       -5.38246
S         -1.41103       -2.58925       -5.03747
C          3.33197        0.08888       -4.74523
C          3.74251        1.37975       -4.99692
S          2.43320        2.31486       -5.49442
C          1.81091       -2.57193       -4.37578
C         -0.70610        2.36826       -6.02434
C          5.04766        1.95273       -4.76282
C          5.73469        2.93510       -5.46697
C          6.98299        3.22620       -4.81406
C          7.19397        2.49097       -3.68568
S          5.90622        1.38595       -3.37566
C         -0.25348        3.28593       -6.96326
C         -1.04911        4.46145       -7.04464
C         -2.17986        4.37352       -6.26531
S         -2.10979        2.99724       -5.24633
C         -3.37018        5.28643       -6.22847
C         -3.29749        6.31337       -5.11268
Cl        -0.62700        5.76895       -8.06477
C          3.02753       -3.10211       -4.78487
C          3.38415       -4.30567       -4.10876
C          2.39764       -4.73239       -3.24843
S          1.16345       -3.55411       -3.11429
Cl         4.87410       -5.09752       -4.39718
C          2.31854       -5.99386       -2.43624
C          1.76801       -7.16350       -3.24417
C         10.37995        4.39496       -3.31883
C         10.64410        5.77194       -3.44858
C         11.88754        6.36318       -3.16730
C         12.99920        5.63853       -2.71369
C         12.76166        4.26056       -2.50981
C         11.46443        3.63939       -2.80910
F          9.66865        6.59960       -3.85412
F         11.98462        7.69041       -3.34664
N         13.59287        3.30322       -2.06265
N         12.84038        2.20380       -2.09802
N         11.57261        2.31762       -2.52504
C         13.42749        0.92860       -1.72625
C         13.33392        0.65097       -0.23579
C         14.32601        6.18595       -2.48800
S         14.90871        7.41077       -3.53186
C         16.45362        7.41781       -2.73384
C         16.47008        6.51191       -1.71141
C         15.25156        5.80737       -1.54434
C          8.41558        2.79332       -3.02043
C          9.10912        3.78100       -3.68015
S          8.32036        4.29740       -5.12099
C          5.38482        3.64343       -6.74785
C          4.64885        4.96553       -6.55793
C         17.69120        8.13235       -2.87448
C         18.57010        7.73168       -1.87405
S         17.97947        6.45556       -0.88787
C         17.92239        9.21462       -3.89833
C         17.21547        9.11328       -5.23972
C         22.11246        8.34275       -0.82572
C         21.87484        9.68289       -1.16220
C         22.89689       10.64805       -1.08340
C         24.16940       10.28968       -0.57854
C         24.38454        8.96190       -0.18261
C         23.37714        7.98828       -0.30870
C         20.94931        7.54310       -1.08639
C         19.87267        8.25282       -1.55740
S         20.21568        9.90617       -1.58108
C         25.37214       11.06343       -0.41033
C         26.43018       10.35846        0.11412
S         25.99249        8.75817        0.39288
C         22.65442       12.06164       -1.48135
C         23.62588        6.56653        0.05286
C         27.78002       10.82033        0.29756
C         28.70107       10.50506        1.28712
C         29.94537       11.16958        1.01951
C         29.92772       11.92578       -0.11517
S         28.39449       11.89933       -0.89894
C         23.31783        5.41318       -0.65517
C         23.70484        4.21436        0.01088
C         24.39638        4.46650        1.17450
S         24.31398        6.12906        1.57400
C         25.11643        3.51039        2.08188
C         26.53221        3.22277        1.59214
Cl        23.36544        2.66833       -0.63958
C         23.02969       13.23007       -0.83475
C         22.61475       14.41547       -1.50774
C         21.86448       14.14496       -2.63046
S         21.87650       12.46575       -2.97027
Cl        23.00466       15.97231       -0.91337
C         21.14049       15.09568       -3.54302
C         19.75885       15.46310       -3.01198
C         33.49458       12.68601        0.61126
C         34.55264       11.84237        1.00431
C         35.88333       12.26803        1.12427
C         36.30047       13.58146        0.85361
C         35.27841       14.44877        0.40601
C         33.87882       14.01279        0.27998
F         34.30675       10.54908        1.27665
F         36.78055       11.34783        1.51697
N         35.34717       15.74325        0.05371
N         34.08527       16.04184       -0.25327
N         33.16081       15.07245       -0.15531
C         33.74920       17.40120       -0.63449
C         33.93674       17.65593       -2.11989
C         37.64622       14.09033        1.04610
S         38.53961       13.52748        2.38676
C         39.87180       14.56875        1.99188
C         39.59547       15.31337        0.87893
C         38.31730       15.04687        0.31852
C         31.16438       12.56279       -0.40196
C         32.10857       12.25638        0.54929
S         31.49256       11.25765        1.80757
C         28.55398        9.66171        2.52465
C         28.95443        8.20101        2.34458
C         41.16435       14.83848        2.54526
C         41.78894       15.83657        1.80300
S         40.88117       16.38861        0.45843
C         41.73441       14.15697        3.76372
C         40.92095       13.11687        4.50607
C         45.35533       16.47502        2.73315
C         45.11916       17.80904        2.36506
C         46.15542       18.76200        2.40824
C         47.41721       18.41732        2.94745
C         47.60009       17.11577        3.42668
C         46.61183       16.12724        3.27192
C         44.19791       15.68042        2.45976
C         43.09647       16.38447        2.05184
S         43.45611       18.03282        1.93366
C         48.64715       19.16531        3.06040
C         49.68186       18.47298        3.65078
S         49.13452       16.96982        4.18000
C         45.95227       20.14120        1.90104
C         46.90314       14.72748        3.70308
C         51.05031       18.90365        3.83388
C         52.20954       18.13633        3.87547
C         53.36969       18.98303        3.93646
C         53.05257       20.30493        3.96249
S         51.34779       20.58814        4.01782
C         47.53785       14.27007        4.85091
C         47.74263       12.86176        4.87468
C         47.13477       12.23075        3.81386
S         46.56050       13.37794        2.68013
C         46.99101       10.75916        3.54713
C         45.80532       10.15810        4.29453
Cl        48.62605       12.09799        6.12578
C         46.32807       21.35203        2.46262
C         46.01335       22.47766        1.64500
C         45.32785       22.12272        0.50385
S         45.24950       20.42014        0.35123
Cl        46.45854       24.06902        2.09112
C         44.74363       22.99171       -0.57385
C         43.35694       23.51181       -0.21548
C         56.69466       21.01020        4.18511
C         56.88130       22.12266        5.03468
C         58.11037       22.77559        5.23291
C         59.30346       22.40246        4.60435
C         59.17550       21.26862        3.75302
C         57.87997       20.57281        3.53676
F         55.82694       22.60726        5.71552
F         58.10839       23.80676        6.09535
N         60.10622       20.64571        3.01495
N         59.41911       19.67195        2.41353
N         58.10474       19.57115        2.65913
C         60.09982       18.78849        1.48272
C         60.71487       17.58030        2.16756
C         60.59431       23.06820        4.75442
S         60.64303       24.78247        4.91612
C         62.38432       24.76366        4.96673
C         62.87522       23.49350        4.87082
C         61.85299       22.50451        4.75432
C         54.18649       21.15739        3.95610
C         55.36420       20.43844        4.00103
S         55.10499       18.74549        3.95978
C         52.38170       16.64780        3.77671
C         52.41169       15.94389        5.12837
C         63.41423       25.75349        5.07047
C         64.65551       25.15490        5.04214
S         64.61580       23.44987        4.90273
C         63.11883       27.21252        5.16203
C         63.03294       27.71381        6.59585
H         -3.02657        0.45675       -5.93634
H         -3.73121       -1.97907       -5.41403
H          4.01804       -0.65919       -4.36872
H          0.63982        3.14103       -7.55799
H         -4.28857        4.69565       -6.12576
H         -3.46042        5.80961       -7.18867
H         -3.25345        5.83374       -4.13046
H         -4.18913        6.95118       -5.13652
H         -2.41892        6.95565       -5.21925
H          3.65910       -2.63747       -5.53217
H          1.68296       -5.84333       -1.55546
H          3.31274       -6.25545       -2.05601
H          0.77193       -6.94349       -3.64347
H          1.68696       -8.05360       -2.61087
H          2.42047       -7.41160       -4.08827
H         14.48191        0.95749       -2.03126
H         12.93393        0.14514       -2.30700
H         13.81764        1.44111        0.34915
H         13.82881       -0.29586        0.00471
H         12.29094        0.58439        0.08856
H         15.09443        5.04665       -0.78839
H          8.74682        2.31377       -2.10771
H          4.79792        2.98492       -7.39802
H          6.30359        3.85123       -7.31238
H          3.63754        4.82063       -6.17157
H          4.55503        5.48411       -7.51879
H          5.17328        5.63067       -5.86491
H         18.99303        9.24335       -4.13432
H         17.66712       10.17914       -3.44244
H         17.38955        8.14533       -5.71896
H         17.58828        9.89573       -5.91038
H         16.13994        9.28122       -5.15139
H         20.89838        6.47518       -0.91874
H         25.46549       12.10175       -0.70253
H         22.82471        5.41994       -1.61939
H         24.56069        2.56815        2.14880
H         25.16919        3.91095        3.10113
H         26.52785        2.75588        0.60109
H         27.03976        2.53998        2.28190
H         27.12873        4.13951        1.52695
H         23.58485       13.24194        0.09476
H         21.03072       14.66180       -4.54393
H         21.72995       16.01148       -3.66841
H         19.12940       14.57634       -2.88029
H         19.25099       16.13411       -3.71352
H         19.82194       15.97607       -2.04614
H         34.40391       18.06740       -0.05908
H         32.71835       17.59659       -0.32534
H         34.96444       17.44336       -2.43464
H         33.72320       18.70395       -2.35409
H         33.26749       17.02765       -2.71571
H         37.92085       15.55322       -0.55336
H         31.33679       13.19686       -1.26302
H         27.52711        9.71836        2.90350
H         29.17372       10.08154        3.32787
H         28.25913        7.66000        1.69907
H         28.95613        7.68947        3.31373
H         29.95246        8.10159        1.90694
H         42.02463       14.93439        4.48186
H         42.64635       13.63397        3.46199
H         39.99297       13.53235        4.90667
H         41.50128       12.73630        5.35368
H         40.69745       12.25742        3.86578
H         44.16908       14.61223        2.58789
H         48.77076       20.16949        2.67460
H         47.89349       14.92165        5.63893
H         47.90608       10.23745        3.85110
H         46.86982       10.56881        2.47445
H         45.90723       10.28099        5.37840
H         45.73152        9.08547        4.08540
H         44.86209       10.62592        3.99210
H         46.83591       21.43257        3.41627
H         44.67626       22.43586       -1.51697
H         45.40892       23.84104       -0.76655
H         42.65667       22.69246       -0.01999
H         42.95439       24.10633       -1.04309
H         43.38384       24.15099        0.67335
H         60.88173       19.37731        0.98729
H         59.37700       18.48303        0.72037
H         61.41343       17.87972        2.95661
H         61.26572       16.97319        1.44182
H         59.94468       16.95077        2.62410
H         62.04971       21.44462        4.65154
H         54.12045       22.23998        3.97702
H         53.30882       16.41336        3.24383
H         51.59438       16.21664        3.15141
H         53.29803       16.22806        5.70316
H         52.43823       14.85816        4.98269
H         51.53536       16.17579        5.74223
H         65.61720       25.64722        5.09353
H         62.18496       27.45108        4.63953
H         63.90786       27.76762        4.63995
H         62.21033       27.23583        7.13824
H         62.86145       28.79528        6.60566
H         63.95961       27.51349        7.14414
