209
PfBTAZ.sdf
C          2.19581       -0.97609      -11.61316
C          0.91968       -0.92973      -12.13803
S         -0.06875       -2.21474      -11.59030
C          1.17911       -2.85975      -10.61533
C          2.32434       -2.08719      -10.72396
C          1.02876       -4.10622       -9.86851
C          2.11933       -4.99966       -9.71661
C          2.07220       -6.20482       -8.99095
C          0.92176       -6.65400       -8.33573
C         -0.19457       -5.79762       -8.45543
C         -0.16124       -4.52980       -9.21165
F          3.29237       -4.70716      -10.30673
F          3.19376       -6.94404       -8.95624
N         -1.42035       -5.94315       -7.93527
N         -2.06493       -4.86585       -8.35488
N         -1.38802       -3.97343       -9.10215
C         -3.45604       -4.69671       -7.98480
C         -4.40091       -5.41617       -8.93357
C          0.79098       -7.88199       -7.57348
C         -0.30444       -8.71212       -7.47427
C         -0.13975       -9.78778       -6.54636
C          1.15828       -9.78514       -6.04150
S          2.05754       -8.43081       -6.58926
C          1.81642      -10.74448       -5.19286
S          1.42421      -12.39680       -5.27310
C          2.60179      -12.84161       -4.12335
C          3.30681      -11.73262       -3.69851
C          2.84795      -10.52768       -4.30082
C          2.70697      -14.23918       -3.72348
C          2.39607      -15.33182       -4.56127
C          2.43676      -16.67172       -4.15690
C          2.82737      -17.07246       -2.86698
C          3.18110      -16.02529       -1.96592
C          3.10925      -14.57963       -2.39989
F          2.03791      -15.12441       -5.83981
N          3.60423      -16.15814       -0.69468
S          3.85462      -14.64371       -0.09266
N          3.44705      -13.73420       -1.40778
C          2.87940      -18.46459       -2.44304
C          2.64759      -19.01447       -1.19985
C          2.83331      -20.42171       -1.18547
C          3.12877      -20.93528       -2.43426
S          3.28104      -19.67915       -3.57505
C          3.30433       -0.01013      -11.90974
C          4.14088       -0.42348      -13.11190
C         -1.23529      -10.78073       -6.23860
C         -2.64734      -10.21283       -6.27992
C          4.00712      -22.96080       -3.76315
C          3.23066      -22.32853       -2.79751
S          2.21955      -23.44924       -1.96258
C          2.79113      -24.77824       -2.84514
C          3.74007      -24.37214       -3.76545
C          2.23544      -26.11447       -2.66990
C          2.08663      -26.97851       -3.78535
C          1.58350      -28.28758       -3.71333
C          1.17454      -28.88380       -2.51649
C          1.28759      -28.05885       -1.37281
C          1.81525      -26.67755       -1.42794
F          2.42216      -26.53380       -5.00590
F          1.48107      -28.96826       -4.86655
N          0.97606      -28.33906       -0.10768
N          1.27504      -27.21776        0.54713
N          1.78781      -26.19632       -0.16299
C          1.04205      -27.17078        1.97405
C         -0.38477      -26.77681        2.32489
C          0.63832      -30.22817       -2.36558
C         -0.33503      -30.66365       -1.49453
C         -0.58834      -32.06928       -1.55241
C          0.19149      -32.65159       -2.54907
S          1.25234      -31.51913       -3.28040
C          0.19049      -34.01048       -3.02576
S          0.00336      -35.34372       -1.97910
C         -0.15649      -36.44532       -3.26956
C          0.15103      -35.83188       -4.46984
C          0.36425      -34.43533       -4.32867
C         -0.48714      -37.84434       -3.03463
C          0.08214      -38.86584       -3.81367
C         -0.23298      -40.22406       -3.68481
C         -1.15116      -40.71507       -2.73650
C         -1.76839      -39.74266       -1.89547
C         -1.43931      -38.26809       -2.05644
F          0.99098      -38.55227       -4.75238
N         -2.65730      -39.96813       -0.91107
S         -3.06631      -38.50405       -0.26893
N         -2.15233      -37.50191       -1.20986
C         -1.47613      -42.12950       -2.60277
C         -2.66457      -42.73261       -2.24559
C         -2.56423      -44.14955       -2.20412
C         -1.32498      -44.61135       -2.60667
S         -0.27470      -43.30451       -2.91251
C          5.03976      -22.35556       -4.68373
C          4.49887      -21.94184       -6.04756
C         -1.59240      -32.77561       -0.67251
C         -2.31037      -31.89525        0.34133
C          0.29436      -46.61593       -2.68241
C         -0.93752      -45.98503       -2.82704
S         -2.14337      -47.07567       -3.40514
C         -1.07353      -48.38829       -3.46622
C          0.18782      -48.00029       -3.05068
C         -1.47575      -49.68755       -3.99380
C         -0.56555      -50.46607       -4.74868
C         -0.85068      -51.73578       -5.28125
C         -2.08684      -52.36908       -5.11884
C         -3.03335      -51.62841       -4.38039
C         -2.75210      -50.29549       -3.81174
F          0.66096      -49.97604       -5.00277
F          0.12132      -52.33451       -5.98989
N         -4.29381      -51.97043       -4.05744
N         -4.72658      -50.91813       -3.36966
N         -3.87373      -49.89501       -3.16489
C         -6.08962      -50.94113       -2.87108
C         -7.09496      -50.45341       -3.89949
C         -2.45051      -53.67808       -5.63275
C         -3.67228      -54.09933       -6.11099
C         -3.72149      -55.49042       -6.44102
C         -2.46079      -56.06290       -6.28643
S         -1.32906      -54.95171       -5.63536
C         -2.00977      -57.39210       -6.61603
S         -2.67565      -58.24379       -7.92959
C         -1.65922      -59.59625       -7.71355
C         -0.78711      -59.37830       -6.66375
C         -0.99455      -58.11973       -6.02755
C         -1.82053      -60.75526       -8.58890
C         -2.29204      -60.69179       -9.91847
C         -2.47500      -61.80731      -10.75016
C         -2.17604      -63.12349      -10.35484
C         -1.69338      -63.27636       -9.01985
C         -1.52048      -62.06628       -8.11709
F         -2.58753      -59.50534      -10.47522
N         -1.33678      -64.42153       -8.40980
S         -0.86739      -64.04289       -6.87287
N         -1.08287      -62.40712       -6.88994
C         -2.34124      -64.27727      -11.23569
C         -2.71409      -65.57256      -10.92729
C         -2.74980      -66.42392      -12.06741
C         -2.41332      -65.75633      -13.21989
S         -2.03867      -64.12007      -12.92398
C          1.59368      -46.03715       -2.17527
C          2.51202      -45.50176       -3.26788
C         -4.97596      -56.17588       -6.92751
C         -6.27474      -55.62832       -6.35310
H          0.51633       -0.20492      -12.83025
H          3.24625       -2.32214      -10.20248
H         -3.67503       -3.62792       -7.93028
H         -3.56973       -5.11396       -6.97453
H         -4.34947       -4.98654       -9.93843
H         -5.43296       -5.33559       -8.57660
H         -4.15623       -6.48183       -9.01254
H         -1.22035       -8.52869       -8.02284
H          4.11587      -11.76799       -2.97799
H          3.27362       -9.55379       -4.09240
H          2.14163      -17.41135       -4.90069
H          2.35816      -18.43838       -0.32989
H          2.70843      -21.03112       -0.29826
H          3.95920        0.06769      -11.03253
H          2.88781        0.98889      -12.07921
H          4.59092       -1.41162      -12.96584
H          4.95074        0.29567      -13.27292
H          3.53449       -0.46169      -14.02284
H         -1.09783      -11.18501       -5.23086
H         -1.16271      -11.61229       -6.95008
H         -2.75626       -9.38163       -5.57546
H         -3.36858      -10.98947       -6.00571
H         -2.91503       -9.85467       -7.27862
H          4.22938      -25.05998       -4.44654
H          1.77039      -26.48430        2.42487
H          1.24594      -28.17520        2.36930
H         -0.60306      -25.75651        1.99890
H         -0.54267      -26.83460        3.40780
H         -1.11219      -27.44424        1.84633
H         -0.84105      -29.98948       -0.81431
H          0.19194      -36.35147       -5.41967
H          0.57870      -33.77348       -5.15913
H          0.26960      -40.90409       -4.37206
H         -3.57361      -42.18857       -2.01901
H         -3.38830      -44.79882       -1.93320
H          5.83341      -23.09615       -4.85092
H          5.53227      -21.50704       -4.19815
H          4.14283      -22.80735       -6.61564
H          5.29097      -21.46016       -6.63187
H          3.66635      -21.23781       -5.97376
H         -1.07425      -33.55185       -0.09978
H         -2.34166      -33.26191       -1.30821
H         -1.59843      -31.42516        1.02920
H         -3.00191      -32.49747        0.93846
H         -2.88721      -31.10561       -0.15063
H          1.03250      -48.67995       -3.02333
H         -6.13010      -50.34695       -1.95130
H         -6.31483      -51.98011       -2.60774
H         -6.93314      -49.39838       -4.14059
H         -8.11436      -50.56719       -3.51766
H         -7.02176      -51.02489       -4.83241
H         -4.52499      -53.43443       -6.18352
H         -0.03091      -60.08583       -6.34638
H         -0.41237      -57.77243       -5.18248
H         -2.87025      -61.60854      -11.74584
H         -2.94758      -65.90354       -9.92227
H         -3.00904      -67.47526      -12.03728
H         -2.36061      -66.15047      -14.22452
H          2.13940      -46.82523       -1.63901
H          1.39912      -45.25992       -1.42924
H          2.84597      -46.30139       -3.93697
H          3.40223      -45.04841       -2.81730
H          2.02989      -44.74126       -3.88697
H         -4.94650      -57.23597       -6.65694
H         -5.01001      -56.10545       -8.02137
H         -6.27625      -55.68920       -5.25987
H         -7.12134      -56.21217       -6.72859
H         -6.44130      -54.58590       -6.64067
