160
i-IEICO-4Cl.sdf
C          3.20539       -1.60756       -0.28271
C          3.19352       -1.04531        0.98785
C          2.25548       -0.08940        1.42462
C          1.16621        0.13521        0.54389
C          0.97035       -0.84155       -0.43912
C          1.96761       -1.66690       -0.92539
C          4.48135       -2.41868       -0.52104
C          4.52613       -2.92863        0.90228
C          3.94469       -2.02440        1.75011
C          4.80374       -4.19781        1.47072
C          4.31509       -4.34016        2.80139
S          3.60321       -2.80865        3.19207
C         -0.05284        1.09350        0.53019
C         -1.07047        0.05787        0.02204
C         -0.44278       -0.94762       -0.61826
C         -2.46771       -0.07317        0.01035
C         -2.91986       -1.33053       -0.51832
S         -1.51681       -2.13504       -1.11781
C          4.26281       -5.55870        3.77380
C         -4.30487       -2.00912       -0.58082
C         -0.30609        1.87872        1.86827
C          0.11958        2.06796       -0.70338
C          4.19256       -3.51401       -1.60725
C          5.73140       -1.40363       -0.73397
C          4.36688       -3.22868       -2.96007
C          4.20238       -4.09539       -3.98905
C          3.74830       -5.35882       -3.73975
C          3.44625       -5.70977       -2.41057
C          3.66859       -4.80061       -1.35158
C          6.12530       -0.46906        0.28080
C          7.20376        0.41391        0.12149
C          7.95776        0.41337       -1.04903
C          7.61579       -0.46537       -2.03928
C          6.55925       -1.32247       -1.89279
C         -0.23126        3.29838        1.90439
C         -0.49572        4.05874        3.01744
C         -0.80164        3.46034        4.21961
C         -0.81128        2.04757        4.27216
C         -0.58218        1.26255        3.11274
C         -1.00153        2.56382       -1.41831
C         -0.85841        3.40950       -2.49589
C          0.39948        3.77854       -2.97247
C          1.52794        3.30133       -2.30763
C          1.38906        2.51052       -1.16940
C         -1.05345        4.37269        5.39793
C          0.54230        4.70848       -4.14285
C          9.10859        1.32226       -1.30711
C          3.49247       -6.23256       -4.92056
C         10.23512        1.12092       -0.30387
C          4.71042       -7.04896       -5.34143
C         -2.02581        3.77455        6.40597
C         -0.81429        5.17424       -4.67999
S         -4.59452       -3.09313       -1.82664
C         -6.13351       -3.58224       -1.41152
C         -6.54858       -2.95716       -0.23380
C         -5.49100       -2.06192        0.26962
S          3.03765       -5.63719        4.90798
C          3.49799       -7.01234        5.77120
C          4.65081       -7.55265        5.26259
C          5.06189       -6.74793        4.05131
O          6.14506       -7.03006        3.28905
C          7.22099       -7.72248        3.79597
C          8.42725       -7.36861        3.08419
C          5.33298       -8.79849        5.99496
C          5.17263       -9.65609        7.14140
C          6.33332      -10.48549        7.56001
C          6.33122      -10.52093        9.03316
C          5.16631       -9.95897        9.49869
C          4.23685       -9.87802        8.34766
C          7.28957      -10.99230        9.92198
C          7.07762      -10.82164       11.30541
C          5.93596      -10.13433       11.77344
C          4.97231       -9.69992       10.86678
O          7.23560      -10.88573        6.84086
C          2.92481      -10.28441        8.57183
C          1.88727      -10.65277        7.63695
C          2.32948      -10.32309        9.90481
N          1.78828      -10.37713       10.92848
N          0.93709      -10.96913        7.05172
Cl         5.64074       -9.86638       13.48511
Cl         8.25546      -11.45882       12.43371
O         -5.52079       -1.41803        1.47057
C         -6.25777       -1.80446        2.58682
C         -6.66335       -0.59333        3.38185
C         -7.94913       -3.42131        0.25305
C         -9.15057       -2.81176       -0.11290
C         -9.73118       -3.48446       -1.28868
C         -9.36539       -2.60376       -2.39988
C         -8.94211       -1.37165       -1.91380
C         -9.23300       -1.37654       -0.49022
C         -9.31708       -2.90391       -3.74467
C         -8.75892       -1.95576       -4.61257
C         -8.27383       -0.71788       -4.11246
C         -8.39957       -0.40544       -2.74798
O         -9.97994       -4.67734       -1.39619
C         -9.72236       -0.36327        0.27630
C        -10.24169       -0.72342        1.56437
C         -9.61963        1.03709       -0.08724
N        -10.68940       -0.65106        2.62275
N         -9.55092        2.16531       -0.35097
Cl        -8.63463       -2.37325       -6.30919
Cl        -7.48464        0.43654       -5.17062
H          2.34264        0.36722        2.40642
H          1.75753       -2.36734       -1.71583
H          5.21862       -4.98500        0.86751
H         -3.03756        0.73982        0.40605
H          4.63974       -2.32454       -3.33205
H          4.42689       -3.70529       -4.97893
H          3.03498       -6.67546       -2.20007
H          3.39970       -5.11172       -0.36244
H          5.64405       -0.37284        1.23233
H          7.44703        1.09035        0.91860
H          8.15051       -0.53376       -2.97855
H          6.51178       -1.86391       -2.78035
H          0.04633        3.92949        1.10381
H         -0.44363        5.13718        2.89480
H         -1.00185        1.54913        5.20440
H         -0.61353        0.18657        3.20936
H         -2.02443        2.35545       -1.17666
H         -1.76726        3.77504       -2.94087
H          2.53119        3.55352       -2.62729
H          2.31381        2.30017       -0.67668
H         -0.08388        4.61507        5.88620
H         -1.47996        5.33999        5.03127
H          1.12802        5.59939       -3.82148
H          1.09067        4.18765       -4.95091
H          9.50374        1.11217       -2.32994
H          8.73972        2.36571       -1.28011
H          2.64745       -6.90050       -4.67974
H          3.18963       -5.57898       -5.77374
H         10.64269        0.08984       -0.35122
H         11.06197        1.81309       -0.55499
H          9.87954        1.33243        0.72655
H          5.03358       -7.71206       -4.51197
H          4.43736       -7.66804       -6.22204
H          5.55996       -6.40920       -5.65683
H         -1.62159        2.82674        6.80789
H         -2.17018        4.46447        7.25786
H         -3.01324        3.59008        5.93435
H         -1.37100        5.73556       -3.88882
H         -0.67899        5.82735       -5.54931
H         -1.42115        4.28906       -4.98947
H         -6.71537       -4.29619       -1.98408
H          2.97816       -7.40349        6.61282
H          7.37614       -7.37661        4.83089
H          7.19707       -8.80875        3.76670
H          8.37546       -6.30217        3.23819
H          9.25906       -7.96867        3.53502
H          8.32759       -7.49725        2.00644
H          6.27675       -9.00978        5.56365
H          8.16797      -11.48883        9.54702
H          4.09227       -9.19521       11.24599
H         -5.63655       -2.38447        3.29358
H         -7.15497       -2.39708        2.32548
H         -7.21530        0.03492        2.68704
H         -7.23108       -0.91996        4.28430
H         -5.82932        0.05166        3.70022
H         -8.00578       -4.50778        0.11648
H         -9.66355       -3.86623       -4.09226
H         -8.03787        0.53364       -2.34610
