145
IPT-2F.sdf
C          3.13093        0.97939       -1.48678
C          2.52700        1.41755       -0.25981
C          3.68351        2.26255       -2.09841
C          3.23962        3.19925       -1.18502
C          3.43639        2.62813        0.20768
C          3.11775        3.77603        1.30204
C          4.99496        2.10377        0.44294
C          3.79337        2.65047       -3.47961
C          3.10212        3.88826       -3.83527
C          1.92652        3.84110       -3.10605
C          1.96414        3.63286       -1.72764
C          2.69310        4.52705       -5.19645
C          1.55070        3.56361       -5.32001
C          0.95087        3.36756       -4.12085
C          2.02821        6.01802       -5.01822
C          3.87815        4.51615       -6.23191
C          1.20381        2.67251       -6.30361
C          0.34802        1.61990       -5.92721
S         -0.00231        1.94970       -4.27242
C         -4.38066       -1.41838       -0.71864
C         -5.44534       -0.58994       -0.38930
C         -6.96422       -0.81366       -0.37098
C         -7.57163        0.55739       -0.10865
C         -6.55636        1.45249        0.02200
C         -5.33606        0.81137        0.02960
C         -8.87908        1.06443        0.05584
C         -9.05936        2.45567        0.29769
C         -7.96085        3.32508        0.37248
C         -6.69863        2.80721        0.24825
O         -4.53942        1.31703        0.76318
C         -7.66997       -1.96536       -0.54059
C         -7.06940       -3.24840       -0.82267
C         -9.11212       -2.00589       -0.45223
N        -10.26443       -2.10982       -0.39482
N         -6.64109       -4.30087       -1.04892
F        -10.29564        2.96981        0.46901
C         -0.02339        0.38981       -6.79680
C          0.66415       -0.82280       -6.85125
C          0.46149       -2.10909       -7.67526
C          1.56348       -3.06289       -7.24896
C          2.39457       -2.38521       -6.43854
C          1.88687       -1.13964       -6.10465
O          2.35809       -0.57967       -5.14903
C         -0.41129       -2.37213       -8.67678
C         -1.42356       -1.44812       -9.11365
N         -2.25420       -0.74952       -9.51488
C         -0.25138       -3.54887       -9.50462
N         -0.14913       -4.48074      -10.18413
C          1.91069       -4.41056       -7.50207
C          3.06678       -4.96657       -6.88375
C          3.90035       -4.17903       -6.09364
C          3.57615       -2.86689       -5.93094
F          3.40309       -6.26010       -7.06461
C          4.49238        3.31831       -6.67269
C          5.56786        3.30503       -7.55618
C          6.10015        4.49640       -8.04568
C          5.52179        5.69927       -7.63184
C          4.43019        5.71081       -6.76083
C          1.83441        6.66619       -3.74952
C          1.23269        7.92915       -3.61229
C          0.77640        8.63755       -4.71967
C          0.94718        8.06787       -5.97234
C          1.54278        6.80676       -6.12264
C          2.16441        3.51500        2.22159
C          1.76957        4.32650        3.29341
C          2.36824        5.56342        3.47065
C          3.33787        5.93244        2.53627
C          3.73887        5.05738        1.50666
C          5.58350        2.13013        1.73179
C          6.89147        1.75360        2.00909
C          7.74960        1.28267        1.02906
C          7.24848        1.20228       -0.27253
C          5.92136        1.59462       -0.56104
C          1.15365        0.85972       -0.16399
C          0.93491       -0.09643       -1.15984
S          2.20474       -0.22429       -2.26786
N         -0.07724        1.07985        0.48666
C         -0.93098        0.18978       -0.13421
C         -0.37412       -0.55631       -1.07891
C         -0.61585        2.09719        1.46291
C         -0.49315        1.76521        2.91708
C         -2.30452       -0.03756       -0.02835
C         -2.90262       -1.00957       -0.77051
S         -1.63480       -1.54197       -1.71397
C          9.17089        0.89143        1.38913
C          9.29474        0.36728        2.82895
C          1.97985        6.46309        4.62502
C          3.14236        7.34727        5.09383
C          7.27492        4.48231       -8.99045
C          6.84209        4.42161      -10.45660
C          0.07668        9.97045       -4.57425
C          0.94262       11.02726       -3.89620
H          4.09738        1.96312       -4.25490
H          1.04358        3.50659       -1.17841
H          1.70526        2.83023       -7.18276
H         -4.58333       -2.44254       -1.01086
H         -9.74689        0.43643        0.02167
H         -8.06247        4.38708        0.55339
H         -5.82918        3.42777        0.33895
H         -0.88596        0.51149       -7.45228
H          1.32585       -5.04988       -8.12145
H          4.79405       -4.55144       -5.60784
H          4.23195       -2.20506       -5.41932
H          4.17685        2.34878       -6.37260
H          5.97104        2.34100       -7.83798
H          5.90649        6.64495       -7.97558
H          4.05623        6.68381       -6.51814
H          2.11383        6.25091       -2.80511
H          1.11775        8.35462       -2.62354
H          0.60277        8.59618       -6.85567
H          1.58105        6.53150       -7.15347
H          1.78401        2.60742        2.03751
H          1.00783        3.97395        3.97196
H          3.81258        6.89451        2.59085
H          4.53572        5.48045        0.93900
H          5.07601        2.44922        2.59986
H          7.20679        1.84870        3.03013
H          7.88173        0.84215       -1.07852
H          5.71406        1.46582       -1.60279
H         -0.09949        3.03666        1.51412
H         -1.68263        2.22186        1.38399
H          0.50937        1.94443        3.28833
H         -1.20130        2.27251        3.59855
H         -0.78733        0.77466        3.08019
H         -2.84784        0.44669        0.54784
H          9.53533        0.10810        0.69234
H          9.82956        1.78030        1.28763
H          8.65042       -0.52582        2.97057
H         10.34083        0.10109        3.05309
H          9.01345        1.14303        3.57116
H          1.14196        7.11358        4.30256
H          1.62890        5.84952        5.48765
H          3.52471        7.96716        4.26063
H          2.81075        8.04444        5.88173
H          3.96983        6.73291        5.50395
H          7.87909        5.39978       -8.82995
H          7.91918        3.60389       -8.76831
H          6.22832        5.30658      -10.72279
H          7.73543        4.42008      -11.11194
H          6.26461        3.49649      -10.66201
H         -0.22899       10.36165       -5.57048
H         -0.84571        9.81769       -3.97440
H          1.85878       11.21971       -4.49233
H          0.36256       11.97116       -3.81348
H          1.22710       10.70694       -2.87264
