138
IXIC-2Cl.sdf
C         -1.50514        1.08090        1.22963
C         -2.23274       -0.06789        1.44226
C         -2.57397        2.28184        0.90544
C         -3.81101        1.34913        0.60731
C         -3.57018        0.08049        1.04289
C         -3.16153        3.18607        2.12357
C         -2.27702        3.17709       -0.36170
C         -5.19102        1.44129        0.22132
C         -5.85532        0.25318        0.37703
S         -4.86454       -0.99153        0.92313
C         -1.13765        2.99256       -1.18291
C         -1.02259        3.62267       -2.44135
C         -2.05131        4.44142       -2.93372
C         -3.12036        4.73221       -2.09008
C         -3.21540        4.13951       -0.82848
C         -2.58469        4.40189        2.60679
C         -3.28149        5.27381        3.48461
C         -4.56359        4.95600        3.95827
C         -5.09198        3.73065        3.61889
C         -4.41916        2.88125        2.76157
C         -9.20942        1.93342       -0.20083
C        -10.28643        1.18455       -0.65766
C        -11.77031        1.57097       -0.77454
C        -12.49336        0.35724       -1.32181
C        -11.57983       -0.65457       -1.50984
C        -10.26198       -0.22779       -1.11720
O         -9.33298       -1.00444       -1.08796
C        -12.37813        2.74786       -0.43697
C        -11.69094        3.87732        0.13112
N        -11.18283        4.81070        0.58976
C        -13.80102        2.96339       -0.57143
N        -14.93626        3.17613       -0.66297
C        -13.85387        0.10035       -1.63682
C        -14.22632       -1.16319       -2.14079
C        -13.26325       -2.16511       -2.32339
C        -11.93008       -1.91331       -2.00150
Cl       -15.90060       -1.49886       -2.55100
S         -6.37002        2.59722       -0.21482
C         -7.73954        1.53226       -0.09847
C         -7.22462        0.25626        0.17270
S         -1.39396       -1.47738        1.76297
C          0.08480       -0.78169        1.42293
C         -0.11152        0.60872        1.16459
C          8.36229       -4.66080       -0.20192
C          9.68672       -4.39964        0.16084
C         10.91932       -5.36305        0.22118
C         12.08193       -4.51435        0.67508
C         11.66445       -3.21633        0.88293
C         10.23900       -3.09188        0.60969
C         13.44851       -4.82546        0.89223
C         14.34661       -3.83160        1.29835
C         13.90099       -2.52656        1.50031
C         12.55664       -2.21703        1.29574
O          9.62486       -2.05368        0.76504
C         11.04612       -6.70578       -0.10768
C          9.92527       -7.46579       -0.61746
C         12.34704       -7.43514       -0.07414
N         13.38150       -7.97784       -0.03584
N          9.04547       -8.09795       -1.02877
Cl        16.03971       -4.23072        1.54673
C          1.38560       -1.35305        1.15383
C          2.18515       -0.33791        0.67517
S          1.40189        1.20598        0.64584
C          2.07169       -2.80983        0.98081
C          3.40421       -2.29257        0.31101
C          3.43716       -0.91063        0.21751
C          2.55954       -3.71274        2.22649
C          1.04190       -3.48038        0.02946
C          2.59998       -5.14888        2.24398
C          3.28205       -5.87299        3.23767
C          3.97467       -5.22005        4.25511
C          3.88739       -3.83765        4.32606
C          3.18074       -3.11329        3.36202
C          1.12934       -3.42136       -1.38096
C         -0.03277       -3.61256       -2.16731
C         -1.27656       -3.89104       -1.55893
C         -1.31731       -4.11439       -0.19527
C         -0.18734       -3.91167        0.57296
C          4.82154       -5.98173        5.24706
C          6.28072       -5.52334        5.18314
C         -2.59210       -3.71575       -2.28760
C         -3.10213       -4.91862       -3.04741
C          4.68644       -2.83666       -0.05100
C          5.63450       -1.88797       -0.34862
S          4.94519       -0.32863       -0.32124
S          5.49436       -4.33437       -0.02185
C          7.10602       -3.75332       -0.27772
C          6.97022       -2.34780       -0.48400
C         -5.38680        5.88140        4.82914
C         -5.67124        7.20731        4.13156
C         -2.04080        4.95294       -4.36586
C         -2.06340        3.85704       -5.44372
H         -0.35300        2.31350       -0.90130
H         -0.16223        3.40822       -3.06251
H         -3.92520        5.37568       -2.42865
H         -4.08197        4.42336       -0.29620
H         -1.62093        4.75003        2.31781
H         -2.83208        6.21718        3.77049
H         -6.06315        3.42434        3.99280
H         -4.98745        1.99196        2.62294
H         -9.39980        2.92671        0.17994
H        -14.64034        0.82090       -1.51657
H        -13.54467       -3.13659       -2.71211
H        -11.18078       -2.68199       -2.13628
H         -7.76682       -0.65130        0.29670
H          8.14324       -5.68129       -0.45742
H         13.87846       -5.79015        0.76614
H         14.59933       -1.75862        1.81268
H         12.24511       -1.21274        1.45371
H          2.18920       -5.79432        1.51006
H          3.30936       -6.95488        3.17925
H          4.40572       -3.29770        5.11060
H          3.20169       -2.05967        3.53687
H          2.03347       -3.09595       -1.87657
H          0.01924       -3.43390       -3.23311
H         -2.25222       -4.32762        0.31169
H         -0.38803       -3.94845        1.61640
H          4.44249       -5.81830        6.27805
H          4.78379       -7.06901        5.03193
H          6.34298       -4.44033        5.40158
H          6.89127       -6.08923        5.92152
H          6.71028       -5.68571        4.17501
H         -3.37973       -3.38435       -1.56252
H         -2.47035       -2.86606       -2.99241
H         -3.41745       -5.72572       -2.35293
H         -3.98980       -4.60181       -3.64045
H         -2.31817       -5.27491       -3.73851
H          7.76528       -1.64491       -0.66442
H         -6.34822        5.38778        5.10510
H         -4.85554        6.11355        5.76910
H         -6.26896        7.04855        3.21030
H         -6.23823        7.86836        4.82105
H         -4.71078        7.70358        3.87655
H         -2.89778        5.63649       -4.55068
H         -1.11093        5.52584       -4.51082
H         -3.01040        3.28037       -5.41441
H         -1.97465        4.34255       -6.44227
H         -1.19883        3.16957       -5.33567
