132
JC14.sdf
C          0.18974       -0.22403        1.62007
C          0.63303        0.99275        2.37603
C         -0.14855        2.16469        2.32476
C          0.20721        3.33571        2.94468
C          1.36684        3.48455        3.72383
C          2.19911        2.34414        3.73858
C          1.86483        1.12681        3.09332
S          3.68865        2.17768        4.50420
C          3.94309        0.58212        4.03379
C          2.86179        0.14797        3.27813
C          1.74181        4.75469        4.43751
C          0.87498        5.67793        4.93048
C          1.19682        6.90659        5.51337
N          0.11245        7.71502        5.89193
C         -1.08264        7.07996        5.62927
S         -0.78345        5.57057        4.99125
C         -2.36306        7.51613        5.80351
C          0.20322        9.07475        6.48038
C          1.62360        9.59684        6.72170
O          2.35912        7.24994        5.63639
C         -3.47078        6.67231        5.39925
C         -2.74068        8.83303        6.26073
N         -3.07067        9.87241        6.63958
N         -4.34278        5.97484        5.08336
N         -1.29993        2.38316        1.65746
N         -1.60500        3.65585        1.86745
N         -0.70586        4.26171        2.62076
S          1.23030       -1.41467        0.97007
C          0.02254       -2.13848        0.08009
C         -1.17232       -1.53064        0.26660
C         -1.12346       -0.46075        1.14879
C         -0.00041       -2.92389       -1.11549
C         -1.27065       -2.74186       -1.67151
C         -2.21973       -2.05425       -0.68642
C          1.06940       -3.52391       -1.79106
C          0.86729       -3.81517       -3.14961
C         -0.34057       -3.44610       -3.74271
C         -1.45558       -2.98184       -3.03864
C          1.88855       -4.28959       -4.19926
C          1.17212       -3.78534       -5.42784
C         -0.09387       -3.41735       -5.14202
C          1.53452       -3.55336       -6.74672
C          0.52255       -2.89948       -7.47842
S         -0.83052       -2.73288       -6.44917
C         -3.06997       -3.14694        0.02858
C         -3.11574       -0.96623       -1.34572
C          3.26824       -3.59429       -3.96645
C          1.99620       -5.84484       -4.23585
C          0.66578       -2.33220       -8.86664
C          1.91171       -2.35360       -9.54104
C          2.12317       -1.80614      -10.78778
C          1.11218       -1.16580      -11.52427
C         -0.17234       -1.20359      -10.89907
C         -0.40057       -1.73146       -9.60498
S         -1.67240       -0.73804      -11.50945
C         -2.58386       -1.03137      -10.16137
C         -1.75739       -1.58395       -9.20812
C          1.43564       -0.55275      -12.86672
C          0.83952        0.52889      -13.43957
C          1.08006        1.05748      -14.71611
N          0.27430        2.13195      -15.09184
C         -0.61144        2.47550      -14.10233
S         -0.31672        1.52392      -12.76657
C         -1.60288        3.40732      -14.10626
C          0.36016        2.73626      -16.42851
C         -0.61381        2.05297      -17.38490
O          1.90480        0.57313      -15.47386
C         -2.47780        3.53441      -12.95470
C         -1.96648        4.24745      -15.22134
N         -2.27891        4.89786      -16.12625
N         -3.18856        3.62755      -12.04205
N          3.07905       -2.86891       -9.12444
N          3.95926       -2.63751      -10.08625
N          3.42003       -1.99202      -11.11778
C         -2.80531        4.32108        1.37356
C         -2.86060        4.29692       -0.14652
C          5.33590       -3.12709      -10.02921
C          6.25735       -2.08185       -9.41574
C         -4.03035       -2.61563        1.10076
C         -2.36715        0.17142       -2.03421
C          4.42480       -4.02014       -4.89025
C          0.67528       -6.56751       -4.56487
H          4.80602       -0.02127        4.28282
H          2.83688       -0.85659        2.89867
H          2.80381        4.94129        4.57305
H         -0.29892        9.79660        5.80073
H         -0.31596        9.07853        7.46295
H          2.18433        9.66122        5.76488
H          1.58824       10.61766        7.15430
H          2.15675        8.93988        7.44250
H         -1.99123        0.14822        1.34038
H          2.03960       -3.62218       -1.32625
H         -2.36657       -2.69662       -3.54742
H          2.50732       -3.78442       -7.10319
H         -3.66869       -3.71202       -0.71756
H         -2.38275       -3.87244        0.52235
H         -3.78083       -1.46110       -2.08749
H         -3.76440       -0.49269       -0.58087
H          3.13835       -2.49260       -4.03540
H          3.62054       -3.83751       -2.94277
H          2.70947       -6.15231       -5.02796
H          2.37200       -6.21147       -3.25727
H         -3.64250       -0.84234      -10.05659
H         -2.20843       -1.85826       -8.28338
H          2.24993       -1.01866      -13.41685
H          0.20631        3.83102      -16.37623
H          1.38700        2.62228      -16.83504
H         -1.65703        2.12495      -17.01442
H         -0.55199        2.52916      -18.38537
H         -0.34647        0.97889      -17.48360
H         -3.70014        3.81190        1.78863
H         -2.81360        5.37973        1.71844
H         -2.88553        3.24875       -0.51108
H         -3.78124        4.81685       -0.48708
H         -1.97600        4.81678       -0.57110
H          5.37649       -4.04486       -9.39888
H          5.68483       -3.40226      -11.04673
H          5.92537       -1.83661       -8.38389
H          7.29433       -2.47941       -9.36757
H          6.25231       -1.16137      -10.03436
H         -4.83128       -1.99836        0.64538
H         -4.52685       -3.46858        1.60970
H         -3.49031       -2.01804        1.86389
H         -1.69416       -0.20911       -2.82697
H         -3.11069        0.85509       -2.49771
H         -1.78106        0.75153       -1.29302
H          4.24054       -3.81453       -5.95405
H          5.33776       -3.45177       -4.61778
H          4.66374       -5.09725       -4.76925
H          0.30714       -6.27790       -5.57399
H          0.83832       -7.66514       -4.58013
H         -0.11081       -6.33748       -3.81692
