110
LL2.sdf
C         17.37581        0.44897        2.26706
O         17.25804        1.28875        3.14534
C         16.27588       -0.10012        1.47376
C         14.90512        0.25428        1.48271
C         14.11396       -0.38256        0.51520
C         14.59619       -1.23458       -0.34795
C         15.92019       -1.65520       -0.37375
C         16.77677       -1.07788        0.59380
C         18.24620       -1.22733        0.79359
C         19.07975       -2.02230        0.05616
C         20.58555       -1.87504        0.20207
N         21.83473       -1.75288        0.32312
C         18.50361       -3.17020       -0.75673
N         18.02566       -4.12248       -1.43108
C         18.61423       -0.26464        1.90236
C         19.80690       -0.18475        2.54975
C         20.24375        0.76307        3.58991
S         20.24429        2.44439        3.34874
C         21.03957        2.77859        4.78914
C         21.29026        1.62076        5.47514
C         20.86588        0.45124        4.82646
C         20.99373       -0.92141        5.44825
S         22.03500        1.94925        6.98647
C         21.95109        3.62432        6.70345
C         21.42273        3.91063        5.49624
N         21.31757        5.23802        5.27168
C         21.66812        5.81838        6.47822
C         22.14614        4.81728        7.35305
C         22.57262        5.07764        8.65921
N         23.01305        4.13527        9.52929
S         23.22803        5.01468       10.91535
N         22.76078        6.54574       10.49284
C         22.44442        6.39734        9.18193
C         21.86044        7.38435        8.37910
C         21.47706        7.13262        7.03143
N         20.67817        8.15877        6.59964
C         20.38248        8.77609        7.75756
C         21.23790        8.56209        8.77423
S         20.64919        8.98101       10.32909
C         19.07935        8.85266        9.67046
C         19.11367        8.77310        8.30812
S         17.82762        7.86268        7.74547
C         17.33985        7.43539        9.29958
C         17.94945        8.27297       10.28025
C         17.56725        8.26902       11.76577
C         16.97643        5.97020        9.49565
C         17.59611        5.14360       10.41049
C         17.28873        3.73547       10.80574
C         17.19296        2.56481       10.06982
C         16.82127        1.37410       10.93841
N         16.51293        0.38631       11.65898
C         17.15851        2.44091        8.55526
N         17.12992        2.33813        7.29882
C         17.53930        3.74013       12.30270
C         17.10279        2.92946       13.37169
C         17.60722        3.14675       14.66575
Cl        17.03359        2.12790       15.98009
C         18.55698        4.16359       14.89555
Cl        19.20684        4.45859       16.50218
C         18.97951        4.97282       13.83414
C         18.44469        4.74446       12.56693
C         18.67305        5.49557       11.35927
O         19.54039        6.33834       11.22773
C         20.91284        5.79302        3.97812
C         19.86332        8.35594        5.38968
C         13.33244       -1.43024       -1.10813
C         12.71188       -0.40600        0.00195
C         12.48413       -2.70508       -0.91423
C         12.77997       -3.32851        0.41547
C         12.27128       -2.48347        1.37710
C         11.63860       -1.32111        0.65802
C         11.12257       -2.07555       -0.58275
C         21.90155       -1.88877        4.69920
C         22.08352        6.59463        3.39602
C         19.33056        9.79457        5.26342
C         18.49548        9.04203       12.69987
H         14.50006        0.99518        2.15849
H         16.21634       -2.35270       -1.13437
H         20.57746       -0.87273        2.32020
H         21.41037       -0.81539        6.47228
H         19.97784       -1.36269        5.54767
H         16.57659        8.76939       11.80915
H         17.36884        7.28375       12.20340
H         16.22522        5.53743        8.84313
H         16.37143        2.15454       13.25272
H         19.68720        5.77570       13.99766
H         19.95831        6.31404        4.02890
H         20.71861        4.99974        3.24086
H         20.51419        8.29829        4.51229
H         19.01845        7.64270        5.35202
H         13.32455       -0.99435       -2.13138
H         12.33864        0.53214       -0.46105
H         12.57857       -3.41347       -1.76392
H         13.21965       -4.30032        0.59611
H         12.24592       -2.69541        2.43674
H         10.92111       -0.75665        1.28774
H         10.72005       -1.41199       -1.38384
H         10.34762       -2.84070       -0.33903
H         22.91985       -1.46026        4.60130
H         21.96292       -2.83628        5.27512
H         21.50784       -2.15256        3.70475
H         22.41485        7.40791        4.07363
H         22.95696        5.92226        3.25416
H         21.80217        7.02474        2.41268
H         20.17554       10.51695        5.29216
H         18.80042        9.91136        4.29508
H         18.61560       10.05726        6.06641
H         18.62747       10.08582       12.34501
H         18.04994        9.07083       13.71718
H         19.47862        8.53735       12.78447
