162
m-INPOIC.sdf
C          2.02172        2.91308        0.61580
C          1.18184        3.58390        1.51373
C          1.56324        4.36487        2.77345
C          0.35767        4.29614        3.67217
C         -0.70783        3.85319        2.92795
C         -0.30558        3.58784        1.58884
O         -1.13148        3.50064        0.70650
C          2.68224        5.10071        3.02634
C          2.86089        5.88931        4.22368
N          3.08503        6.54943        5.14750
C          3.72367        5.26860        2.04859
N          4.53890        5.37526        1.23457
C          0.14425        4.61116        5.03207
C         -1.14735        4.43180        5.58109
C         -2.20835        3.96992        4.78002
C         -1.98928        3.68975        3.43591
C          3.85160       -0.08924      -17.42126
C          4.65800        1.01506      -17.60203
C          5.43944        1.40710      -18.83984
C          5.65822        2.88722      -18.72981
C          5.40331        3.27059      -17.44023
C          4.89871        2.16475      -16.68231
C          6.01369        3.88253      -19.66575
C          6.11742        5.22610      -19.24125
C          5.90097        5.56771      -17.89556
C          5.53898        4.57960      -16.98501
O          4.57311        2.29807      -15.52013
C          5.92879        0.61567      -19.83292
C          6.73535        1.15651      -20.89745
C          5.73927       -0.81992      -19.84786
N          5.53520       -1.95821      -19.77413
N          7.36651        1.70909      -21.69926
C          1.61127        1.95945       -0.53016
S          2.37454        0.59322       -1.26712
C          1.13746        0.27276       -2.43085
C          0.18897        1.20521       -2.27657
C          0.47830        2.12317       -1.24241
C          0.68624       -0.51848       -3.49384
C         -0.51360        0.00887       -3.97173
N         -0.84937        1.08433       -3.17994
S          1.18133       -1.86425       -4.37785
C         -0.17139       -1.76776       -5.42694
C         -1.03653       -0.66968       -5.16265
C         -0.39553       -2.36453       -6.75238
C         -1.30617       -1.51968       -7.34705
C         -2.20239       -0.73194       -6.27107
C          0.34427       -3.36379       -7.48642
C          0.29380       -3.40928       -8.94838
C         -0.21574       -2.25083       -9.43994
C         -1.04811       -1.37717       -8.73295
C          0.93306       -4.22850      -10.19618
C          1.01700       -3.05391      -11.29756
C          0.35475       -1.99710      -10.72608
C          1.46193       -2.56672      -12.63296
C          1.33160       -1.20159      -12.77946
S          0.54720       -0.49997      -11.50651
N          2.00962       -3.02510      -13.82378
C          2.24424       -1.93178      -14.59843
C          1.90592       -0.79875      -13.97409
C          2.77008       -1.76865      -15.89425
C          3.02106       -0.44066      -16.20586
S          2.33007        0.52168      -14.95572
C         -3.26326       -1.78722       -5.66240
C         -3.01518        0.54619       -6.93450
C          2.37196       -4.71876       -9.75830
C         -0.05750       -5.40852      -10.70911
C         -4.45633        0.71433       -7.03590
C         -5.07713        1.69846       -7.74298
C         -4.37250        2.71489       -8.23292
C         -3.00308        2.78202       -8.08012
C         -2.35576        1.65916       -7.50701
C         -3.00307       -2.56588       -4.49614
C         -3.85922       -3.50693       -3.91836
C         -5.11071       -3.66519       -4.50380
C         -5.43625       -2.94698       -5.64545
C         -4.52667       -2.06105       -6.22788
C          2.55242       -5.94933       -9.12517
C          3.81574       -6.46872       -8.71714
C          4.93711       -5.70967       -8.96631
C          4.81593       -4.48079       -9.57265
C          3.56475       -3.98083       -9.92111
C         -0.50240       -6.46593       -9.86225
C         -1.35313       -7.47967      -10.28179
C         -1.85450       -7.49297      -11.56350
C         -1.48153       -6.50833      -12.49050
C         -0.58299       -5.48340      -12.04619
F         -3.44698        3.78871        5.30040
F          6.00360        6.85453      -17.47810
C         -2.04561        1.94369       -3.25065
C         -2.46433        2.41196       -1.92448
C          2.20984       -4.39209      -14.24833
C          3.22528       -5.07490      -13.38806
O         -2.26832        3.85058       -8.52363
C         -2.59260        4.77283       -9.52555
O         -3.47917       -4.24769       -2.82234
C         -2.23946       -4.18426       -2.16298
O          4.05219       -7.67413       -8.10413
C          3.36495       -8.87582       -8.17463
O         -1.99499       -6.58275      -13.77482
C         -2.22738       -5.53267      -14.68329
F         -1.37493        4.70146        6.88929
F          6.41262        6.19991      -20.13610
C         -3.20337        4.11566      -10.70201
C         -1.16770       -5.15105       -2.73399
C          2.80338       -9.03204       -9.50282
C         -1.40458       -5.64114      -16.00969
H          3.08345        2.98125        0.80530
H          0.93374        4.96349        5.67668
H         -2.78787        3.32850        2.79821
H          3.74006       -0.80046      -18.24800
H          6.16530        3.66957      -20.70731
H          5.33051        4.82761      -15.95114
H          0.02020        2.96983       -0.95580
H          0.95706       -3.98399       -6.88549
H         -1.41862       -0.61805       -9.34334
H          3.06215       -2.50636      -16.60264
H         -5.25711        0.17285       -6.63119
H         -6.14953        1.67963       -7.87002
H         -4.98610        3.41504       -8.69643
H         -1.32787        1.69612       -7.51860
H         -2.11567       -2.48205       -3.99686
H         -5.84773       -4.34399       -4.11535
H         -6.40562       -3.10573       -6.09039
H         -4.87201       -1.61577       -7.12844
H          1.69437       -6.45771       -8.95218
H          5.91206       -6.07152       -8.67888
H          5.69429       -3.89124       -9.77282
H          3.60367       -3.00216      -10.30521
H         -0.23488       -6.57740       -8.84153
H         -1.64384       -8.27384       -9.60485
H         -2.54416       -8.28644      -11.79891
H         -0.29151       -4.75217      -12.75335
H         -2.85039        1.42050       -3.71606
H         -1.89605        2.86664       -3.77016
H         -1.70278        2.84272       -1.51859
H         -3.34342        2.99324       -1.66442
H         -2.32690        1.61514       -1.30919
H          1.24008       -4.72417      -14.14645
H          2.19588       -4.65312      -15.31167
H          2.89409       -4.74166      -12.41195
H          3.33593       -6.15499      -13.18489
H          4.16810       -4.78091      -13.87479
H         -3.33028        5.53308       -9.22763
H         -1.67275        5.22612       -9.94918
H         -1.85273       -3.14595       -2.13958
H         -2.38395       -4.42811       -1.09533
H          4.05458       -9.77014       -8.13603
H          2.47414       -8.92465       -7.51141
H         -3.32159       -5.49918      -14.93555
H         -2.01516       -4.55565      -14.21140
H         -4.14102        3.73786      -10.38502
H         -3.56409        4.84340      -11.41477
H         -2.45650        3.44927      -11.16222
H         -0.91128       -4.95789       -3.79814
H         -0.21139       -5.06178       -2.17010
H         -1.47122       -6.21214       -2.62396
H          3.65104       -9.07983      -10.23587
H          2.26241       -9.96077       -9.43506
H          2.02231       -8.27791       -9.58271
H         -1.74569       -6.43457      -16.69004
H         -1.55880       -4.81126      -16.73036
H         -0.31032       -5.72960      -15.81104
