186
NIBT.sdf
C          2.63286        0.78862       -0.55135
C          2.67746       -0.56189       -0.22534
C          1.47847       -1.22270        0.06075
C          0.31036       -0.44620       -0.00103
C          0.28334        0.91696       -0.32926
C          1.48414        1.55293       -0.62318
C          3.93430        1.21266       -0.79666
C          4.81254        0.21089       -0.65642
C          4.12430       -1.09127       -0.27215
S          4.60762        2.66026       -1.18095
C          6.17207        2.00756       -1.16978
C          6.12111        0.62326       -0.88053
C         -1.02503       -0.83951        0.19252
C         -1.86093        0.19713       -0.03441
C         -1.13928        1.50795       -0.34717
S         -1.80539       -2.25600        0.57906
C         -3.33117       -1.52126        0.41663
C         -3.18913       -0.17159        0.06399
C          7.38510        2.82175       -1.38108
C          4.37991       -2.09681       -1.40561
C          4.55712       -1.62575        1.10753
C         -1.35164        2.54170        0.81090
C         -1.46276        2.06792       -1.75706
C         -4.62415       -2.19845        0.59450
C          7.33450        4.21911       -1.60699
C          8.53189        4.96505       -1.76044
C          9.77507        4.32975       -1.70857
C          9.81151        2.94894       -1.46039
C          8.64514        2.21043       -1.30687
C         -4.76500       -3.42184        1.26753
C         -6.05023       -4.02554        1.39997
C         -7.20205       -3.41891        0.84922
C         -7.02055       -2.18141        0.21214
C         -5.77519       -1.59394        0.08193
N          6.19175        4.95333       -1.67560
S          6.74217        6.48757       -1.92487
N          8.37976        6.30225       -1.95603
N         -3.73828       -4.09251        1.85213
S         -4.48743       -5.40848        2.50526
N         -6.07093       -5.19773        2.08933
C         11.00333        5.13357       -1.79952
C         12.21497        4.74523       -2.23945
C         -8.52588       -4.09445        1.02299
C         -9.75778       -3.86155        0.49243
C         13.34332        5.54289       -2.11048
C         14.39079        4.85266       -2.62697
C         14.00880        3.64871       -3.10744
C         12.64742        3.55404       -2.88208
C        -10.88441       -4.61041        0.87633
C        -11.95540       -4.11403        0.20435
C        -11.60358       -3.10056       -0.61068
C        -10.24636       -2.93303       -0.47445
C         13.54884        6.80799       -1.54515
C         14.86657        7.30526       -1.50475
C         15.94275        6.54822       -2.05466
C         15.68012        5.31418       -2.64381
C         16.67441        4.51794       -3.21860
C         16.30159        3.23823       -3.74702
C         14.95267        2.79266       -3.68472
C         17.26918        6.98133       -2.00774
N         18.28570        6.26323       -2.63205
C         17.98806        5.02837       -3.23304
C         19.69991        6.74898       -2.60340
C         20.01465        8.16014       -3.23137
C         19.64475        9.37829       -2.35143
C         21.53109        8.25214       -3.47163
C        -12.56063       -2.44383       -1.38882
C        -13.90347       -2.87568       -1.28566
C        -14.25095       -3.95431       -0.41487
C        -13.24212       -4.57513        0.33443
C        -13.48534       -5.63289        1.21518
C        -12.38713       -6.19338        1.93528
C        -11.07588       -5.67993        1.77001
C        -14.81472       -6.07703        1.34904
N        -15.83145       -5.48261        0.60973
C        -15.55988       -4.42895       -0.26153
C        -17.22814       -5.94891        0.77747
C        -17.44027       -7.40831        0.31133
C        -18.91044       -7.79293        0.51417
C        -17.04301       -7.59226       -1.15966
C          5.47684       -0.92774        1.92127
C          5.89275       -1.43686        3.14874
C          5.40727       -2.66849        3.61692
C          4.47975       -3.36573        2.82428
C          4.05821       -2.85266        1.58893
C          5.55091       -2.88285       -1.40713
C          5.82946       -3.75751       -2.46212
C          4.95031       -3.86658       -3.54800
C          3.78107       -3.09352       -3.55898
C          3.49919       -2.21801       -2.50466
C         -0.39072        3.54074        1.10977
C         -0.53770        4.40679        2.19946
C         -1.65877        4.32478        3.03026
C         -2.63699        3.37117        2.74230
C         -2.48638        2.49874        1.66250
C         -2.34902        1.40345       -2.64012
C         -2.59428        1.88302       -3.92820
C         -1.96768        3.04441       -4.39073
C         -1.09672        3.72803       -3.53009
C         -0.84987        3.24929       -2.23509
O         17.51279        7.99022       -1.38075
O         18.86857        4.35712       -3.74900
O         11.96401        2.60915       -3.23175
O         -9.63153       -2.11860       -1.12685
O        -15.05540       -6.98570        2.12432
O        -16.45773       -3.90330       -0.90154
C          5.27668       -4.77677       -4.70584
C          5.85012       -3.28065        4.93452
C          4.58443       -6.12809       -4.57308
C          6.88651       -2.46902        5.71971
C         -1.79707        5.22547        4.23483
C         -3.01510        6.13999        4.13811
C         -2.21189        3.52198       -5.80530
C         -2.85043        4.90687       -5.85686
H          1.44321       -2.27538        0.30171
H          1.56034        2.58459       -0.91665
H          6.96331       -0.04731       -0.79688
H         -3.99448        0.52647       -0.10616
H         10.73943        2.42176       -1.32395
H          8.75296        1.15589       -1.10392
H         -7.79868       -1.59560       -0.18319
H         -5.73830       -0.65218       -0.44446
H         10.90026        6.14873       -1.42967
H         -8.48163       -4.92025        1.72086
H         12.74036        7.38859       -1.12387
H         15.04049        8.27372       -1.05344
H         17.04275        2.58281       -4.18666
H         14.66336        1.82070       -4.06534
H         20.08035        6.72405       -1.56131
H         20.32780        6.02832       -3.16821
H         19.53504        8.26593       -4.22895
H         19.98951        9.22121       -1.30361
H         20.12299       10.30699       -2.72549
H         18.57439        9.63537       -2.39036
H         21.85568        7.47334       -4.19258
H         21.79571        9.23750       -3.91508
H         22.09022        8.12849       -2.51957
H        -12.28548       -1.62518       -2.04168
H        -14.65881       -2.37219       -1.87399
H        -12.53897       -7.01505        2.62312
H        -10.25612       -6.11252        2.32742
H        -17.51144       -5.84732        1.84790
H        -17.93698       -5.31400        0.20479
H        -16.82543       -8.10059        0.92182
H        -19.57329       -7.13990       -0.09450
H        -19.07935       -8.84936        0.21822
H        -19.18899       -7.68184        1.58416
H        -15.96480       -7.36599       -1.30145
H        -17.21076       -8.64585       -1.47038
H        -17.64033       -6.92507       -1.81693
H          5.89457        0.02155        1.62882
H          6.60312       -0.85272        3.71567
H          4.08907       -4.31876        3.16106
H          3.35716       -3.42856        0.99975
H          6.25843       -2.81931       -0.59077
H          6.73590       -4.34931       -2.43356
H          3.09761       -3.14954       -4.39786
H          2.60082       -1.61987       -2.57278
H          0.50556        3.66503        0.54103
H          0.23854        5.13501        2.40160
H         -3.51575        3.28350        3.36922
H         -3.28075        1.79500        1.53686
H         -2.85208        0.49090       -2.37113
H         -3.26868        1.33122       -4.57166
H         -0.59477        4.62727       -3.86572
H         -0.16689        3.81254       -1.62285
H          4.98927       -4.28531       -5.66158
H          6.37289       -4.95527       -4.75139
H          4.95807       -3.42269        5.58138
H          6.29415       -4.27766        4.72375
H          3.48190       -6.00794       -4.54248
H          4.85346       -6.76656       -5.44186
H          4.92682       -6.63708       -3.64604
H          6.47621       -1.47430        5.99626
H          7.15489       -3.00562        6.65375
H          7.81309       -2.33758        5.11977
H         -1.88175        4.59339        5.14589
H         -0.89547        5.86551        4.34986
H         -3.95246        5.55059        4.06224
H         -3.07378        6.77091        5.05057
H         -2.92433        6.80260        3.25181
H         -1.24591        3.54078       -6.35444
H         -2.88861        2.81871       -6.33935
H         -2.18835        5.66640       -5.39238
H         -3.01891        5.19263       -6.91766
H         -3.82954        4.89845       -5.33307
