128
NoCA-1.sdf
C          5.70467        1.35305       -4.46483
O          5.30176        1.01260       -5.56851
C          7.07843        1.45074       -4.07123
C          8.19690        1.09025       -4.80082
C          9.44024        1.13744       -4.16091
C          9.53383        1.54558       -2.81785
C          8.39558        1.95335       -2.12316
C          7.16034        1.91460       -2.77075
C          5.81747        2.25965       -2.27081
C          5.49667        2.95492       -1.13398
C          4.17619        3.29516       -0.78030
N          3.06379        3.53219       -0.56442
C          6.54529        3.49596       -0.30458
N          7.30521        3.97193        0.42227
C          4.89948        1.70111       -3.28836
F         10.72611        1.53538       -2.17680
C          3.60315        1.49027       -3.14910
F         10.54932        0.75358       -4.83010
C        -10.70690      -11.56226      -10.28942
O         -9.80930      -10.75190      -10.19065
C        -11.14995      -11.97286      -11.56018
C        -10.67943      -11.47505      -12.76826
C        -11.26924      -11.93829      -13.93517
C        -12.31018      -12.88241      -13.86392
C        -12.75608      -13.37489      -12.61891
C        -12.15678      -12.90635      -11.44477
C        -12.42127      -13.18935       -9.98953
C        -13.20284      -14.18426       -9.45283
C        -13.28625      -14.41218       -8.03587
N        -13.39218      -14.63912       -6.90630
C        -13.81787      -15.18125      -10.29743
N        -14.27410      -15.91816      -11.06550
C        -11.59293      -12.17016       -9.25372
F        -12.89474      -13.31370      -15.00427
C        -11.72502      -11.80047       -7.95376
F        -10.84167      -11.46095      -15.12890
C        -10.96306      -10.73609       -7.30665
S         -9.37441      -10.29376       -7.69513
C         -9.39068       -9.07846       -6.63927
C        -10.53563       -8.98883       -5.91801
C        -11.46066       -9.93788       -6.26609
C         -8.49591       -8.08783       -6.28928
C         -9.07773       -7.38818       -5.33739
C        -10.48509       -7.86494       -4.92517
S         -6.97128       -7.52101       -6.67179
C         -7.07720       -6.18929       -5.62619
C         -8.26552       -6.37675       -4.94526
C         -6.03309       -5.11884       -5.45620
C         -6.23963       -3.71588       -5.25490
C         -4.97297       -2.84716       -5.15116
C         -3.55480       -3.44319       -5.24373
C         -3.58279       -4.83281       -5.39860
C         -4.72451       -5.58006       -5.49321
N         -2.53551       -5.68539       -5.47582
N         -3.05999       -6.89837       -5.57897
N         -4.37426       -6.86724       -5.58444
C         -2.05853       -2.82937       -5.21773
S         -1.61558       -1.18101       -5.14174
C         -0.00110       -1.36564       -5.19665
C          0.36976       -2.64345       -5.31142
C         -0.74397       -3.50502       -5.25528
C          1.08712       -0.56088       -4.93147
C          2.20372       -1.32017       -4.95339
C          1.90469       -2.77886       -5.32749
S          1.21201        0.94490       -4.26406
C          2.84881        0.64758       -4.03083
C          3.28669       -0.62146       -4.47999
O         -5.19477       -1.49909       -4.93340
C          2.51572       -3.12419       -6.76163
C          2.31809       -4.56636       -7.27854
C          2.37573       -3.79031       -4.22651
C          1.74672       -3.74027       -2.80384
C        -10.51902       -8.42160       -3.45008
C        -10.16157       -7.44722       -2.29596
C        -11.64967       -6.83132       -5.16038
C        -11.90511       -6.36744       -6.62964
C         -2.32884       -8.14435       -5.74363
C         -1.34076       -8.36454       -4.60939
O         -7.56977       -3.17854       -5.17077
C         -8.91191       -3.58317       -4.73854
C        -10.02171       -4.22490       -5.65678
C         -4.39007       -0.61296       -4.21331
C         -5.14478        0.02233       -3.03021
H          8.09386        0.75080       -5.82182
H          8.50907        2.24202       -1.09552
H          3.04673        1.79028       -2.28390
H         -9.88781      -10.73061      -12.79454
H        -13.56568      -14.07503      -12.59775
H        -12.49526      -12.21507       -7.32510
H        -12.43125       -9.98816       -5.80837
H         -8.69056       -5.85306       -4.21490
H         -0.46747       -4.54465       -5.21056
H          4.26597       -1.05972       -4.32235
H          2.08146       -2.44317       -7.53134
H          3.61996       -2.96473       -6.78590
H          1.25421       -4.86682       -7.29037
H          2.69865       -4.68163       -8.31711
H          2.91692       -5.28919       -6.69146
H          2.16431       -4.81289       -4.60305
H          3.47191       -3.68160       -4.10583
H          0.64540       -3.90643       -2.77216
H          2.19744       -4.53672       -2.17690
H          1.97983       -2.82217       -2.24705
H        -11.51502       -8.88398       -3.25001
H         -9.78885       -9.24878       -3.35950
H        -10.78177       -6.52897       -2.25149
H        -10.27696       -7.96339       -1.31208
H         -9.09769       -7.14272       -2.35612
H        -12.62078       -7.21728       -4.79805
H        -11.44262       -5.96674       -4.50170
H        -12.41354       -7.13988       -7.21562
H        -12.54184       -5.45351       -6.61612
H        -11.00287       -6.12019       -7.22991
H         -3.07127       -8.97596       -5.76152
H         -1.79136       -8.13233       -6.71541
H         -1.86822       -8.35758       -3.63455
H         -0.83687       -9.34616       -4.74295
H         -0.57362       -7.56210       -4.61607
H         -8.91631       -4.02125       -3.71044
H         -9.52760       -2.70613       -4.54772
H        -10.29664       -3.92652       -6.63491
H         -9.94847       -5.24468       -5.82414
H        -11.05333       -4.04811       -5.29328
H         -3.57843       -1.16592       -3.80840
H         -3.93840        0.18626       -4.85362
H         -5.88196        0.65406       -3.49861
H         -4.54996        0.56861       -2.22973
H         -5.83975       -0.64342       -2.51699
