138
NTIC-F.sdf
C          0.38210        0.42380       -0.25276
C         -0.08597        1.47047        0.47751
C         -1.42638        1.69938        1.08547
C         -1.41277        2.92128        1.83250
C         -0.15982        3.49183        1.77471
C          0.76590        2.60476        0.98049
O         -2.44535        1.05469        0.95823
C          2.14515        2.71498        0.89481
C          3.04282        1.82587        0.15836
C          2.84199        3.74065        1.63553
N          3.74785        1.11035       -0.43272
N          3.48353        4.52740        2.19407
C         -2.47510        3.49791        2.53527
C         -2.25170        4.70803        3.20016
C         -0.98801        5.31579        3.14823
C          0.06176        4.71377        2.43703
C         -5.56440      -10.26271        0.47372
C         -5.12048      -11.68050        0.08785
C         -4.38924      -12.06680       -1.05334
C         -3.91524      -11.22012       -2.19388
C         -3.23639      -11.99593       -3.17802
C         -3.23220      -13.31629       -2.82336
C         -3.93669      -13.46461       -1.48909
O         -4.09253      -10.04243       -2.39679
C         -4.11858      -14.64486       -0.85016
C         -4.69593      -14.75779        0.45958
C         -3.76606      -15.90545       -1.45894
N         -5.15319      -14.91795        1.51001
N         -3.49454      -16.93348       -1.91805
C         -2.66013      -11.51363       -4.35642
C         -2.05104      -12.42035       -5.22235
C         -2.01976      -13.78029       -4.89542
C         -2.59742      -14.23689       -3.69746
C         -6.61456       -9.58556        1.22661
C         -6.39941       -8.12624        1.36876
C         -5.24036       -7.82965        0.78233
S         -4.61351       -9.07955        0.01446
C         -6.87013       -6.77945        2.09832
C         -5.73265       -5.79884        1.54631
C         -4.77270       -6.51933        0.88869
C         -5.55167       -4.38432        1.55668
C         -4.38772       -3.80082        0.93599
C         -3.37034       -4.62584        0.36073
C         -3.57852       -6.01828        0.36568
C         -2.13544       -4.19969       -0.22929
C         -1.19945       -5.11285       -0.74131
C         -1.42782       -6.44904       -0.70242
C         -2.57759       -6.88354       -0.14229
C         -1.49558       -2.94254       -0.41432
C         -0.26476       -3.10961       -0.98763
C          0.08243       -4.54582       -1.31485
S         -1.78909       -1.36774        0.00741
C         -0.25513       -0.86649       -0.52596
C          0.43665       -1.94260       -1.08291
C         -6.65024       -7.29139        3.52638
C         -8.25741       -6.01201        1.95989
C         -8.83517       -5.24164        3.03055
C         -9.99341       -4.46442        2.86262
C        -10.61831       -4.37487        1.61821
C        -10.06637       -5.09320        0.54813
C         -8.91857       -5.90096        0.71728
C         -5.42640       -7.14409        4.21273
C         -5.21606       -7.81146        5.42757
C         -6.22503       -8.61681        5.98530
C         -7.45590       -8.72142        5.33505
C         -7.65490       -8.08915        4.11530
C         -5.98517       -9.40737        7.24224
C         -6.95940       -8.97212        8.32702
C        -11.84957       -3.50130        1.43639
C        -11.62403       -2.40688        0.39207
C          0.09552       -4.79922       -2.86393
C          1.31132       -5.13231       -0.48099
C          1.61182       -4.68900        0.84321
C          2.70761       -5.19465        1.56716
C          3.53900       -6.17251        1.01569
C          3.25819       -6.64636       -0.25239
C          2.19923       -6.12917       -0.98155
C          1.25654       -4.64049       -3.65234
C          1.27446       -4.87615       -5.01395
C          0.10599       -5.19289       -5.69146
C         -1.08182       -5.32318       -4.96755
C         -1.08830       -5.14518       -3.58051
C          0.13439       -5.33186       -7.18498
C         -0.29398       -6.73667       -7.58819
C          4.74966       -6.68798        1.74261
C          4.60658       -8.18655        1.96961
F         -1.43045      -14.65994       -5.74377
F         -0.77740        6.49056        3.79157
H          1.36391        0.44577       -0.64537
H         -3.44963        3.02433        2.57235
H         -3.05380        5.17793        3.75393
H          1.00767        5.22044        2.42452
H         -5.40095      -12.44154        0.78221
H         -2.68688      -10.45841       -4.59956
H         -1.60513      -12.07317       -6.14473
H         -2.51880      -15.28968       -3.51645
H         -7.41910      -10.13117        1.68835
H         -6.30022       -3.73265        1.99552
H         -4.28204       -2.72178        0.92166
H         -0.70467       -7.16056       -1.08089
H         -2.56994       -7.92536       -0.11255
H          1.41798       -1.93641       -1.44208
H         -8.41852       -5.17918        4.01860
H        -10.38781       -3.90740        3.70848
H        -10.51588       -5.00692       -0.43280
H         -8.52909       -6.40291       -0.15308
H         -4.61132       -6.57204        3.79035
H         -4.25231       -7.72998        5.91403
H         -8.25189       -9.33130        5.74451
H         -8.59649       -8.25243        3.60937
H         -6.07759      -10.50305        7.02733
H         -4.95765       -9.23021        7.62017
H         -8.00962       -9.16539        8.02239
H         -6.74896       -9.51789        9.26815
H         -6.83547       -7.88430        8.51539
H        -12.72259       -4.12005        1.13112
H        -12.11478       -3.00378        2.39603
H        -11.45606       -2.84694       -0.61353
H        -12.51661       -1.74664        0.33457
H        -10.74623       -1.78822        0.67235
H          1.03882       -3.92695        1.34526
H          2.91621       -4.80940        2.55696
H          3.88336       -7.40838       -0.70663
H          2.17173       -6.56693       -1.93706
H          2.19311       -4.31449       -3.29475
H          2.21640       -4.76726       -5.53423
H         -2.01003       -5.54522       -5.47697
H         -2.04972       -5.24441       -3.09971
H         -0.53711       -4.57109       -7.64864
H          1.16800       -5.14921       -7.55975
H         -1.34375       -6.93504       -7.28612
H         -0.21830       -6.86068       -8.68455
H          0.36078       -7.48781       -7.09913
H          5.67391       -6.44560        1.16177
H          4.84342       -6.20652        2.73806
H          4.52967       -8.72842        1.00225
H          5.47254       -8.57259        2.53650
H          3.68123       -8.37774        2.55877
