154
Ph-DTDP-TTIC.sdf
C          0.14983        1.20652       -0.29311
C          0.55904        2.49377       -0.76771
C         -4.97369        0.88846        4.45262
C         -2.80078        0.06551        5.82973
C         -3.44667       -2.25547       -1.20141
C         -2.08800       -4.25439       -0.17630
C         -3.14793       -1.99321       -2.56509
C         -4.10721       -1.52092       -3.45325
C         -5.41651       -1.30462       -3.03141
C         -5.74968       -1.55589       -1.69255
C         -4.78017       -2.00842       -0.78767
C         -2.34914       -5.12231       -1.26254
C         -2.18189       -6.50403       -1.14254
C         -1.71696       -7.06512        0.05084
C         -1.42753       -6.21791        1.13115
C         -1.62002       -4.83651        1.02204
C         -6.05729        1.29074        5.27698
C         -6.96657        2.28760        4.88225
C         -6.81493        2.94362        3.65561
C         -5.77848        2.56054        2.81981
C         -4.91474        1.53776        3.18269
C         -2.74194        1.16932        6.71744
C         -1.60580        1.51444        7.42099
C         -0.44022        0.78734        7.27618
C         -0.44039       -0.32789        6.42287
C         -1.60091       -0.68474        5.71403
C         -7.76833        4.01539        3.19759
C          0.78569        1.24759        8.01609
C         -1.53107       -8.55908        0.16425
C         -6.44399       -0.80705       -4.01385
S         -0.50048        1.09546        1.22458
C         -1.08900       -0.41866        0.92781
C         -0.70839       -0.91358       -0.28272
C          0.00579        0.02209       -1.02003
C         -2.06961       -1.05841        1.71420
C         -2.67485       -2.20376        1.19182
C         -2.31343       -2.72757       -0.23347
O         -1.13969       -2.12493       -0.71748
C         -2.50003       -0.44627        2.89388
C         -3.52023       -0.99601        3.64421
C         -4.04908       -2.21001        3.19111
C         -3.65764       -2.79950        1.97770
C         -4.03840       -0.29298        4.92815
O         -4.84902       -1.15868        5.68610
C         -5.24089       -2.40185        5.30279
C         -4.94155       -2.88967        4.06104
C         -5.88100       -3.34520        6.10583
C         -6.01102       -4.56037        5.43021
S         -5.44846       -4.45217        3.86335
C         -7.03029        5.32966        2.97970
C          1.27956        0.16822        8.97416
C         -7.59888       -1.79672       -4.15113
C         -0.08089       -8.92333        0.47864
C         -6.41385       -5.83391        5.97279
S          0.52616        2.90695       -2.40929
C          0.82377        4.50087       -2.04892
C          0.98251        4.70420       -0.72051
C          0.83094        3.58968        0.06127
S         -6.51029       -7.22435        4.99109
C         -6.81468       -8.19245        6.29181
C         -6.88824       -7.47697        7.44000
C         -6.67122       -6.12042        7.31206
C          1.21139        8.13671       -2.47235
C          0.63359        8.77462       -3.52396
C         -0.38491        8.25181       -4.46660
C         -0.76039        9.30978       -5.38235
C         -0.03674       10.45694       -5.10160
C          0.88848       10.20335       -3.94422
C         -1.71474        9.26028       -6.40454
C         -1.93780       10.41043       -7.17086
C         -1.21566       11.58120       -6.90544
C         -0.26774       11.61349       -5.87364
O         -0.93432        7.16485       -4.43510
C          1.80416       11.08270       -3.42198
C          2.66284       10.77483       -2.30086
C          2.00183       12.39018       -3.98588
N          3.33722       10.49567       -1.39996
N          2.14548       13.43842       -4.45450
C         -7.54344      -11.19021        8.26437
C         -7.22944      -12.43131        7.82054
C         -6.25290      -12.80237        6.76651
C         -6.20769      -14.24285        6.66037
C         -7.08759      -14.81547        7.56939
C         -7.80445      -13.72889        8.35116
C         -5.41440      -15.00538        5.79471
C         -5.51797      -16.39899        5.83939
C         -6.39552      -17.00525        6.74525
C         -7.17724      -16.22543        7.61118
O         -5.49045      -12.06312        6.16801
C         -8.79139      -13.89582        9.32014
C         -9.44961      -12.75103       10.01483
C         -9.18514      -15.25680        9.71740
N         -9.93199      -11.81644       10.52676
N         -9.46245      -16.35287        9.99823
C          0.89422        5.61591       -2.83888
C          1.10733        6.74543       -2.04358
S          1.26949        6.30767       -0.40355
C         -6.98986       -9.54527        6.39749
C         -7.20680       -9.88117        7.73130
S         -7.20429       -8.48770        8.71857
H         -2.16587       -2.13709       -2.98493
H         -3.81942       -1.32944       -4.47991
H         -6.76191       -1.39390       -1.34491
H         -5.09690       -2.16310        0.22785
H         -2.70230       -4.77244       -2.21381
H         -2.41655       -7.13702       -1.99001
H         -1.05667       -6.62849        2.06201
H         -1.39939       -4.21315        1.88044
H         -6.24184        0.81799        6.23011
H         -7.79290        2.54270        5.53377
H         -5.64653        3.03988        1.85603
H         -4.25160        1.31691        2.39475
H         -3.50386        1.85650        6.91375
H         -1.64319        2.38453        8.06776
H          0.46182       -0.90865        6.29048
H         -1.54227       -1.53351        5.04460
H         -8.28263        3.68845        2.26114
H         -8.55153        4.19174        3.96051
H          1.58166        1.50505        7.28486
H          0.55191        2.17097        8.60340
H         -2.20050       -8.95285        0.95915
H         -1.80616       -9.05946       -0.79074
H         -6.82237        0.18178       -3.67774
H         -5.98857       -0.67443       -5.02059
H          0.30981       -0.11326       -2.04917
H         -2.05075        0.47248        3.23157
H         -4.11682       -3.71843        1.63851
H         -6.14305       -3.18448        7.14413
H         -6.25016        5.22268        2.19642
H         -7.75071        6.11411        2.66979
H         -6.55133        5.64465        3.93094
H          1.56638       -0.75378        8.42742
H          2.17370        0.52658        9.52293
H          0.48288       -0.08832        9.70423
H         -8.10088       -1.96955       -3.17529
H         -8.34734       -1.39922       -4.86718
H         -7.21829       -2.76584       -4.53843
H          0.24960       -8.47043        1.43726
H          0.01557      -10.02648        0.56127
H          0.58509       -8.57159       -0.33775
H          0.87431        3.58053        1.14805
H         -6.67170       -5.40766        8.12721
H          1.83711        8.65812       -1.80477
H         -2.27591        8.35657       -6.60382
H         -2.67053       10.40143       -7.96750
H         -1.39316       12.47027       -7.49753
H          0.23910       12.54222       -5.71574
H         -8.15511      -11.05006        9.10684
H         -4.73798      -14.53315        5.09434
H         -4.92332      -17.01179        5.17364
H         -6.47513      -18.08550        6.77492
H         -7.82088      -16.76502        8.26991
H          0.79060        5.56041       -3.90685
H         -6.99074      -10.19021        5.53832
