112
PTB4Cl.sdf
C          0.25012       -1.07917       -1.12291
O         -0.84570       -1.18519       -1.66444
C          0.35542       -1.81202        0.13706
C         -0.15898       -1.49399        1.40081
C          0.14948       -2.32942        2.47643
C          0.90597       -3.50273        2.26314
C          1.35170       -3.84370        0.96400
C          1.07398       -2.96529       -0.09001
C          1.46260       -2.97412       -1.52517
C          1.63010       -4.03621       -2.34276
C          1.99818       -3.91148       -3.73803
N          2.29169       -3.87641       -4.85842
C          1.33244       -5.35300       -1.83430
N          1.08147       -6.38087       -1.36579
C          1.43363       -1.53926       -1.87387
C          2.43965       -0.81140       -2.48511
C          2.58734        0.72577       -2.63411
C          3.81034        1.47817       -2.74476
C          3.58211        2.85401       -2.98533
C          2.26907        3.35415       -3.04019
S          1.33123        1.92051       -2.79479
C          1.63450        7.85655       -4.01357
C          1.26736        9.38895       -4.40254
C          2.06341       10.53451       -4.73898
C          1.42426       11.79431       -4.96304
C         -0.03092       11.66243       -4.90026
S         -0.31852       10.02489       -4.55525
C         -1.14011       12.66251       -5.26506
C         -1.86035       12.64860       -6.45831
C         -1.85467       11.64568       -7.57543
C         -2.37034       10.38838       -7.47622
C         -2.30083        9.34678       -8.45573
N         -2.30765        8.42989       -9.16011
C         -3.13918        9.96421       -6.33126
N         -3.76820        9.54979       -5.45306
C         -1.14270       12.38310       -8.67113
C         -0.39074       11.96240       -9.78498
C          0.54417       12.89907      -10.31916
C          0.61176       14.21961       -9.80877
C         -0.30538       14.65394       -8.86042
C         -1.15768       13.72459       -8.30590
C         -1.95730       13.94017       -7.11841
O         -2.11994       15.02730       -6.58743
Cl         1.92502       15.32246      -10.20638
Cl         1.75709       12.38981      -11.48688
C          0.55364        6.95832       -3.74316
C          0.65364        5.53437       -3.40338
C          1.92943        4.89267       -3.32237
C          2.99037        5.78440       -3.54539
C          2.92580        7.19206       -3.85943
O          4.12456        7.84574       -3.98676
C          5.38280        7.22972       -3.86026
C          6.46398        8.10832       -3.32170
O         -0.46944        4.78138       -3.16795
C         -1.67410        5.24166       -2.62540
C         -2.96534        4.57078       -3.07665
Cl        -0.39753       -1.85633        4.08410
Cl         1.30864       -4.53033        3.62551
C          2.31505       13.03407       -5.25347
C          5.26168        1.03707       -2.60038
C          3.60357       13.03766       -5.88862
C          4.32256       14.26009       -6.10662
C          3.79861       15.49687       -5.65418
C          2.57587       15.45585       -4.98168
C          1.86324       14.26001       -4.80955
C          4.44811       16.88509       -5.83573
C          5.30826       17.08108       -7.08123
C          6.32007        1.68888       -3.28551
C          7.65498        1.24120       -3.18079
C          7.96059        0.12563       -2.38579
C          6.93887       -0.42744       -1.60984
C          5.62672        0.01893       -1.72355
C          9.33869       -0.50710       -2.40224
C         10.02173       -0.50581       -1.04096
H         -0.74854       -0.60711        1.59002
H          1.94523       -4.72997        0.79688
H          3.28745       -1.41276       -2.82436
H          4.42221        3.47697       -3.09931
H          3.10951       10.56298       -4.84053
H         -1.08198       13.63928       -4.80433
H         -0.39330       10.93170      -10.11930
H         -0.25077       15.64839       -8.43925
H         -0.40708        7.40681       -3.82838
H          3.92159        5.33590       -3.48493
H          5.66485        6.79968       -4.80050
H          5.42550        6.40331       -3.15977
H          6.12357        8.43712       -2.32646
H          7.38896        7.48923       -3.21333
H          6.67910        8.96129       -3.98790
H         -1.68349        4.85028       -1.60767
H         -1.79467        6.34997       -2.65613
H         -2.95081        3.47479       -2.84839
H         -3.79557        5.02502       -2.47811
H         -3.20755        4.78540       -4.12368
H          4.03777       12.11214       -6.25017
H          5.27343       14.24095       -6.62766
H          2.16067       16.37397       -4.59596
H          0.93828       14.24774       -4.29219
H          3.63794       17.65088       -5.91727
H          5.04049       17.17245       -4.93919
H          4.72952       16.86425       -8.00292
H          5.63898       18.14516       -7.13506
H          6.21106       16.44452       -7.02617
H          6.10406        2.51600       -3.93942
H          8.44516        1.73675       -3.73602
H          7.11919       -1.23126       -0.91957
H          4.89953       -0.44221       -1.10175
H          9.24778       -1.55947       -2.76657
H          9.98996        0.01367       -3.13537
H          9.47216       -1.11627       -0.29233
H         11.04210       -0.93617       -1.14236
H         10.09017        0.53903       -0.68319
