120
PY-1.sdf
C        -27.66859       29.15801      -21.00262
C        -27.76239       30.34556      -20.33426
C        -15.78622       26.49277      -13.19750
S        -16.03329       28.18719      -13.22582
C        -17.44477       27.99584      -14.07592
C        -17.75142       26.70251      -14.32715
C        -16.82198       25.80104      -13.86080
C        -18.41772       28.73723      -14.63822
C        -19.30227       27.87001      -15.17208
N        -18.91809       26.58047      -15.00947
S        -18.83849       30.32046      -14.88483
C        -20.29244       29.86471      -15.67152
C        -20.38783       28.46274      -15.76628
C        -24.75401       31.56118      -17.97739
C        -19.56366       25.36497      -15.52272
C        -20.55663       24.77106      -14.52855
C        -25.74642       32.54183      -17.98818
C        -26.85757       32.19320      -18.79445
C        -26.74158       30.95652      -19.42463
S        -25.27970       30.32203      -18.91976
C         -9.17926       18.86599      -13.16476
C         -9.65962       20.04579      -13.67699
C        -10.38932       21.11797      -12.92574
S        -11.43271       22.23483      -13.62057
C        -11.83193       23.06380      -12.19905
C        -11.13550       22.46812      -11.13162
C        -10.30925       21.42267      -11.56422
C        -11.24161       22.80076       -9.65027
C        -12.63820       22.50109       -9.09408
C        -12.76335       24.20767      -12.17972
C        -12.75525       25.30534      -11.32314
C        -13.78836       26.23027      -11.55789
C        -14.61640       25.83105      -12.62211
S        -14.04493       24.37669      -13.24039
C        -13.96364       27.44384      -10.66169
C        -12.75188       28.37552      -10.67528
C        -25.68759       33.83272      -17.22679
C        -25.58536       33.64001      -15.71115
C        -23.45572       31.50098      -17.31103
C        -22.64731       32.54506      -16.90891
C        -21.46478       32.14380      -16.27147
C        -21.34409       30.74142      -16.20797
S        -22.70044       30.07029      -16.93191
C        -20.49546       33.18469      -15.77392
C        -20.36543       33.19465      -14.25207
C         -8.29433       17.94257      -13.96065
C         -7.59123       16.98943      -13.28087
C         -7.71772       16.85149      -11.80737
N         -8.68144       17.53314      -11.11150
C         -9.48847       18.41863      -11.76714
C        -28.80711       28.63012      -21.83337
N        -28.85694       27.28732      -22.16658
C        -27.94799       26.39444      -21.63775
C        -26.93159       26.83062      -20.61754
C        -26.47467       28.22116      -20.98765
O        -10.50209       18.81969      -11.21507
C         -8.87518       17.31898       -9.66915
C         -8.63805       18.61949       -8.88091
O         -6.99080       16.05045      -11.22755
C         -6.72314       16.05259      -13.97325
C         -8.14099       18.02698      -15.46975
C        -25.70139       28.30146      -22.30994
C        -27.52164       26.83968      -19.25848
O        -27.93102       25.22370      -21.98920
C        -29.87595       26.78424      -23.08310
C        -29.35954       26.82983      -24.51798
O        -29.68315       29.39464      -22.20991
N         -6.04881       15.29013      -14.52387
N        -28.01038       26.87529      -18.20339
H        -28.68017       30.91963      -20.44896
H        -16.89447       24.72877      -13.98009
H        -21.19792       27.91955      -16.22756
H        -20.09621       25.59804      -16.47080
H        -18.78733       24.60681      -15.75767
H        -21.36750       25.49624      -14.31010
H        -21.01566       23.85677      -14.96578
H        -20.03909       24.48374      -13.58893
H        -27.72122       32.83081      -18.91378
H         -9.46733       20.31195      -14.70655
H         -9.67071       20.90090      -10.87460
H        -10.53778       22.16418       -9.06514
H        -10.97526       23.85446       -9.45813
H        -12.86059       21.41380       -9.18137
H        -12.70005       22.76845       -8.01514
H        -13.40607       23.08773       -9.63429
H        -12.02020       25.45513      -10.55240
H        -14.86621       28.03326      -10.90126
H        -14.10699       27.07395       -9.62515
H        -12.60558       28.81249      -11.68434
H        -12.90632       29.20266       -9.94775
H        -11.83436       27.83029      -10.37184
H        -24.81927       34.41368      -17.58337
H        -26.60170       34.42071      -17.44027
H        -24.68336       33.06559      -15.43206
H        -25.50315       34.63998      -15.23763
H        -26.47429       33.11602      -15.29917
H        -22.89153       33.57605      -17.08166
H        -19.51295       33.04023      -16.26805
H        -20.86930       34.19681      -16.05411
H        -20.02813       32.24158      -13.84363
H        -19.62110       33.95999      -13.94906
H        -21.34329       33.40025      -13.77474
H        -26.07128       26.14491      -20.59017
H        -25.70221       28.43124      -20.25388
H         -9.90467       16.95074       -9.47440
H         -8.16902       16.56592       -9.26117
H         -9.35586       19.41188       -9.16719
H         -8.77761       18.43889       -7.79581
H         -7.60889       19.00068       -9.05443
H         -7.08033       18.21941      -15.73555
H         -8.45048       17.05871      -15.92041
H         -8.76137       18.79737      -15.95589
H        -25.34724       29.34427      -22.47382
H        -24.80764       27.64375      -22.25979
H        -26.33086       28.00103      -23.17050
H        -30.14765       25.73577      -22.82459
H        -30.81537       27.36593      -22.99526
H        -28.44146       26.21177      -24.62258
H        -30.13583       26.43239      -25.20359
H        -29.12398       27.87575      -24.80654
