190
Qx1.sdf
C          2.99277       -1.37765       -0.50315
C          3.09732       -0.79133        0.75084
C          2.23695        0.19496        1.22898
C          1.12156        0.52249        0.44725
C          0.92962       -0.16863       -0.76018
C          1.86506       -1.07575       -1.29949
C          4.16732       -2.33806       -0.76068
C          4.73257       -2.37957        0.64909
C          4.14273       -1.46319        1.43647
C          5.72015       -3.13646        1.30319
C          5.79322       -2.80354        2.67453
S          4.69969       -1.52743        2.99291
C         -0.02586        1.52679        0.73597
C         -0.95929        1.08288       -0.40243
C         -0.37580        0.17850       -1.21911
C         -2.27568        1.39769       -0.78030
C         -2.73553        0.60244       -1.85230
S         -1.42755       -0.34712       -2.39323
C          6.66517       -3.43321        3.71131
C         -4.15140        0.53760       -2.36137
C         -0.66889        1.29910        2.15183
C          0.47807        2.98112        0.44715
C          3.69941       -3.74337       -1.16606
C          5.15328       -1.62934       -1.72252
C          7.82901       -4.12533        3.34888
C          8.65390       -4.69669        4.32574
C          8.35257       -4.59609        5.69911
C          7.20626       -3.85576        6.07007
C          6.35255       -3.33511        5.08650
C         -5.11979        1.40380       -1.81836
C         -6.44763        1.36629       -2.23963
C         -6.87938        0.46207       -3.21803
C         -5.91641       -0.39963       -3.79577
C         -4.58119       -0.38886       -3.35397
C          9.29404       -5.28438        6.64619
C          9.09904       -5.83780        7.87582
C         -8.32911        0.53690       -3.59492
C         -9.20225       -0.41612       -4.00720
C         -9.04582       -1.88589       -4.10344
N        -10.08366       -2.52038       -4.71622
C        -11.10687       -1.59211       -5.06848
S        -10.85541        0.08654       -4.50268
C          7.86486       -6.03271        8.68205
N          8.09388       -6.37852        9.96984
C          9.47913       -6.58162       10.21943
S         10.52904       -6.47167        8.77081
C          7.04192       -6.41311       10.98618
O          6.73154       -5.91395        8.24747
S         10.00188       -7.05202       11.47544
C          4.44538       -4.54126       -2.05980
C          3.99132       -5.80720       -2.44409
C          2.78487       -6.31382       -1.94248
C          2.04343       -5.54158       -1.03863
C          2.49497       -4.27585       -0.65295
C          6.27414       -0.90914       -1.23107
C          7.11326       -0.19476       -2.08459
C          6.86854       -0.16840       -3.45982
C          5.77100       -0.87952       -3.97029
C          4.92028       -1.59572       -3.11350
C          0.09792        1.39327        3.34268
C         -0.45164        1.17072        4.60690
C         -1.80968        0.87602        4.75005
C         -2.59462        0.78054        3.60148
C         -2.03738        0.96773        2.33499
C          0.31705        3.55955       -0.84484
C          0.80524        4.82941       -1.15632
C          1.47331        5.59040       -0.19621
C          1.64743        5.05232        1.08442
C          1.16804        3.77200        1.39825
O         -8.09707       -2.48247       -3.62577
C        -10.20753       -3.95837       -5.00812
C         -2.42729        0.63452        6.10709
C          2.01860        6.95486       -0.55222
C          7.75245        0.65719       -4.36220
C          2.29214       -7.67256       -2.36972
C          2.71454       -8.74499       -1.37182
C          9.04151       -0.07295       -4.72144
C         -2.15274        1.76997        7.09459
C          1.35697        8.06936        0.25379
S        -12.32922       -1.96442       -5.73426
C          6.32873       -7.75577       11.03670
C         -9.04833       -4.84778       -4.55917
N          6.90059       -3.61027        7.36836
C          5.74308       -3.02202        7.78612
C          4.80854       -2.63034        6.78320
N          5.18807       -2.77795        5.49003
C          5.54183       -2.97814        9.26445
C          3.44465       -2.06205        6.98646
C          3.08794       -1.25574        8.08328
C          1.77245       -0.81658        8.24111
C          0.80271       -1.16081        7.30418
C          1.14057       -1.92159        6.18701
C          2.45299       -2.36310        6.02415
C          6.65476       -2.71565       10.08816
C          6.51864       -2.65432       11.47744
C          5.27467       -2.87512       12.06893
C          4.16788       -3.17072       11.27198
C          4.29876       -3.22929        9.88086
N         -6.24200       -1.23563       -4.80723
C         -5.40086       -2.14986       -5.36864
C         -4.05512       -2.20815       -4.86424
N         -3.72997       -1.29574       -3.89760
C         -6.07072       -3.02957       -6.37638
C         -2.91528       -3.11800       -5.28569
C         -2.84735       -3.85379       -6.49118
C         -1.74993       -4.68349       -6.77191
C         -0.68043       -4.77039       -5.88100
C         -0.70338       -4.03016       -4.70693
C         -1.80340       -3.22694       -4.41401
C         -7.06883       -2.46146       -7.20137
C         -7.75674       -3.23410       -8.13891
C         -7.47790       -4.59391       -8.25991
C         -6.52013       -5.18397       -7.43282
C         -5.82664       -4.41204       -6.49088
H          2.44950        0.60869        2.19257
H          1.69740       -1.57414       -2.24551
H          6.29332       -3.91483        0.81989
H         -2.87579        2.10811       -0.23326
H          8.11072       -4.22502        2.30889
H          9.53526       -5.23611        3.99983
H         -4.87372        2.12075       -1.05133
H         -7.15330        2.04784       -1.77818
H         10.31012       -5.36887        6.26864
H         -8.75349        1.53448       -3.50904
H          7.46710       -6.19689       11.98919
H          6.30773       -5.60119       10.79322
H          5.38540       -4.19350       -2.46480
H          4.58518       -6.39667       -3.13174
H          1.10674       -5.91421       -0.64164
H          1.88757       -3.70556        0.03785
H          6.50147       -0.85047       -0.17651
H          7.93903        0.36715       -1.66315
H          5.57074       -0.87316       -5.03409
H          4.07549       -2.12098       -3.53899
H          1.13784        1.62655        3.35068
H          0.19437        1.23991        5.47257
H         -3.64705        0.53901        3.67908
H         -2.72598        0.84159        1.53123
H         -0.16823        3.03752       -1.65571
H          0.66522        5.21415       -2.15961
H          2.17186        5.62038        1.84312
H          1.36178        3.44106        2.39381
H        -11.12914       -4.34713       -4.52385
H        -10.31229       -4.08275       -6.10878
H         -3.52590        0.49731        6.01627
H         -2.02818       -0.30778        6.51583
H          3.11579        6.96611       -0.37566
H          1.84770        7.17310       -1.62952
H          7.21831        0.89812       -5.30544
H          7.98556        1.62552       -3.86437
H          1.18506       -7.65849       -2.47843
H          2.71376       -7.93623       -3.36401
H          2.29716       -8.53263       -0.36549
H          2.34719       -9.73618       -1.71263
H          3.82378       -8.78439       -1.30792
H          8.80089       -1.00260       -5.28087
H          9.66190        0.57751       -5.37503
H          9.62484       -0.32883       -3.81288
H         -2.56292        2.72796        6.71392
H         -2.62761        1.53274        8.06975
H         -1.06290        1.88606        7.27561
H          1.53092        7.93187        1.34081
H          1.78697        9.04796       -0.04967
H          0.26421        8.08697        0.05442
H          7.04821       -8.55871       11.30112
H          5.54224       -7.71416       11.82193
H          5.85041       -7.98379       10.06291
H         -8.94138       -4.82605       -3.45484
H         -9.24883       -5.89617       -4.86566
H         -8.10696       -4.52975       -5.04252
H          3.81560       -0.96139        8.82345
H          1.49830       -0.21370        9.09604
H         -0.20601       -0.83069        7.45377
H          0.38629       -2.18306        5.45407
H          2.68138       -2.97404        5.15827
H          7.63028       -2.53376        9.65405
H          7.37928       -2.43247       12.09496
H          5.17058       -2.82560       13.14506
H          3.20646       -3.35723       11.73288
H          3.42666       -3.48513        9.29646
H         -3.61170       -3.79868       -7.24097
H         -1.72209       -5.25728       -7.68885
H          0.16996       -5.40378       -6.10006
H          0.12776       -4.08010       -4.01303
H         -1.77441       -2.70111       -3.48049
H         -7.31186       -1.40778       -7.13085
H         -8.50832       -2.77590       -8.76990
H         -8.01420       -5.19115       -8.98670
H         -6.32261       -6.24466       -7.51555
H         -5.11940       -4.90634       -5.84102
