113
TPDC-4F.sdf
C          2.28816       -1.22654       -9.24326
O          1.65850       -1.63795       -8.28606
C          3.52148       -1.80002       -9.72924
C          4.31365       -2.77912       -9.14328
C          5.59130       -2.99197       -9.68361
C          6.03298       -2.23549      -10.79152
C          5.18285       -1.30191      -11.40150
C          3.91997       -1.10609      -10.85531
C          2.88951       -0.12206      -11.20972
C          2.62275        0.38903      -12.44390
C          1.56138        1.33554      -12.73062
N          0.73229        2.08796      -13.03146
C          3.34669       -0.11821      -13.58702
N          3.94422       -0.54333      -14.48293
C          2.22090        0.08569       -9.91865
C          2.01035        1.29523       -9.36815
C        -11.12825        9.29700        1.51627
O        -11.05674        9.93574        0.49197
C        -10.61802        9.80545        2.72083
C         -9.72311       10.85729        2.84666
C         -9.28403       11.17572        4.12415
C         -9.75034       10.43288        5.22933
C        -10.70160        9.39908        5.06057
C        -11.14595        9.10168        3.77174
C        -12.17118        8.15152        3.23109
C        -13.21482        7.60876        3.89016
C        -14.23187        6.81665        3.22751
N        -15.06601        6.17638        2.74089
C        -13.43591        7.81217        5.29812
N        -13.64293        7.95597        6.42695
C        -11.88021        8.06093        1.77724
C        -12.20386        7.06348        0.90930
C        -11.72832        6.99423       -0.49009
S        -10.24212        7.63638       -0.98418
C        -10.35088        6.84393       -2.43608
C        -11.50374        6.16449       -2.63666
C        -12.31432        6.25495       -1.53828
C         -9.37143        6.25278       -3.23443
C         -9.93019        5.22550       -3.93052
C        -11.44762        5.19057       -3.81931
S         -7.72313        6.15654       -3.06457
C         -7.69856        4.68742       -3.91231
C         -8.97380        4.31223       -4.34163
C         -6.51727        3.84176       -4.00341
C         -2.73729        2.77199       -4.38134
S         -1.98341        1.28220       -4.67163
C         -0.54198        2.05264       -4.96887
C         -0.57750        3.40614       -4.81380
C         -1.83995        3.84068       -4.47718
C          0.54670        1.74288       -5.79908
C          1.17388        2.89794       -6.12474
C          0.69140        4.09036       -5.31242
S          0.75985        0.54261       -6.91955
C          1.64758        1.55285       -7.95138
C          1.82751        2.79621       -7.34677
C          1.65461        4.36776       -4.10479
C          3.11122        4.67883       -4.46010
C          0.42225        5.34543       -6.22745
C         -0.62984        5.22960       -7.35534
C        -12.11246        5.82644       -5.09003
C        -11.78480        5.15397       -6.42785
C        -11.99810        3.74327       -3.48049
C        -11.54407        3.06569       -2.16913
F         -9.28574       10.72288        6.46453
F         -8.39791       12.18819        4.28584
F          6.42381       -3.88624       -9.09933
F          7.29813       -2.37934      -11.25228
S         -4.93328        4.42008       -3.94335
C         -4.17131        2.94074       -4.22878
C         -5.16937        1.98801       -4.35935
C         -6.44275        2.46919       -4.23203
C         -5.28317        0.55881       -4.63441
N         -6.59194        0.20888       -4.67740
C         -7.33529        1.31930       -4.43215
C         -7.10068       -1.12525       -4.95269
C         -6.65218       -1.59828       -6.33430
O         -8.55298        1.32822       -4.40790
O         -4.36100       -0.21740       -4.81142
H          3.98245       -3.30489       -8.25590
H          5.53245       -0.69176      -12.22145
H          2.26429        2.16755       -9.97404
H         -9.36852       11.39703        1.97072
H        -11.05668        8.84319        5.90911
H        -12.78230        6.20616        1.23709
H        -13.19432        5.68874       -1.51494
H         -9.18711        3.38042       -4.81482
H         -2.12039        4.86906       -4.40802
H          2.30514        3.59671       -7.85161
H          1.27610        5.23589       -3.52508
H          1.68089        3.48943       -3.42232
H          3.21938        5.48398       -5.17914
H          3.67376        4.99282       -3.57393
H          3.65578        3.81624       -4.79997
H          0.09721        6.20155       -5.60250
H          1.36756        5.63213       -6.73783
H         -1.66081        5.21644       -7.07631
H         -0.67535        6.14769       -7.93830
H         -0.47040        4.42159       -8.06150
H        -13.21437        5.79462       -4.97804
H        -11.80681        6.89116       -5.20081
H        -11.94429        4.07927       -6.43149
H        -12.38780        5.54593       -7.24709
H        -10.78653        5.36784       -6.78793
H        -13.11006        3.76832       -3.42803
H        -11.70382        3.03135       -4.27378
H        -11.93007        3.52437       -1.29649
H        -11.98639        2.07978       -2.02282
H        -10.47988        2.95454       -1.97857
H         -6.73431       -1.83608       -4.18145
H         -8.20993       -1.12937       -4.91166
H         -5.54773       -1.64718       -6.38808
H         -7.04214       -2.61270       -6.53062
H         -7.02803       -0.90821       -7.11821
