142
UF-Qx-2F.sdf
C         14.54520       -3.62508        0.72755
C         15.38718       -2.82428        1.51591
C         15.44733       -1.42511        1.31343
C         14.69111       -0.81945        0.30486
C         13.87613       -1.62708       -0.45426
C         13.77410       -2.99142       -0.23849
C         12.99079       -1.24909       -1.52322
C         12.00202       -2.30963       -1.52240
C         12.80515       -3.50317       -1.20571
C         10.65754       -2.13966       -1.42730
C         10.00361       -0.79831       -1.48887
C          8.69343       -0.46880       -1.93612
C          8.47689        0.92902       -1.91683
C          9.56566        1.55448       -1.44238
S         10.79562        0.61123       -1.00083
C          7.39659        1.99395       -2.29679
C          8.27213        3.24806       -2.09474
C          9.45427        2.90960       -1.55036
C          8.25114        4.61165       -2.38107
C          9.48739        5.21497       -2.02875
S         10.54389        4.10528       -1.33002
C          9.89290        6.60271       -2.27044
C          6.19375        1.93253       -1.27618
C          6.90731        1.86698       -3.77368
C          7.97057        2.07859       -4.85860
C          5.00885        2.90727       -1.48876
O         13.01458       -0.20631       -2.15910
F         16.13919       -3.40080        2.48135
F         16.23668       -0.65419        2.09446
C         12.91327       -4.66829       -1.89494
C         13.98787       -5.60104       -1.60277
C         12.17221       -4.88126       -3.11458
N         11.60997       -5.10817       -4.10087
N         14.86630       -6.29060       -1.29980
C         10.83501       10.72815       -2.98928
S         12.12454       11.33665       -3.91944
C         11.79628       12.90853       -3.47666
C         10.73146       13.01581       -2.64272
C         10.14539       11.78720       -2.36523
C         12.54338       14.10964       -3.42464
C         11.97686       14.91419       -2.49613
C         10.59791       14.42196       -2.07534
S         14.07011       14.58446       -3.86949
C         14.10361       15.78460       -2.66188
C         12.86891       15.87957       -2.02342
C         15.29554       16.57610       -2.32525
C         16.17201       16.16807       -1.35825
C         17.40737       15.42366       -1.76883
C         18.61991       16.23224       -1.43768
C         18.20913       17.34292       -0.76906
C         16.75905       17.34198       -0.67987
C         20.00543       16.01799       -1.61908
C         20.92761       16.93268       -1.16257
C         20.48871       18.07716       -0.50006
C         19.11644       18.29048       -0.29404
F         21.39527       18.97355       -0.05126
F         22.25048       16.69881       -1.35812
O         16.10922       18.26862       -0.22402
C         17.45539       14.22242       -2.31823
C         18.67508       13.87763       -2.87517
C         16.34849       13.31067       -2.36213
C          9.46303       15.22812       -2.81074
C         10.46001       14.40999       -0.54171
C         10.63288       15.77038        0.11897
C          7.99593       14.85500       -2.50132
N         19.73098       13.71561       -3.29880
N         15.45012       12.58735       -2.39051
C          8.89259        7.58360       -2.31902
C          9.21999        8.90863       -2.53187
C         10.55897        9.29129       -2.74879
C         11.59500        8.29561       -2.71215
C         11.26812        6.96002       -2.45614
N         12.91476        8.60332       -2.89469
C         13.96077        7.70936       -2.89477
C         13.62819        6.29595       -2.60594
N         12.28782        6.03219       -2.41872
C         14.60841        5.07634       -2.48230
C         15.35408        8.35810       -3.11715
C         15.66881        9.63286       -2.66840
C         16.98714       10.14302       -2.76907
C         18.00056        9.41960       -3.40654
C         17.66846        8.25594       -3.98243
C         16.38270        7.82573       -3.88134
C         15.96727        5.19608       -2.66785
C         16.89720        4.21038       -2.75821
C         16.55278        2.91982       -2.48814
C         15.22509        2.68932       -2.08250
C         14.27402        3.76095       -2.07304
C         17.64498        1.88902       -2.49971
C         18.73607        2.21751       -1.45945
C         19.36383        9.91094       -3.67659
C         19.47359       11.27136       -3.24509
H         14.47934       -4.69324        0.88750
H         14.70353        0.24719        0.13141
H         10.06068       -2.98782       -1.10827
H          7.98671       -1.18487       -2.31676
H          7.44764        5.11593       -2.89351
H          5.73788        0.91935       -1.30255
H          6.57364        2.10127       -0.24213
H          6.45901        0.86261       -3.93174
H          6.12573        2.62965       -3.98363
H          8.87775        1.50395       -4.71138
H          7.58933        1.77992       -5.83559
H          8.28999        3.11456       -5.00091
H          4.45236        2.67519       -2.40205
H          4.25353        2.80081       -0.70401
H          5.20921        3.98507       -1.44954
H          9.35369       11.65330       -1.65280
H         12.68896       16.57259       -1.22741
H         15.83115       16.59184       -3.26365
H         20.46598       15.20524       -2.06265
H         18.77100       19.17045        0.22361
H          9.56575       16.30351       -2.56355
H          9.59154       15.12176       -3.90868
H          9.42984       14.06581       -0.30523
H         11.18305       13.73177       -0.04519
H         10.25243       16.60388       -0.47336
H         10.04115       15.71171        1.02200
H         11.65025       16.05749        0.43872
H          7.73478       15.08784       -1.46664
H          7.29478       15.48907       -3.06155
H          7.69773       13.81979       -2.74039
H          7.84402        7.34155       -2.16468
H          8.39658        9.61909       -2.54899
H         14.86254       10.20758       -2.28894
H         17.25153       11.09483       -2.41351
H         18.34806        7.67852       -4.59441
H         16.22271        7.03537       -4.48264
H         16.43114        6.06723       -2.63636
H         17.90170        4.53308       -2.98801
H         14.95338        1.71220       -1.73085
H         13.31190        3.59134       -1.66000
H         17.19643        0.91089       -2.25726
H         18.11005        1.86026       -3.51320
H         18.28815        2.26445       -0.44322
H         19.52889        1.44087       -1.45645
H         19.24266        3.18522       -1.67504
H         20.13278        9.36636       -3.14323
H         19.53765        9.91273       -4.77989
H         19.32514       11.47388       -2.14118
H         20.48099       11.63317       -3.52411
H         18.62812       11.77620       -3.82030
