Y6.sdf
     RDKit          3D

 97108  0  0  0  0  0  0  0  0999 V2000
    0.7041    7.3601   -4.4722 C   0  0  0  0  0  0  0  0  0  0  0  0
    0.9902    6.9646   -3.3103 O   0  0  0  0  0  0  0  0  0  0  0  0
    0.4878    8.7396   -4.8533 C   0  0  0  0  0  0  0  0  0  0  0  0
    0.5994    9.8816   -4.0570 C   0  0  0  0  0  0  0  0  0  0  0  0
    0.4291   11.1364   -4.6603 C   0  0  0  0  0  0  0  0  0  0  0  0
    0.5361   12.2644   -3.9144 F   0  0  0  0  0  0  0  0  0  0  0  0
    0.1743   11.2287   -6.0411 C   0  0  0  0  0  0  0  0  0  0  0  0
    0.0416   12.4472   -6.6226 F   0  0  0  0  0  0  0  0  0  0  0  0
    0.0707   10.0658   -6.8252 C   0  0  0  0  0  0  0  0  0  0  0  0
    0.2055    8.8105   -6.2087 C   0  0  0  0  0  0  0  0  0  0  0  0
    0.1489    7.4342   -6.7817 C   0  0  0  0  0  0  0  0  0  0  0  0
   -0.4087    7.0631   -7.9643 C   0  0  0  0  0  0  0  0  0  0  0  0
   -0.9109    8.0163   -8.9178 C   0  0  0  0  0  0  0  0  0  0  0  0
   -1.3219    8.7702   -9.6942 N   0  0  0  0  0  0  0  0  0  0  0  0
   -0.6621    5.6855   -8.3015 C   0  0  0  0  0  0  0  0  0  0  0  0
   -0.8720    4.5830   -8.5812 N   0  0  0  0  0  0  0  0  0  0  0  0
    0.5897    6.5281   -5.6761 C   0  0  0  0  0  0  0  0  0  0  0  0
    1.0120    5.2555   -5.7858 C   0  0  0  0  0  0  0  0  0  0  0  0
    1.5173    4.4831   -4.6469 C   0  0  0  0  0  0  0  0  0  0  0  0
    0.5538    3.4311   -3.7189 S   0  0  0  0  0  0  0  0  0  0  0  0
    1.8501    2.8417   -2.8350 C   0  0  0  0  0  0  0  0  0  0  0  0
    3.0160    3.4404   -3.2451 C   0  0  0  0  0  0  0  0  0  0  0  0
    2.8656    4.3787   -4.2656 C   0  0  0  0  0  0  0  0  0  0  0  0
    4.0068    5.0811   -4.9407 C   0  0  0  0  0  0  0  0  0  0  0  0
    4.5482    4.2393   -6.0888 C   0  0  0  0  0  0  0  0  0  0  0  0
    4.3703    2.8512   -2.3869 S   0  0  0  0  0  0  0  0  0  0  0  0
    3.3764    1.7731   -1.5333 C   0  0  0  0  0  0  0  0  0  0  0  0
    2.0654    1.8694   -1.8703 C   0  0  0  0  0  0  0  0  0  0  0  0
    1.2580    1.1309   -1.0658 N   0  0  0  0  0  0  0  0  0  0  0  0
   -0.1447    1.4646   -0.7780 C   0  0  0  0  0  0  0  0  0  0  0  0
    2.1430    0.5014   -0.2255 C   0  0  0  0  0  0  0  0  0  0  0  0
    3.4556    0.9445   -0.4536 C   0  0  0  0  0  0  0  0  0  0  0  0
    4.5078    0.6628    0.4221 C   0  0  0  0  0  0  0  0  0  0  0  0
    5.7801    1.1006    0.2522 N   0  0  0  0  0  0  0  0  0  0  0  0
    6.4795    0.4345    1.5979 S   0  0  0  0  0  0  0  0  0  0  0  0
    5.2820   -0.3770    2.4071 N   0  0  0  0  0  0  0  0  0  0  0  0
    4.2368   -0.1197    1.5830 C   0  0  0  0  0  0  0  0  0  0  0  0
    2.9358   -0.5988    1.7867 C   0  0  0  0  0  0  0  0  0  0  0  0
    1.8991   -0.3678    0.8673 C   0  0  0  0  0  0  0  0  0  0  0  0
    0.8691   -1.2532    1.0627 N   0  0  0  0  0  0  0  0  0  0  0  0
    0.0188   -1.8497    0.0230 C   0  0  0  0  0  0  0  0  0  0  0  0
    0.7858   -2.9195   -0.7503 C   0  0  0  0  0  0  0  0  0  0  0  0
    1.2360   -1.9182    2.1886 C   0  0  0  0  0  0  0  0  0  0  0  0
    2.4624   -1.5489    2.6446 C   0  0  0  0  0  0  0  0  0  0  0  0
    3.1387   -2.6828    3.7168 S   0  0  0  0  0  0  0  0  0  0  0  0
    1.7400   -3.6513    3.6199 C   0  0  0  0  0  0  0  0  0  0  0  0
    0.8238   -3.1199    2.7461 C   0  0  0  0  0  0  0  0  0  0  0  0
   -0.4728   -4.1622    2.5532 S   0  0  0  0  0  0  0  0  0  0  0  0
    0.1466   -5.3107    3.6539 C   0  0  0  0  0  0  0  0  0  0  0  0
    1.4042   -4.9040    4.1348 C   0  0  0  0  0  0  0  0  0  0  0  0
    2.2635   -5.7033    5.0761 C   0  0  0  0  0  0  0  0  0  0  0  0
    1.7368   -5.6065    6.5047 C   0  0  0  0  0  0  0  0  0  0  0  0
   -0.4929   -6.6022    3.9441 C   0  0  0  0  0  0  0  0  0  0  0  0
   -1.6813   -6.7121    4.5669 C   0  0  0  0  0  0  0  0  0  0  0  0
   -2.4878   -7.9568    4.7782 C   0  0  0  0  0  0  0  0  0  0  0  0
   -2.0263   -9.2325    4.8728 C   0  0  0  0  0  0  0  0  0  0  0  0
   -0.6317   -9.5634    4.7574 C   0  0  0  0  0  0  0  0  0  0  0  0
    0.4875   -9.8417    4.6635 N   0  0  0  0  0  0  0  0  0  0  0  0
   -2.8718  -10.3349    5.2388 C   0  0  0  0  0  0  0  0  0  0  0  0
   -3.5377  -11.2329    5.5379 N   0  0  0  0  0  0  0  0  0  0  0  0
   -3.8572   -7.4806    5.1283 C   0  0  0  0  0  0  0  0  0  0  0  0
   -5.0711   -8.1793    5.2350 C   0  0  0  0  0  0  0  0  0  0  0  0
   -6.2341   -7.4755    5.5933 C   0  0  0  0  0  0  0  0  0  0  0  0
   -7.4094   -8.1387    5.7119 F   0  0  0  0  0  0  0  0  0  0  0  0
   -6.1887   -6.0861    5.8152 C   0  0  0  0  0  0  0  0  0  0  0  0
   -7.3191   -5.4120    6.1481 F   0  0  0  0  0  0  0  0  0  0  0  0
   -4.9824   -5.3903    5.6619 C   0  0  0  0  0  0  0  0  0  0  0  0
   -3.8398   -6.1073    5.3086 C   0  0  0  0  0  0  0  0  0  0  0  0
   -2.5184   -5.5934    5.0182 C   0  0  0  0  0  0  0  0  0  0  0  0
   -2.1578   -4.3958    5.1645 O   0  0  0  0  0  0  0  0  0  0  0  0
   -1.0757    1.0548   -1.9255 C   0  0  0  0  0  0  0  0  0  0  0  0
    0.8316    9.8051   -3.0021 H   0  0  0  0  0  0  0  0  0  0  0  0
   -0.0738   10.1754   -7.8870 H   0  0  0  0  0  0  0  0  0  0  0  0
    1.0787    4.7731   -6.7463 H   0  0  0  0  0  0  0  0  0  0  0  0
    3.6780    6.0695   -5.3308 H   0  0  0  0  0  0  0  0  0  0  0  0
    4.8207    5.2588   -4.2066 H   0  0  0  0  0  0  0  0  0  0  0  0
    3.7601    4.0729   -6.8541 H   0  0  0  0  0  0  0  0  0  0  0  0
    5.4001    4.7678   -6.5656 H   0  0  0  0  0  0  0  0  0  0  0  0
    4.9029    3.2572   -5.7073 H   0  0  0  0  0  0  0  0  0  0  0  0
   -0.2297    2.5594   -0.6033 H   0  0  0  0  0  0  0  0  0  0  0  0
   -0.4742    0.9849    0.1663 H   0  0  0  0  0  0  0  0  0  0  0  0
   -0.8953   -2.2846    0.4777 H   0  0  0  0  0  0  0  0  0  0  0  0
   -0.3135   -1.1009   -0.6989 H   0  0  0  0  0  0  0  0  0  0  0  0
    0.1207   -3.3921   -1.4965 H   0  0  0  0  0  0  0  0  0  0  0  0
    1.6434   -2.4635   -1.2812 H   0  0  0  0  0  0  0  0  0  0  0  0
    1.1647   -3.7032   -0.0675 H   0  0  0  0  0  0  0  0  0  0  0  0
    2.2708   -6.7678    4.7602 H   0  0  0  0  0  0  0  0  0  0  0  0
    3.3138   -5.3347    5.0480 H   0  0  0  0  0  0  0  0  0  0  0  0
    2.3963   -6.1869    7.1861 H   0  0  0  0  0  0  0  0  0  0  0  0
    1.7204   -4.5448    6.8337 H   0  0  0  0  0  0  0  0  0  0  0  0
    0.7061   -6.0212    6.5643 H   0  0  0  0  0  0  0  0  0  0  0  0
    0.0264   -7.4687    3.5783 H   0  0  0  0  0  0  0  0  0  0  0  0
   -5.1484   -9.2339    5.0228 H   0  0  0  0  0  0  0  0  0  0  0  0
   -4.9406   -4.3181    5.7970 H   0  0  0  0  0  0  0  0  0  0  0  0
   -1.9338    0.4693   -1.5310 H   0  0  0  0  0  0  0  0  0  0  0  0
   -0.5435    0.4358   -2.6780 H   0  0  0  0  0  0  0  0  0  0  0  0
   -1.4891    1.9521   -2.4290 H   0  0  0  0  0  0  0  0  0  0  0  0
  1  2  2  0
  1  3  1  0
  3  4  2  0
  4  5  1  0
  5  6  1  0
  5  7  2  0
  7  8  1  0
  7  9  1  0
  9 10  2  0
  3 10  1  0
 10 11  1  0
 11 12  2  0
 12 13  1  0
 13 14  3  0
 12 15  1  0
 15 16  3  0
 11 17  1  0
  1 17  1  0
 17 18  2  0
 18 19  1  0
 19 20  1  0
 20 21  1  0
 21 22  2  0
 22 23  1  0
 23 24  1  0
 24 25  1  0
 19 23  2  0
 22 26  1  0
 26 27  1  0
 27 28  2  0
 21 28  1  0
 28 29  1  0
 29 30  1  0
 29 31  1  0
 31 32  2  0
 27 32  1  0
 32 33  1  0
 33 34  2  0
 34 35  1  0
 35 36  1  0
 36 37  2  0
 33 37  1  0
 37 38  1  0
 38 39  2  0
 31 39  1  0
 39 40  1  0
 40 41  1  0
 41 42  1  0
 40 43  1  0
 43 44  2  0
 38 44  1  0
 44 45  1  0
 45 46  1  0
 46 47  2  0
 43 47  1  0
 47 48  1  0
 48 49  1  0
 49 50  2  0
 46 50  1  0
 50 51  1  0
 51 52  1  0
 49 53  1  0
 53 54  2  0
 54 55  1  0
 55 56  2  0
 56 57  1  0
 57 58  3  0
 56 59  1  0
 59 60  3  0
 55 61  1  0
 61 62  2  0
 62 63  1  0
 63 64  1  0
 63 65  2  0
 65 66  1  0
 65 67  1  0
 67 68  2  0
 61 68  1  0
 68 69  1  0
 69 70  2  0
 54 69  1  0
 30 71  1  0
  4 72  1  0
  9 73  1  0
 18 74  1  0
 24 75  1  0
 24 76  1  0
 25 77  1  0
 25 78  1  0
 25 79  1  0
 30 80  1  0
 30 81  1  0
 41 82  1  0
 41 83  1  0
 42 84  1  0
 42 85  1  0
 42 86  1  0
 51 87  1  0
 51 88  1  0
 52 89  1  0
 52 90  1  0
 52 91  1  0
 53 92  1  0
 62 93  1  0
 67 94  1  0
 71 95  1  0
 71 96  1  0
 71 97  1  0
M  END

