97
Y6.sdf
C          4.14894       -3.52491        1.44748
O          3.91311       -4.57755        0.88525
C          4.47521       -3.47974        2.83332
C          4.49401       -4.55519        3.70776
C          4.65820       -4.28840        5.06116
F          4.65490       -5.31864        5.94082
C          4.78056       -2.95399        5.50056
F          4.86392       -2.69353        6.82242
C          4.80843       -1.88928        4.57616
C          4.67927       -2.18090        3.21930
C          4.67523       -1.30971        2.01482
C          5.29460       -0.10401        1.88872
C          5.35812        0.67418        0.66624
N          5.44479        1.33723       -0.28100
C          6.07754        0.40843        2.98106
N          6.69677        0.78823        3.88116
C          3.97722       -2.10860        0.97807
C          3.24866       -1.55434       -0.03174
C          2.34725       -2.26678       -0.97526
S          2.47405       -3.90473       -1.55255
C          1.05048       -3.89450       -2.46291
C          0.51747       -2.64963       -2.23474
C          1.19888       -1.68152       -1.55407
C          0.68663       -0.22318       -1.53035
C          0.55766        0.50125       -2.90778
S         -0.92223       -2.46562       -2.91691
C         -0.79445       -3.78466       -3.71311
C          0.23478       -4.54604       -3.46013
N          0.20221       -5.60282       -4.33373
C          1.26254       -6.60168       -4.31541
C         -0.79374       -5.23378       -5.28930
C         -1.40319       -4.07034       -4.77815
C         -2.32403       -3.21584       -5.38507
N         -2.94593       -2.11891       -4.86444
S         -3.74252       -1.50763       -6.17590
N         -3.27184       -2.52915       -7.37871
C         -2.48259       -3.41023       -6.70657
C         -1.90738       -4.51493       -7.24810
C         -1.28324       -5.60329       -6.65605
N         -1.32156       -6.58299       -7.69012
C         -0.89030       -8.00430       -7.68665
C         -1.98848       -8.93032       -7.28069
C         -1.92200       -5.91327       -8.78834
C         -1.95891       -4.69485       -8.47545
S         -0.95404       -3.95452       -9.63485
C         -1.36934       -5.08627      -10.86987
C         -2.31328       -5.86784      -10.19651
S         -3.74904       -4.80202      -10.51143
C         -2.99177       -3.69011      -11.64732
C         -1.88154       -4.45718      -12.06177
C         -2.40289       -5.45410      -13.12823
C         -1.38005       -6.39923      -13.73226
C         -2.67432       -2.16613      -11.37649
C         -2.07028       -1.37726      -12.35067
C         -1.46461        0.02637      -12.47446
C         -1.67942        1.12509      -11.70228
C         -1.25096        2.43423      -12.14769
N         -0.87607        3.44518      -12.57084
C         -2.43958        1.11945      -10.49197
N         -3.04055        1.20477       -9.50953
C         -0.69015        0.02565      -13.77976
C          0.25702        0.90264      -14.36660
C          0.76701        0.59875      -15.65311
F          1.69135        1.40479      -16.23305
C          0.32071       -0.54248      -16.34569
F          0.79665       -0.83809      -17.58098
C         -0.61399       -1.38918      -15.75582
C         -1.07079       -1.08739      -14.48286
C         -2.00729       -1.84537      -13.71882
O         -2.85158       -2.55522      -14.22687
C          0.92163       -7.72606       -3.36497
H          4.34555       -5.56640        3.34460
H          4.87959       -0.87022        4.91532
H          3.19565       -0.46637       -0.06719
H         -0.30592       -0.17483       -1.05120
H          1.39995        0.38948       -0.96398
H         -0.18153        0.03395       -3.57532
H          0.27218        1.55303       -2.80251
H          1.48960        0.64269       -3.45952
H          1.51080       -6.89002       -5.28772
H          2.24544       -6.19049       -4.07390
H         -0.46192       -8.31210       -8.64917
H         -0.06079       -8.19866       -7.01926
H         -2.59882       -8.86916       -8.13133
H         -1.71342       -9.99825       -7.21269
H         -2.43282       -8.60331       -6.32579
H         -3.22617       -6.09120      -12.73270
H         -2.83348       -4.89098      -13.97959
H         -0.93815       -7.05601      -12.95090
H         -1.87848       -7.01933      -14.50819
H         -0.61426       -5.83761      -14.28863
H         -2.78824       -1.75854      -10.37044
H          0.62287        1.78607      -13.86597
H         -0.96852       -2.27800      -16.26075
H          0.93047       -7.38369       -2.32582
H         -0.12217       -7.95519       -3.50477
H          1.55887       -8.62922       -3.49624
