
     RDKit          3D

255281  0  0  0  0  0  0  0  0999 V2000
    3.0297    6.3023   -1.9099 C   0  0  0  0  0  0  0  0  0  0  0  0
    4.2532    6.4703   -1.3825 C   0  0  0  0  0  0  0  0  0  0  0  0
    5.3158    5.4828   -1.5838 C   0  0  0  0  0  0  0  0  0  0  0  0
    5.4026    4.6728   -2.5451 O   0  0  0  0  0  0  0  0  0  0  0  0
    6.1905    5.5186   -0.4228 C   0  0  0  0  0  0  0  0  0  0  0  0
    7.1949    4.6239   -0.0695 C   0  0  0  0  0  0  0  0  0  0  0  0
    7.8097    4.7754    1.1770 C   0  0  0  0  0  0  0  0  0  0  0  0
    8.7970    3.9288    1.5487 F   0  0  0  0  0  0  0  0  0  0  0  0
    7.4182    5.8192    2.0424 C   0  0  0  0  0  0  0  0  0  0  0  0
    8.0607    5.9889    3.2302 F   0  0  0  0  0  0  0  0  0  0  0  0
    6.4003    6.7077    1.6652 C   0  0  0  0  0  0  0  0  0  0  0  0
    5.7935    6.5451    0.4082 C   0  0  0  0  0  0  0  0  0  0  0  0
    4.6883    7.3111   -0.2304 C   0  0  0  0  0  0  0  0  0  0  0  0
    4.4830    8.6490   -0.1155 C   0  0  0  0  0  0  0  0  0  0  0  0
    3.6626    9.3624   -1.0579 C   0  0  0  0  0  0  0  0  0  0  0  0
    2.9884    9.9194   -1.8185 N   0  0  0  0  0  0  0  0  0  0  0  0
    5.2164    9.4630    0.8211 C   0  0  0  0  0  0  0  0  0  0  0  0
    5.8194   10.1438    1.5364 N   0  0  0  0  0  0  0  0  0  0  0  0
    1.7514    6.7795   -1.3290 C   0  0  0  0  0  0  0  0  0  0  0  0
    0.4865    6.4678   -1.8583 C   0  0  0  0  0  0  0  0  0  0  0  0
    0.2850    5.6435   -3.0175 N   0  0  0  0  0  0  0  0  0  0  0  0
   -0.3152    4.3384   -2.8474 C   0  0  0  0  0  0  0  0  0  0  0  0
   -1.2791    3.8693   -3.7620 C   0  0  0  0  0  0  0  0  0  0  0  0
   -1.9066    2.6362   -3.5548 C   0  0  0  0  0  0  0  0  0  0  0  0
   -1.6148    1.8709   -2.4206 C   0  0  0  0  0  0  0  0  0  0  0  0
   -2.3062    0.5617   -2.2023 C   0  0  0  0  0  0  0  0  0  0  0  0
   -0.6439    2.3262   -1.5148 C   0  0  0  0  0  0  0  0  0  0  0  0
    0.0032    3.5482   -1.7289 C   0  0  0  0  0  0  0  0  0  0  0  0
    0.5998    6.1786   -4.3200 C   0  0  0  0  0  0  0  0  0  0  0  0
    1.1191    5.3491   -5.3294 C   0  0  0  0  0  0  0  0  0  0  0  0
    1.4021    5.8664   -6.5929 C   0  0  0  0  0  0  0  0  0  0  0  0
    1.1968    7.2258   -6.8619 C   0  0  0  0  0  0  0  0  0  0  0  0
    1.4664    7.7675   -8.2365 C   0  0  0  0  0  0  0  0  0  0  0  0
    0.6741    8.0568   -5.8575 C   0  0  0  0  0  0  0  0  0  0  0  0
    0.3962    7.5421   -4.5945 C   0  0  0  0  0  0  0  0  0  0  0  0
   -0.5402    6.8213   -0.9862 C   0  0  0  0  0  0  0  0  0  0  0  0
   -2.1634    6.4301   -0.8793 S   0  0  0  0  0  0  0  0  0  0  0  0
   -2.3672    6.9245    0.7559 C   0  0  0  0  0  0  0  0  0  0  0  0
   -1.1154    7.4265    1.1758 C   0  0  0  0  0  0  0  0  0  0  0  0
   -0.8364    8.1049    2.4105 N   0  0  0  0  0  0  0  0  0  0  0  0
   -0.3606    7.3486    3.5589 C   0  0  0  0  0  0  0  0  0  0  0  0
    0.0225    7.9928    4.7560 C   0  0  0  0  0  0  0  0  0  0  0  0
    0.3856    7.2523    5.8864 C   0  0  0  0  0  0  0  0  0  0  0  0
    0.3482    5.8584    5.8582 C   0  0  0  0  0  0  0  0  0  0  0  0
    0.6601    5.0852    7.1056 C   0  0  0  0  0  0  0  0  0  0  0  0
   -0.0124    5.1993    4.6752 C   0  0  0  0  0  0  0  0  0  0  0  0
   -0.3497    5.9363    3.5373 C   0  0  0  0  0  0  0  0  0  0  0  0
   -0.6883    9.5388    2.2746 C   0  0  0  0  0  0  0  0  0  0  0  0
   -1.6909   10.2801    1.6233 C   0  0  0  0  0  0  0  0  0  0  0  0
   -1.5198   11.6386    1.3494 C   0  0  0  0  0  0  0  0  0  0  0  0
   -0.3262   12.2837    1.6938 C   0  0  0  0  0  0  0  0  0  0  0  0
   -0.1574   13.7385    1.3778 C   0  0  0  0  0  0  0  0  0  0  0  0
    0.6951   11.5550    2.3242 C   0  0  0  0  0  0  0  0  0  0  0  0
    0.5284   10.1862    2.5787 C   0  0  0  0  0  0  0  0  0  0  0  0
   -0.1427    7.3458    0.1834 C   0  0  0  0  0  0  0  0  0  0  0  0
    1.5262    7.3944    0.2461 S   0  0  0  0  0  0  0  0  0  0  0  0
   -3.3676    6.2365    1.6147 C   0  0  0  0  0  0  0  0  0  0  0  0
   -3.5679    6.3735    3.0154 C   0  0  0  0  0  0  0  0  0  0  0  0
   -3.6060    7.6696    3.7316 C   0  0  0  0  0  0  0  0  0  0  0  0
   -4.2366    8.7694    3.1252 C   0  0  0  0  0  0  0  0  0  0  0  0
   -4.3135    9.9971    3.7897 C   0  0  0  0  0  0  0  0  0  0  0  0
   -3.7917   10.1340    5.0748 C   0  0  0  0  0  0  0  0  0  0  0  0
   -3.2004    9.0357    5.7173 C   0  0  0  0  0  0  0  0  0  0  0  0
   -2.6728    9.1774    7.1195 C   0  0  0  0  0  0  0  0  0  0  0  0
   -3.7013    8.7001    8.1409 C   0  0  0  0  0  0  0  0  0  0  0  0
   -3.1324    7.7978    5.0507 C   0  0  0  0  0  0  0  0  0  0  0  0
   -4.0026    5.1554    3.5877 C   0  0  0  0  0  0  0  0  0  0  0  0
   -3.8878    4.5156    5.1641 S   0  0  0  0  0  0  0  0  0  0  0  0
   -4.2016    2.9288    4.6247 C   0  0  0  0  0  0  0  0  0  0  0  0
   -3.7891    1.6761    5.0137 C   0  0  0  0  0  0  0  0  0  0  0  0
   -3.0992    1.2527    6.1673 C   0  0  0  0  0  0  0  0  0  0  0  0
   -2.4618   -0.0267    6.1644 C   0  0  0  0  0  0  0  0  0  0  0  0
   -1.7898   -0.3822    7.2894 N   0  0  0  0  0  0  0  0  0  0  0  0
   -2.0397    0.9724    8.2037 S   0  0  0  0  0  0  0  0  0  0  0  0
   -2.9513    2.0092    7.2797 N   0  0  0  0  0  0  0  0  0  0  0  0
   -2.5633   -0.8317    5.0215 C   0  0  0  0  0  0  0  0  0  0  0  0
   -2.0318   -2.0510    4.6823 C   0  0  0  0  0  0  0  0  0  0  0  0
   -1.0492   -3.3179    5.2740 S   0  0  0  0  0  0  0  0  0  0  0  0
   -1.1681   -4.1512    3.7754 C   0  0  0  0  0  0  0  0  0  0  0  0
   -0.6084   -5.3123    3.2317 C   0  0  0  0  0  0  0  0  0  0  0  0
   -0.0446   -6.4198    4.0199 C   0  0  0  0  0  0  0  0  0  0  0  0
   -0.7502   -7.6299    4.0955 C   0  0  0  0  0  0  0  0  0  0  0  0
   -0.2510   -8.7002    4.8347 C   0  0  0  0  0  0  0  0  0  0  0  0
    0.9855   -8.5855    5.4826 C   0  0  0  0  0  0  0  0  0  0  0  0
    1.7230   -7.3944    5.3776 C   0  0  0  0  0  0  0  0  0  0  0  0
    3.0919   -7.3055    5.9979 C   0  0  0  0  0  0  0  0  0  0  0  0
    3.0552   -6.6000    7.3490 C   0  0  0  0  0  0  0  0  0  0  0  0
    1.1880   -6.2947    4.6877 C   0  0  0  0  0  0  0  0  0  0  0  0
   -0.9564   -5.4255    1.8693 C   0  0  0  0  0  0  0  0  0  0  0  0
   -1.9772   -4.1499    1.3895 S   0  0  0  0  0  0  0  0  0  0  0  0
   -1.9604   -3.4612    2.9025 C   0  0  0  0  0  0  0  0  0  0  0  0
   -2.4519   -2.2984    3.4210 C   0  0  0  0  0  0  0  0  0  0  0  0
   -3.3029   -1.3730    2.9250 N   0  0  0  0  0  0  0  0  0  0  0  0
   -3.2836   -0.4143    3.8985 C   0  0  0  0  0  0  0  0  0  0  0  0
   -3.8196    0.8937    3.8503 C   0  0  0  0  0  0  0  0  0  0  0  0
   -4.1136    1.6569    2.7519 N   0  0  0  0  0  0  0  0  0  0  0  0
   -4.3561    2.8897    3.2651 C   0  0  0  0  0  0  0  0  0  0  0  0
   -4.2375    4.1491    2.6958 C   0  0  0  0  0  0  0  0  0  0  0  0
   -3.8494    4.6678    1.1647 S   0  0  0  0  0  0  0  0  0  0  0  0
   -3.7784    1.3902    1.3453 C   0  0  0  0  0  0  0  0  0  0  0  0
   -5.0328    1.4494    0.4679 C   0  0  0  0  0  0  0  0  0  0  0  0
   -4.4584   -1.7131    2.0860 C   0  0  0  0  0  0  0  0  0  0  0  0
   -5.3459   -2.7484    2.7738 C   0  0  0  0  0  0  0  0  0  0  0  0
   -0.4794   -6.4225    0.9144 C   0  0  0  0  0  0  0  0  0  0  0  0
    0.8626   -6.7411    0.6558 C   0  0  0  0  0  0  0  0  0  0  0  0
    1.9661   -5.9855    1.2007 N   0  0  0  0  0  0  0  0  0  0  0  0
    2.0285   -4.5777    0.8933 C   0  0  0  0  0  0  0  0  0  0  0  0
    2.0666   -4.1378   -0.4454 C   0  0  0  0  0  0  0  0  0  0  0  0
    2.1498   -2.7759   -0.7433 C   0  0  0  0  0  0  0  0  0  0  0  0
    2.1645   -1.8291    0.2880 C   0  0  0  0  0  0  0  0  0  0  0  0
    2.2167   -0.3665   -0.0215 C   0  0  0  0  0  0  0  0  0  0  0  0
    2.0926   -2.2566    1.6209 C   0  0  0  0  0  0  0  0  0  0  0  0
    2.0672   -3.6214    1.9186 C   0  0  0  0  0  0  0  0  0  0  0  0
    3.1131   -6.6764    1.7525 C   0  0  0  0  0  0  0  0  0  0  0  0
    4.3991   -6.0977    1.7213 C   0  0  0  0  0  0  0  0  0  0  0  0
    5.5089   -6.7959    2.1952 C   0  0  0  0  0  0  0  0  0  0  0  0
    5.3700   -8.0928    2.7037 C   0  0  0  0  0  0  0  0  0  0  0  0
    6.5783   -8.8602    3.1364 C   0  0  0  0  0  0  0  0  0  0  0  0
    4.0890   -8.6811    2.7419 C   0  0  0  0  0  0  0  0  0  0  0  0
    2.9773   -7.9739    2.2790 C   0  0  0  0  0  0  0  0  0  0  0  0
    0.9873   -7.4498   -0.5449 C   0  0  0  0  0  0  0  0  0  0  0  0
    2.2980   -7.7117   -1.5622 S   0  0  0  0  0  0  0  0  0  0  0  0
    1.3598   -7.9858   -2.9547 C   0  0  0  0  0  0  0  0  0  0  0  0
   -0.0005   -7.7739   -2.6388 C   0  0  0  0  0  0  0  0  0  0  0  0
   -0.9947   -7.3158   -3.5902 N   0  0  0  0  0  0  0  0  0  0  0  0
   -0.6091   -6.3224   -4.5681 C   0  0  0  0  0  0  0  0  0  0  0  0
    0.1913   -5.2300   -4.1959 C   0  0  0  0  0  0  0  0  0  0  0  0
    0.6539   -4.3262   -5.1534 C   0  0  0  0  0  0  0  0  0  0  0  0
    0.3159   -4.5047   -6.5065 C   0  0  0  0  0  0  0  0  0  0  0  0
    0.8371   -3.5540   -7.5384 C   0  0  0  0  0  0  0  0  0  0  0  0
   -0.5370   -5.5581   -6.8715 C   0  0  0  0  0  0  0  0  0  0  0  0
   -1.0042   -6.4599   -5.9067 C   0  0  0  0  0  0  0  0  0  0  0  0
   -2.4022   -7.5895   -3.3700 C   0  0  0  0  0  0  0  0  0  0  0  0
   -2.8175   -8.8303   -2.8483 C   0  0  0  0  0  0  0  0  0  0  0  0
   -4.1570   -9.0507   -2.5172 C   0  0  0  0  0  0  0  0  0  0  0  0
   -5.1073   -8.0344   -2.7003 C   0  0  0  0  0  0  0  0  0  0  0  0
   -6.5241   -8.2334   -2.2544 C   0  0  0  0  0  0  0  0  0  0  0  0
   -4.7003   -6.7954   -3.2085 C   0  0  0  0  0  0  0  0  0  0  0  0
   -3.3630   -6.5777   -3.5479 C   0  0  0  0  0  0  0  0  0  0  0  0
   -0.1608   -7.5698   -1.2661 C   0  0  0  0  0  0  0  0  0  0  0  0
   -1.4281   -6.8991   -0.3990 S   0  0  0  0  0  0  0  0  0  0  0  0
    1.9340   -8.0208   -4.3119 C   0  0  0  0  0  0  0  0  0  0  0  0
    1.3683   -8.6816   -5.3389 C   0  0  0  0  0  0  0  0  0  0  0  0
    0.3529   -9.7223   -5.1911 C   0  0  0  0  0  0  0  0  0  0  0  0
    0.0303  -10.3065   -4.1237 O   0  0  0  0  0  0  0  0  0  0  0  0
   -0.1456  -10.0708   -6.5016 C   0  0  0  0  0  0  0  0  0  0  0  0
   -1.1817  -10.9549   -6.8049 C   0  0  0  0  0  0  0  0  0  0  0  0
   -1.5696  -11.0986   -8.1406 C   0  0  0  0  0  0  0  0  0  0  0  0
   -2.6182  -11.9586   -8.4789 C   0  0  0  0  0  0  0  0  0  0  0  0
   -3.0054  -12.0987   -9.8173 C   0  0  0  0  0  0  0  0  0  0  0  0
   -2.3515  -11.3750  -10.8204 C   0  0  0  0  0  0  0  0  0  0  0  0
   -2.7765  -11.4777  -12.1019 F   0  0  0  0  0  0  0  0  0  0  0  0
   -1.3009  -10.5112  -10.4970 C   0  0  0  0  0  0  0  0  0  0  0  0
   -0.8978  -10.3602   -9.1553 C   0  0  0  0  0  0  0  0  0  0  0  0
    0.1574   -9.4895   -8.8156 C   0  0  0  0  0  0  0  0  0  0  0  0
    0.5355   -9.3484   -7.4681 C   0  0  0  0  0  0  0  0  0  0  0  0
    1.5479   -8.4496   -6.8157 C   0  0  0  0  0  0  0  0  0  0  0  0
    2.3571   -7.5492   -7.4397 C   0  0  0  0  0  0  0  0  0  0  0  0
    2.4026   -7.3870   -8.8741 C   0  0  0  0  0  0  0  0  0  0  0  0
    2.4533   -7.2486  -10.0227 N   0  0  0  0  0  0  0  0  0  0  0  0
    3.2266   -6.6390   -6.7379 C   0  0  0  0  0  0  0  0  0  0  0  0
    3.9349   -5.9056   -6.1939 N   0  0  0  0  0  0  0  0  0  0  0  0
    2.9394    5.6042   -2.7326 H   0  0  0  0  0  0  0  0  0  0  0  0
    7.4654    3.8040   -0.7224 H   0  0  0  0  0  0  0  0  0  0  0  0
    6.1211    7.5192    2.3334 H   0  0  0  0  0  0  0  0  0  0  0  0
   -1.5617    4.4621   -4.6228 H   0  0  0  0  0  0  0  0  0  0  0  0
   -2.6510    2.2939   -4.2674 H   0  0  0  0  0  0  0  0  0  0  0  0
   -3.3777    0.6470   -2.4770 H   0  0  0  0  0  0  0  0  0  0  0  0
   -1.8277   -0.2167   -2.8335 H   0  0  0  0  0  0  0  0  0  0  0  0
   -2.2469    0.2550   -1.1369 H   0  0  0  0  0  0  0  0  0  0  0  0
   -0.4154    1.7495   -0.6302 H   0  0  0  0  0  0  0  0  0  0  0  0
    0.7490    3.8740   -1.0143 H   0  0  0  0  0  0  0  0  0  0  0  0
    1.3020    4.2981   -5.1288 H   0  0  0  0  0  0  0  0  0  0  0  0
    1.7906    5.2040   -7.3589 H   0  0  0  0  0  0  0  0  0  0  0  0
    1.7008    8.8575   -8.1949 H   0  0  0  0  0  0  0  0  0  0  0  0
    0.5698    7.6251   -8.8742 H   0  0  0  0  0  0  0  0  0  0  0  0
    2.3282    7.2478   -8.7029 H   0  0  0  0  0  0  0  0  0  0  0  0
    0.4977    9.1112   -6.0535 H   0  0  0  0  0  0  0  0  0  0  0  0
   -0.0004    8.2018   -3.8330 H   0  0  0  0  0  0  0  0  0  0  0  0
   -0.0197    9.0669    4.8511 H   0  0  0  0  0  0  0  0  0  0  0  0
    0.6606    7.7777    6.7933 H   0  0  0  0  0  0  0  0  0  0  0  0
   -0.1125    5.3110    7.8712 H   0  0  0  0  0  0  0  0  0  0  0  0
    1.6506    5.3944    7.5056 H   0  0  0  0  0  0  0  0  0  0  0  0
    0.6751    3.9897    6.9239 H   0  0  0  0  0  0  0  0  0  0  0  0
   -0.0477    4.1182    4.6297 H   0  0  0  0  0  0  0  0  0  0  0  0
   -0.6474    5.3896    2.6515 H   0  0  0  0  0  0  0  0  0  0  0  0
   -2.5898    9.7839    1.2676 H   0  0  0  0  0  0  0  0  0  0  0  0
   -2.3090   12.1730    0.8284 H   0  0  0  0  0  0  0  0  0  0  0  0
   -0.5714   13.9520    0.3675 H   0  0  0  0  0  0  0  0  0  0  0  0
    0.9200   14.0262    1.3707 H   0  0  0  0  0  0  0  0  0  0  0  0
   -0.7030   14.3520    2.1293 H   0  0  0  0  0  0  0  0  0  0  0  0
    1.6289   12.0415    2.5889 H   0  0  0  0  0  0  0  0  0  0  0  0
    1.3639    9.6302    2.9809 H   0  0  0  0  0  0  0  0  0  0  0  0
   -4.6854    8.6739    2.1465 H   0  0  0  0  0  0  0  0  0  0  0  0
   -4.7787   10.8470    3.3036 H   0  0  0  0  0  0  0  0  0  0  0  0
   -3.8502   11.0948    5.5725 H   0  0  0  0  0  0  0  0  0  0  0  0
   -2.4150   10.2401    7.3280 H   0  0  0  0  0  0  0  0  0  0  0  0
   -1.7430    8.5833    7.2418 H   0  0  0  0  0  0  0  0  0  0  0  0
   -3.3646    8.9691    9.1617 H   0  0  0  0  0  0  0  0  0  0  0  0
   -4.6860    9.1797    7.9507 H   0  0  0  0  0  0  0  0  0  0  0  0
   -3.8133    7.5968    8.0776 H   0  0  0  0  0  0  0  0  0  0  0  0
   -2.6657    6.9601    5.5436 H   0  0  0  0  0  0  0  0  0  0  0  0
   -1.6916   -7.7447    3.5682 H   0  0  0  0  0  0  0  0  0  0  0  0
   -0.8044   -9.6264    4.8852 H   0  0  0  0  0  0  0  0  0  0  0  0
    1.3674   -9.4261    6.0417 H   0  0  0  0  0  0  0  0  0  0  0  0
    3.5283   -8.3234    6.1328 H   0  0  0  0  0  0  0  0  0  0  0  0
    3.7710   -6.7528    5.3057 H   0  0  0  0  0  0  0  0  0  0  0  0
    2.4434   -7.1768    8.0809 H   0  0  0  0  0  0  0  0  0  0  0  0
    2.6245   -5.5804    7.2427 H   0  0  0  0  0  0  0  0  0  0  0  0
    4.0856   -6.5032    7.7471 H   0  0  0  0  0  0  0  0  0  0  0  0
    1.7292   -5.3636    4.6672 H   0  0  0  0  0  0  0  0  0  0  0  0
   -3.2779    0.4183    1.2161 H   0  0  0  0  0  0  0  0  0  0  0  0
   -3.0217    2.1140    0.9804 H   0  0  0  0  0  0  0  0  0  0  0  0
   -5.2122    2.4890    0.1131 H   0  0  0  0  0  0  0  0  0  0  0  0
   -5.9275    1.1180    1.0266 H   0  0  0  0  0  0  0  0  0  0  0  0
   -4.9026    0.7912   -0.4230 H   0  0  0  0  0  0  0  0  0  0  0  0
   -5.0923   -0.8245    1.9157 H   0  0  0  0  0  0  0  0  0  0  0  0
   -4.1213   -2.0981    1.1041 H   0  0  0  0  0  0  0  0  0  0  0  0
   -5.6399   -2.3965    3.7890 H   0  0  0  0  0  0  0  0  0  0  0  0
   -4.8157   -3.7211    2.8731 H   0  0  0  0  0  0  0  0  0  0  0  0
   -6.2648   -2.9103    2.1735 H   0  0  0  0  0  0  0  0  0  0  0  0
    2.0767   -4.8495   -1.2562 H   0  0  0  0  0  0  0  0  0  0  0  0
    2.2071   -2.4602   -1.7780 H   0  0  0  0  0  0  0  0  0  0  0  0
    1.2694    0.1118    0.3065 H   0  0  0  0  0  0  0  0  0  0  0  0
    2.3453   -0.1813   -1.1117 H   0  0  0  0  0  0  0  0  0  0  0  0
    3.0722    0.1019    0.5128 H   0  0  0  0  0  0  0  0  0  0  0  0
    2.0699   -1.5334    2.4247 H   0  0  0  0  0  0  0  0  0  0  0  0
    2.0360   -3.9274    2.9505 H   0  0  0  0  0  0  0  0  0  0  0  0
    4.5552   -5.1108    1.3006 H   0  0  0  0  0  0  0  0  0  0  0  0
    6.4859   -6.3346    2.1474 H   0  0  0  0  0  0  0  0  0  0  0  0
    6.3031   -9.7901    3.6782 H   0  0  0  0  0  0  0  0  0  0  0  0
    7.1743   -9.1411    2.2440 H   0  0  0  0  0  0  0  0  0  0  0  0
    7.2040   -8.2336    3.8069 H   0  0  0  0  0  0  0  0  0  0  0  0
    3.9601   -9.6880    3.1180 H   0  0  0  0  0  0  0  0  0  0  0  0
    2.0073   -8.4500    2.3219 H   0  0  0  0  0  0  0  0  0  0  0  0
    0.4726   -5.0886   -3.1615 H   0  0  0  0  0  0  0  0  0  0  0  0
    1.2905   -3.5049   -4.8453 H   0  0  0  0  0  0  0  0  0  0  0  0
    0.1592   -2.6773   -7.6060 H   0  0  0  0  0  0  0  0  0  0  0  0
    0.9016   -4.0424   -8.5349 H   0  0  0  0  0  0  0  0  0  0  0  0
    1.8574   -3.2043   -7.2604 H   0  0  0  0  0  0  0  0  0  0  0  0
   -0.8187   -5.6995   -7.9088 H   0  0  0  0  0  0  0  0  0  0  0  0
   -1.6324   -7.2857   -6.2087 H   0  0  0  0  0  0  0  0  0  0  0  0
   -2.1006   -9.6228   -2.6869 H   0  0  0  0  0  0  0  0  0  0  0  0
   -4.4499  -10.0011   -2.0877 H   0  0  0  0  0  0  0  0  0  0  0  0
   -7.2244   -7.6602   -2.9029 H   0  0  0  0  0  0  0  0  0  0  0  0
   -6.8043   -9.3071   -2.3018 H   0  0  0  0  0  0  0  0  0  0  0  0
   -6.6198   -7.8796   -1.2069 H   0  0  0  0  0  0  0  0  0  0  0  0
   -5.4112   -5.9864   -3.3024 H   0  0  0  0  0  0  0  0  0  0  0  0
   -3.0754   -5.5930   -3.8967 H   0  0  0  0  0  0  0  0  0  0  0  0
    2.8065   -7.4040   -4.4540 H   0  0  0  0  0  0  0  0  0  0  0  0
   -1.6871  -11.4930   -6.0060 H   0  0  0  0  0  0  0  0  0  0  0  0
   -3.1532  -12.5082   -7.7094 H   0  0  0  0  0  0  0  0  0  0  0  0
   -3.8360  -12.7547  -10.0616 H   0  0  0  0  0  0  0  0  0  0  0  0
   -0.8022   -9.9654  -11.2869 H   0  0  0  0  0  0  0  0  0  0  0  0
    0.6329   -8.9460   -9.6029 H   0  0  0  0  0  0  0  0  0  0  0  0
  1  2  2  3
  2  3  1  0
  3  4  2  0
  3  5  1  0
  5  6  2  0
  6  7  1  0
  7  8  1  0
  7  9  2  0
  9 10  1  0
  9 11  1  0
 11 12  2  0
 12 13  1  0
 13 14  2  3
 14 15  1  0
 15 16  3  0
 14 17  1  0
 17 18  3  0
  1 19  1  0
 19 20  2  0
 20 21  1  0
 21 22  1  0
 22 23  2  0
 23 24  1  0
 24 25  2  0
 25 26  1  0
 25 27  1  0
 27 28  2  0
 21 29  1  0
 29 30  2  0
 30 31  1  0
 31 32  2  0
 32 33  1  0
 32 34  1  0
 34 35  2  0
 20 36  1  0
 36 37  1  0
 37 38  1  0
 38 39  2  0
 39 40  1  0
 40 41  1  0
 41 42  2  0
 42 43  1  0
 43 44  2  0
 44 45  1  0
 44 46  1  0
 46 47  2  0
 40 48  1  0
 48 49  2  0
 49 50  1  0
 50 51  2  0
 51 52  1  0
 51 53  1  0
 53 54  2  0
 39 55  1  0
 55 56  1  0
 38 57  1  0
 57 58  2  0
 58 59  1  0
 59 60  2  0
 60 61  1  0
 61 62  2  0
 62 63  1  0
 63 64  1  0
 64 65  1  0
 63 66  2  0
 58 67  1  0
 67 68  1  0
 68 69  1  0
 69 70  1  0
 70 71  1  0
 71 72  1  0
 72 73  2  0
 73 74  1  0
 74 75  1  0
 72 76  1  0
 76 77  1  0
 77 78  1  0
 78 79  1  0
 79 80  1  0
 80 81  1  0
 81 82  2  0
 82 83  1  0
 83 84  2  0
 84 85  1  0
 85 86  1  0
 86 87  1  0
 85 88  2  0
 80 89  2  0
 89 90  1  0
 90 91  1  0
 91 92  1  0
 92 93  1  0
 93 94  1  0
 94 95  1  0
 95 96  1  0
 96 97  1  0
 97 98  1  0
 98 99  1  0
 96100  1  0
100101  1  0
 93102  1  0
102103  1  0
 89104  1  0
104105  2  0
105106  1  0
106107  1  0
107108  2  0
108109  1  0
109110  2  0
110111  1  0
110112  1  0
112113  2  0
106114  1  0
114115  2  0
115116  1  0
116117  2  0
117118  1  0
117119  1  0
119120  2  0
105121  1  0
121122  1  0
122123  1  0
123124  2  0
124125  1  0
125126  1  0
126127  2  0
127128  1  0
128129  2  0
129130  1  0
129131  1  0
131132  2  0
125133  1  0
133134  2  0
134135  1  0
135136  2  0
136137  1  0
136138  1  0
138139  2  0
124140  1  0
140141  1  0
123142  1  0
142143  2  3
143144  1  0
144145  2  0
144146  1  0
146147  2  0
147148  1  0
148149  2  0
149150  1  0
150151  2  0
151152  1  0
151153  1  0
153154  2  0
154155  1  0
155156  2  0
156157  1  0
157158  2  3
158159  1  0
159160  3  0
158161  1  0
161162  3  0
 13  2  1  0
 56 19  1  0
 99 57  1  0
141104  1  0
157143  1  0
 12  5  1  0
 28 22  1  0
 35 29  1  0
 55 36  2  0
 66 59  1  0
 98 67  2  0
113107  1  0
120114  1  0
140121  2  0
156146  1  0
 47 41  1  0
 54 48  1  0
 97 69  2  0
132126  1  0
139133  1  0
154148  1  0
 95 70  2  0
 75 71  2  0
 94 76  2  0
 92 77  2  0
 91 79  2  0
 88 81  1  0
  1163  1  0
  6164  1  0
 11165  1  0
 23166  1  0
 24167  1  0
 26168  1  0
 26169  1  0
 26170  1  0
 27171  1  0
 28172  1  0
 30173  1  0
 31174  1  0
 33175  1  0
 33176  1  0
 33177  1  0
 34178  1  0
 35179  1  0
 42180  1  0
 43181  1  0
 45182  1  0
 45183  1  0
 45184  1  0
 46185  1  0
 47186  1  0
 49187  1  0
 50188  1  0
 52189  1  0
 52190  1  0
 52191  1  0
 53192  1  0
 54193  1  0
 60194  1  0
 61195  1  0
 62196  1  0
 64197  1  0
 64198  1  0
 65199  1  0
 65200  1  0
 65201  1  0
 66202  1  0
 82203  1  0
 83204  1  0
 84205  1  0
 86206  1  0
 86207  1  0
 87208  1  0
 87209  1  0
 87210  1  0
 88211  1  0
100212  1  0
100213  1  0
101214  1  0
101215  1  0
101216  1  0
102217  1  0
102218  1  0
103219  1  0
103220  1  0
103221  1  0
108222  1  0
109223  1  0
111224  1  0
111225  1  0
111226  1  0
112227  1  0
113228  1  0
115229  1  0
116230  1  0
118231  1  0
118232  1  0
118233  1  0
119234  1  0
120235  1  0
127236  1  0
128237  1  0
130238  1  0
130239  1  0
130240  1  0
131241  1  0
132242  1  0
134243  1  0
135244  1  0
137245  1  0
137246  1  0
137247  1  0
138248  1  0
139249  1  0
142250  1  0
147251  1  0
149252  1  0
150253  1  0
153254  1  0
155255  1  0
M  END

