
     RDKit          3D

159175  0  0  0  0  0  0  0  0999 V2000
  -10.5953   -1.2684   -6.4896 C   0  0  0  0  0  0  0  0  0  0  0  0
   -9.6963   -2.0373   -7.2741 C   0  0  0  0  0  0  0  0  0  0  0  0
   -8.4449   -2.6902   -6.8394 C   0  0  0  0  0  0  0  0  0  0  0  0
   -8.1263   -3.0796   -5.6799 O   0  0  0  0  0  0  0  0  0  0  0  0
   -7.8013   -3.2023   -7.9927 C   0  0  0  0  0  0  0  0  0  0  0  0
   -6.5387   -3.7405   -8.0421 C   0  0  0  0  0  0  0  0  0  0  0  0
   -6.0140   -3.9718   -9.3166 C   0  0  0  0  0  0  0  0  0  0  0  0
   -4.7764   -4.4131   -9.4152 F   0  0  0  0  0  0  0  0  0  0  0  0
   -6.7519   -3.7190  -10.4970 C   0  0  0  0  0  0  0  0  0  0  0  0
   -6.3104   -3.9100  -11.7546 F   0  0  0  0  0  0  0  0  0  0  0  0
   -8.0980   -3.2423  -10.3884 C   0  0  0  0  0  0  0  0  0  0  0  0
   -8.6132   -2.9688   -9.1003 C   0  0  0  0  0  0  0  0  0  0  0  0
   -9.8718   -2.2646   -8.7311 C   0  0  0  0  0  0  0  0  0  0  0  0
  -10.4879   -1.4562   -9.6646 C   0  0  0  0  0  0  0  0  0  0  0  0
  -11.2979   -2.2050  -10.5972 C   0  0  0  0  0  0  0  0  0  0  0  0
  -11.7377   -2.9464  -11.3849 N   0  0  0  0  0  0  0  0  0  0  0  0
   -9.6811   -0.3614  -10.1598 C   0  0  0  0  0  0  0  0  0  0  0  0
   -8.8979    0.3640  -10.5854 N   0  0  0  0  0  0  0  0  0  0  0  0
  -10.2980   -0.6884   -5.1392 C   0  0  0  0  0  0  0  0  0  0  0  0
  -10.9780    0.4608   -4.5751 C   0  0  0  0  0  0  0  0  0  0  0  0
  -10.4105    0.9729   -3.3411 C   0  0  0  0  0  0  0  0  0  0  0  0
  -10.8979    2.5791   -2.6780 S   0  0  0  0  0  0  0  0  0  0  0  0
  -12.7155    2.2035   -2.6262 C   0  0  0  0  0  0  0  0  0  0  0  0
  -13.1784    1.4174   -1.3895 C   0  0  0  0  0  0  0  0  0  0  0  0
   -9.2512    0.2067   -2.9046 C   0  0  0  0  0  0  0  0  0  0  0  0
   -9.0543   -0.9869   -4.0466 S   0  0  0  0  0  0  0  0  0  0  0  0
   -8.0706    0.6128   -2.0126 C   0  0  0  0  0  0  0  0  0  0  0  0
   -8.1428    1.1948   -0.7035 C   0  0  0  0  0  0  0  0  0  0  0  0
   -9.3795    1.4945    0.0316 C   0  0  0  0  0  0  0  0  0  0  0  0
  -10.2349    0.4625    0.4155 C   0  0  0  0  0  0  0  0  0  0  0  0
  -11.2657    0.7783    1.3351 C   0  0  0  0  0  0  0  0  0  0  0  0
  -11.4471    2.1053    1.8294 C   0  0  0  0  0  0  0  0  0  0  0  0
  -10.5726    3.1226    1.3797 C   0  0  0  0  0  0  0  0  0  0  0  0
  -10.6775    4.5025    1.9453 C   0  0  0  0  0  0  0  0  0  0  0  0
   -9.7953    4.6584    3.1798 C   0  0  0  0  0  0  0  0  0  0  0  0
   -9.5388    2.8117    0.4829 C   0  0  0  0  0  0  0  0  0  0  0  0
   -6.8720    1.3658   -0.1509 C   0  0  0  0  0  0  0  0  0  0  0  0
   -6.3284    2.0019    1.3508 S   0  0  0  0  0  0  0  0  0  0  0  0
   -4.7267    1.6237    0.9374 C   0  0  0  0  0  0  0  0  0  0  0  0
   -3.4104    1.6967    1.4212 C   0  0  0  0  0  0  0  0  0  0  0  0
   -2.9337    2.2151    2.6478 C   0  0  0  0  0  0  0  0  0  0  0  0
   -1.5110    2.0806    2.9687 C   0  0  0  0  0  0  0  0  0  0  0  0
   -1.0999    2.5431    4.1735 N   0  0  0  0  0  0  0  0  0  0  0  0
   -2.5748    3.0755    4.7450 S   0  0  0  0  0  0  0  0  0  0  0  0
   -3.7100    2.7835    3.5903 N   0  0  0  0  0  0  0  0  0  0  0  0
   -0.6756    1.4426    2.0342 C   0  0  0  0  0  0  0  0  0  0  0  0
    0.6865    1.1038    2.1392 C   0  0  0  0  0  0  0  0  0  0  0  0
    1.9046    1.1385    3.2948 S   0  0  0  0  0  0  0  0  0  0  0  0
    2.8923    0.2261    2.2191 C   0  0  0  0  0  0  0  0  0  0  0  0
    4.1777   -0.2152    2.3839 C   0  0  0  0  0  0  0  0  0  0  0  0
    4.9466    0.0369    3.5742 C   0  0  0  0  0  0  0  0  0  0  0  0
    4.9789   -0.9572    4.6039 C   0  0  0  0  0  0  0  0  0  0  0  0
    5.5453   -0.6219    5.8495 C   0  0  0  0  0  0  0  0  0  0  0  0
    6.0741    0.6452    6.0551 C   0  0  0  0  0  0  0  0  0  0  0  0
    6.1068    1.6029    5.0560 C   0  0  0  0  0  0  0  0  0  0  0  0
    6.5135    3.0162    5.3805 C   0  0  0  0  0  0  0  0  0  0  0  0
    5.2694    3.8703    5.6050 C   0  0  0  0  0  0  0  0  0  0  0  0
    5.5528    1.3032    3.7748 C   0  0  0  0  0  0  0  0  0  0  0  0
    4.6270   -0.9785    1.3045 C   0  0  0  0  0  0  0  0  0  0  0  0
    3.3762   -1.0822    0.1168 S   0  0  0  0  0  0  0  0  0  0  0  0
    2.2958   -0.1275    1.0410 C   0  0  0  0  0  0  0  0  0  0  0  0
    1.0088    0.4089    0.9912 C   0  0  0  0  0  0  0  0  0  0  0  0
   -0.0263    0.3099    0.1259 N   0  0  0  0  0  0  0  0  0  0  0  0
   -1.1475    0.9437    0.7853 C   0  0  0  0  0  0  0  0  0  0  0  0
   -2.5574    1.0987    0.4571 C   0  0  0  0  0  0  0  0  0  0  0  0
   -3.3603    0.7082   -0.6339 N   0  0  0  0  0  0  0  0  0  0  0  0
   -4.6204    1.0240   -0.2774 C   0  0  0  0  0  0  0  0  0  0  0  0
   -5.8556    0.8962   -0.9380 C   0  0  0  0  0  0  0  0  0  0  0  0
   -6.4249    0.2470   -2.3792 S   0  0  0  0  0  0  0  0  0  0  0  0
   -3.0572    0.4183   -2.0314 C   0  0  0  0  0  0  0  0  0  0  0  0
   -2.7714    1.6904   -2.7870 C   0  0  0  0  0  0  0  0  0  0  0  0
    0.0775   -0.4208   -1.1024 C   0  0  0  0  0  0  0  0  0  0  0  0
   -0.4814   -1.8685   -0.8915 C   0  0  0  0  0  0  0  0  0  0  0  0
    6.0257   -1.5768    1.2896 C   0  0  0  0  0  0  0  0  0  0  0  0
    7.1267   -0.8666    0.7769 C   0  0  0  0  0  0  0  0  0  0  0  0
    6.9670    0.1502   -0.1648 O   0  0  0  0  0  0  0  0  0  0  0  0
    6.8512   -0.1518   -1.5473 C   0  0  0  0  0  0  0  0  0  0  0  0
    8.1871   -0.6601   -2.0816 C   0  0  0  0  0  0  0  0  0  0  0  0
    8.4728   -1.1202    1.2562 C   0  0  0  0  0  0  0  0  0  0  0  0
    9.5350   -0.2815    0.8562 O   0  0  0  0  0  0  0  0  0  0  0  0
    9.6168    1.0859    1.2739 C   0  0  0  0  0  0  0  0  0  0  0  0
   10.6676    1.8122    0.4240 C   0  0  0  0  0  0  0  0  0  0  0  0
    8.6972   -2.1514    2.1707 C   0  0  0  0  0  0  0  0  0  0  0  0
    7.6195   -2.9308    2.6155 C   0  0  0  0  0  0  0  0  0  0  0  0
    6.3097   -2.6919    2.1623 C   0  0  0  0  0  0  0  0  0  0  0  0
    5.3210   -3.5192    2.6569 N   0  0  0  0  0  0  0  0  0  0  0  0
    5.5597   -4.5168    3.5486 C   0  0  0  0  0  0  0  0  0  0  0  0
    6.8330   -4.7345    4.0170 C   0  0  0  0  0  0  0  0  0  0  0  0
    7.8306   -3.9462    3.5475 N   0  0  0  0  0  0  0  0  0  0  0  0
    9.9208   -2.3888    2.9819 C   0  0  0  0  0  0  0  0  0  0  0  0
   11.2395   -2.1088    2.7432 C   0  0  0  0  0  0  0  0  0  0  0  0
   11.9461   -2.2661    1.4731 C   0  0  0  0  0  0  0  0  0  0  0  0
   11.4462   -2.6987    0.4021 O   0  0  0  0  0  0  0  0  0  0  0  0
   13.3437   -2.1454    1.7962 C   0  0  0  0  0  0  0  0  0  0  0  0
   14.4419   -2.3578    0.9085 C   0  0  0  0  0  0  0  0  0  0  0  0
   15.7574   -2.1896    1.4218 C   0  0  0  0  0  0  0  0  0  0  0  0
   16.7696   -2.4372    0.6088 F   0  0  0  0  0  0  0  0  0  0  0  0
   15.9641   -1.7948    2.7566 C   0  0  0  0  0  0  0  0  0  0  0  0
   17.2524   -1.6845    3.2336 F   0  0  0  0  0  0  0  0  0  0  0  0
   14.8348   -1.5853    3.6540 C   0  0  0  0  0  0  0  0  0  0  0  0
   13.5435   -1.8342    3.1773 C   0  0  0  0  0  0  0  0  0  0  0  0
   12.2691   -1.8584    3.8858 C   0  0  0  0  0  0  0  0  0  0  0  0
   11.8940   -0.9278    4.9048 C   0  0  0  0  0  0  0  0  0  0  0  0
   12.5249   -0.6240    6.1789 C   0  0  0  0  0  0  0  0  0  0  0  0
   13.0114   -0.5165    7.2738 N   0  0  0  0  0  0  0  0  0  0  0  0
   10.5692   -0.6505    5.2064 C   0  0  0  0  0  0  0  0  0  0  0  0
    9.4614   -0.2381    5.3106 N   0  0  0  0  0  0  0  0  0  0  0  0
  -11.4807   -0.8304   -6.9576 H   0  0  0  0  0  0  0  0  0  0  0  0
   -5.9598   -3.8864   -7.1107 H   0  0  0  0  0  0  0  0  0  0  0  0
   -8.6520   -2.9195  -11.1891 H   0  0  0  0  0  0  0  0  0  0  0  0
  -11.7627    0.9418   -5.1700 H   0  0  0  0  0  0  0  0  0  0  0  0
  -13.1487    1.7486   -3.5424 H   0  0  0  0  0  0  0  0  0  0  0  0
  -13.2343    3.1762   -2.5365 H   0  0  0  0  0  0  0  0  0  0  0  0
  -13.1165    2.0270   -0.4552 H   0  0  0  0  0  0  0  0  0  0  0  0
  -12.5721    0.4996   -1.2951 H   0  0  0  0  0  0  0  0  0  0  0  0
  -14.2519    1.0812   -1.5218 H   0  0  0  0  0  0  0  0  0  0  0  0
  -10.1087   -0.5750    0.0943 H   0  0  0  0  0  0  0  0  0  0  0  0
  -11.9367   -0.0052    1.6743 H   0  0  0  0  0  0  0  0  0  0  0  0
  -12.2369    2.3382    2.5352 H   0  0  0  0  0  0  0  0  0  0  0  0
  -10.3943    5.2469    1.1855 H   0  0  0  0  0  0  0  0  0  0  0  0
  -11.7515    4.6748    2.2252 H   0  0  0  0  0  0  0  0  0  0  0  0
  -10.2036    5.4244    3.8735 H   0  0  0  0  0  0  0  0  0  0  0  0
   -9.6834    3.7028    3.7294 H   0  0  0  0  0  0  0  0  0  0  0  0
   -8.7621    4.9816    2.8738 H   0  0  0  0  0  0  0  0  0  0  0  0
   -8.8275    3.5907    0.1788 H   0  0  0  0  0  0  0  0  0  0  0  0
    4.5038   -1.9194    4.4457 H   0  0  0  0  0  0  0  0  0  0  0  0
    5.5269   -1.3442    6.6434 H   0  0  0  0  0  0  0  0  0  0  0  0
    6.4251    0.8975    7.0569 H   0  0  0  0  0  0  0  0  0  0  0  0
    7.1358    3.0106    6.3053 H   0  0  0  0  0  0  0  0  0  0  0  0
    7.1576    3.4194    4.5682 H   0  0  0  0  0  0  0  0  0  0  0  0
    4.9264    4.3249    4.6415 H   0  0  0  0  0  0  0  0  0  0  0  0
    4.4174    3.3046    6.0756 H   0  0  0  0  0  0  0  0  0  0  0  0
    5.5334    4.7001    6.2955 H   0  0  0  0  0  0  0  0  0  0  0  0
    5.4910    2.0385    2.9660 H   0  0  0  0  0  0  0  0  0  0  0  0
   -3.8464   -0.2098   -2.4938 H   0  0  0  0  0  0  0  0  0  0  0  0
   -2.3493   -0.3852   -2.1426 H   0  0  0  0  0  0  0  0  0  0  0  0
   -2.6865    1.4670   -3.8805 H   0  0  0  0  0  0  0  0  0  0  0  0
   -3.6605    2.4049   -2.6040 H   0  0  0  0  0  0  0  0  0  0  0  0
   -1.8521    2.2132   -2.3782 H   0  0  0  0  0  0  0  0  0  0  0  0
    1.1619   -0.5192   -1.3924 H   0  0  0  0  0  0  0  0  0  0  0  0
   -0.1564    0.2240   -1.9950 H   0  0  0  0  0  0  0  0  0  0  0  0
   -0.4568   -2.1480    0.2078 H   0  0  0  0  0  0  0  0  0  0  0  0
   -1.4982   -2.0416   -1.2719 H   0  0  0  0  0  0  0  0  0  0  0  0
    0.2122   -2.5895   -1.4055 H   0  0  0  0  0  0  0  0  0  0  0  0
    6.5755    0.8187   -2.0421 H   0  0  0  0  0  0  0  0  0  0  0  0
    6.0521   -0.9139   -1.6885 H   0  0  0  0  0  0  0  0  0  0  0  0
    8.9766    0.0757   -1.8801 H   0  0  0  0  0  0  0  0  0  0  0  0
    8.0672   -0.8596   -3.1612 H   0  0  0  0  0  0  0  0  0  0  0  0
    8.4741   -1.6449   -1.6057 H   0  0  0  0  0  0  0  0  0  0  0  0
    8.6172    1.5766    1.1511 H   0  0  0  0  0  0  0  0  0  0  0  0
    9.9291    1.0964    2.3514 H   0  0  0  0  0  0  0  0  0  0  0  0
   11.4309    1.1044    0.0186 H   0  0  0  0  0  0  0  0  0  0  0  0
   10.2043    2.3193   -0.4617 H   0  0  0  0  0  0  0  0  0  0  0  0
   11.1842    2.5633    1.0607 H   0  0  0  0  0  0  0  0  0  0  0  0
    4.7181   -5.1354    3.8419 H   0  0  0  0  0  0  0  0  0  0  0  0
    7.0835   -5.5679    4.7100 H   0  0  0  0  0  0  0  0  0  0  0  0
    9.7341   -2.7501    3.9588 H   0  0  0  0  0  0  0  0  0  0  0  0
   14.2863   -2.6967   -0.1335 H   0  0  0  0  0  0  0  0  0  0  0  0
   15.0750   -1.2953    4.6790 H   0  0  0  0  0  0  0  0  0  0  0  0
  1  2  2  3
  2  3  1  0
  3  4  2  0
  3  5  1  0
  5  6  2  0
  6  7  1  0
  7  8  1  0
  7  9  2  0
  9 10  1  0
  9 11  1  0
 11 12  2  0
 12 13  1  0
 13 14  2  3
 14 15  1  0
 15 16  3  0
 14 17  1  0
 17 18  3  0
  1 19  1  0
 19 20  2  0
 20 21  1  0
 21 22  1  0
 22 23  1  0
 23 24  1  0
 21 25  2  0
 25 26  1  0
 25 27  1  0
 27 28  2  0
 28 29  1  0
 29 30  2  0
 30 31  1  0
 31 32  2  0
 32 33  1  0
 33 34  1  0
 34 35  1  0
 33 36  2  0
 28 37  1  0
 37 38  1  0
 38 39  1  0
 39 40  1  0
 40 41  1  0
 41 42  1  0
 42 43  2  0
 43 44  1  0
 44 45  1  0
 42 46  1  0
 46 47  1  0
 47 48  1  0
 48 49  1  0
 49 50  1  0
 50 51  1  0
 51 52  2  0
 52 53  1  0
 53 54  2  0
 54 55  1  0
 55 56  1  0
 56 57  1  0
 55 58  2  0
 50 59  2  0
 59 60  1  0
 60 61  1  0
 61 62  1  0
 62 63  1  0
 63 64  1  0
 64 65  1  0
 65 66  1  0
 66 67  1  0
 67 68  1  0
 68 69  1  0
 66 70  1  0
 70 71  1  0
 63 72  1  0
 72 73  1  0
 59 74  1  0
 74 75  2  0
 75 76  1  0
 76 77  1  0
 77 78  1  0
 75 79  1  0
 79 80  1  0
 80 81  1  0
 81 82  1  0
 79 83  2  0
 83 84  1  0
 84 85  2  0
 85 86  1  0
 86 87  2  0
 87 88  1  0
 88 89  2  0
 83 90  1  0
 90 91  2  3
 91 92  1  0
 92 93  2  0
 92 94  1  0
 94 95  2  0
 95 96  1  0
 96 97  1  0
 96 98  2  0
 98 99  1  0
 98100  1  0
100101  2  0
101102  1  0
102103  2  3
103104  1  0
104105  3  0
103106  1  0
106107  3  0
 13  2  1  0
 26 19  1  0
 69 27  1  0
 85 74  1  0
102 91  1  0
 12  5  1  0
 36 29  1  0
 68 37  2  0
 89 84  1  0
101 94  1  0
 67 39  2  0
 65 40  2  0
 45 41  2  0
 64 46  2  0
 62 47  2  0
 61 49  2  0
 58 51  1  0
  1108  1  0
  6109  1  0
 11110  1  0
 20111  1  0
 23112  1  0
 23113  1  0
 24114  1  0
 24115  1  0
 24116  1  0
 30117  1  0
 31118  1  0
 32119  1  0
 34120  1  0
 34121  1  0
 35122  1  0
 35123  1  0
 35124  1  0
 36125  1  0
 52126  1  0
 53127  1  0
 54128  1  0
 56129  1  0
 56130  1  0
 57131  1  0
 57132  1  0
 57133  1  0
 58134  1  0
 70135  1  0
 70136  1  0
 71137  1  0
 71138  1  0
 71139  1  0
 72140  1  0
 72141  1  0
 73142  1  0
 73143  1  0
 73144  1  0
 77145  1  0
 77146  1  0
 78147  1  0
 78148  1  0
 78149  1  0
 81150  1  0
 81151  1  0
 82152  1  0
 82153  1  0
 82154  1  0
 87155  1  0
 88156  1  0
 90157  1  0
 95158  1  0
100159  1  0
M  END

