
     RDKit          3D

212234  0  0  0  0  0  0  0  0999 V2000
   -9.6631   -7.0468    3.6465 C   0  0  0  0  0  0  0  0  0  0  0  0
   -9.3223   -6.7808    4.9224 C   0  0  0  0  0  0  0  0  0  0  0  0
   -8.1137   -6.0689    5.3614 C   0  0  0  0  0  0  0  0  0  0  0  0
   -7.1695   -5.6996    4.6170 O   0  0  0  0  0  0  0  0  0  0  0  0
   -8.2463   -5.7465    6.7776 C   0  0  0  0  0  0  0  0  0  0  0  0
   -9.4801   -6.2079    7.2176 C   0  0  0  0  0  0  0  0  0  0  0  0
   -9.9416   -5.8738    8.4977 C   0  0  0  0  0  0  0  0  0  0  0  0
   -9.1120   -5.1495    9.3619 C   0  0  0  0  0  0  0  0  0  0  0  0
   -7.8385   -4.7232    8.9424 C   0  0  0  0  0  0  0  0  0  0  0  0
   -7.0122   -4.0005    9.8173 C   0  0  0  0  0  0  0  0  0  0  0  0
   -5.7526   -3.5687    9.4029 C   0  0  0  0  0  0  0  0  0  0  0  0
   -5.3075   -3.8413    8.1053 C   0  0  0  0  0  0  0  0  0  0  0  0
   -6.1176   -4.5561    7.2202 C   0  0  0  0  0  0  0  0  0  0  0  0
   -7.3889   -5.0081    7.6208 C   0  0  0  0  0  0  0  0  0  0  0  0
  -10.1687   -6.9694    6.1369 C   0  0  0  0  0  0  0  0  0  0  0  0
  -11.1757   -7.8699    6.2987 C   0  0  0  0  0  0  0  0  0  0  0  0
  -11.7244   -8.1967    7.5855 C   0  0  0  0  0  0  0  0  0  0  0  0
  -12.1663   -8.4774    8.6154 N   0  0  0  0  0  0  0  0  0  0  0  0
  -11.6498   -8.7036    5.2261 C   0  0  0  0  0  0  0  0  0  0  0  0
  -12.0386   -9.3820    4.3743 N   0  0  0  0  0  0  0  0  0  0  0  0
   -8.7320   -6.9064    2.5173 C   0  0  0  0  0  0  0  0  0  0  0  0
   -8.9606   -5.8850    1.1818 S   0  0  0  0  0  0  0  0  0  0  0  0
   -7.4773   -6.1840    0.4121 C   0  0  0  0  0  0  0  0  0  0  0  0
   -6.8144   -7.1000    1.2219 C   0  0  0  0  0  0  0  0  0  0  0  0
   -5.2780   -7.7744    1.2001 S   0  0  0  0  0  0  0  0  0  0  0  0
   -5.4758   -8.6207    2.6595 C   0  0  0  0  0  0  0  0  0  0  0  0
   -4.4125   -9.4022    3.3116 C   0  0  0  0  0  0  0  0  0  0  0  0
   -3.3219   -9.5956    2.7070 O   0  0  0  0  0  0  0  0  0  0  0  0
   -4.6062   -9.8983    4.6050 O   0  0  0  0  0  0  0  0  0  0  0  0
   -3.5748  -10.5199    5.3694 C   0  0  0  0  0  0  0  0  0  0  0  0
   -2.5989   -9.4760    5.8983 C   0  0  0  0  0  0  0  0  0  0  0  0
   -6.7535   -8.3723    3.1762 C   0  0  0  0  0  0  0  0  0  0  0  0
   -7.4862   -7.5001    2.3598 C   0  0  0  0  0  0  0  0  0  0  0  0
   -7.2142   -8.8862    4.3418 F   0  0  0  0  0  0  0  0  0  0  0  0
   -6.9290   -5.4469   -0.7365 C   0  0  0  0  0  0  0  0  0  0  0  0
   -5.4213   -5.7806   -1.4440 S   0  0  0  0  0  0  0  0  0  0  0  0
   -5.3951   -4.3750   -2.3388 C   0  0  0  0  0  0  0  0  0  0  0  0
   -4.3764   -3.5238   -2.6400 C   0  0  0  0  0  0  0  0  0  0  0  0
   -2.7439   -3.5784   -2.2110 S   0  0  0  0  0  0  0  0  0  0  0  0
   -2.7059   -1.8954   -2.0717 C   0  0  0  0  0  0  0  0  0  0  0  0
   -1.6297   -0.9630   -2.1674 C   0  0  0  0  0  0  0  0  0  0  0  0
   -2.1569    0.2412   -2.6253 C   0  0  0  0  0  0  0  0  0  0  0  0
   -3.6633    0.1261   -2.8827 C   0  0  0  0  0  0  0  0  0  0  0  0
   -4.0075    0.1157   -4.3853 C   0  0  0  0  0  0  0  0  0  0  0  0
   -5.3433    0.2820   -4.8130 C   0  0  0  0  0  0  0  0  0  0  0  0
   -5.6951    0.1504   -6.1573 C   0  0  0  0  0  0  0  0  0  0  0  0
   -4.7263   -0.1898   -7.1156 C   0  0  0  0  0  0  0  0  0  0  0  0
   -5.0183   -0.3724   -8.4773 O   0  0  0  0  0  0  0  0  0  0  0  0
   -6.2926   -0.1756   -9.0892 C   0  0  0  0  0  0  0  0  0  0  0  0
   -6.5385    1.3057   -9.3547 C   0  0  0  0  0  0  0  0  0  0  0  0
   -3.4053   -0.3847   -6.7003 C   0  0  0  0  0  0  0  0  0  0  0  0
   -3.0472   -0.2408   -5.3588 C   0  0  0  0  0  0  0  0  0  0  0  0
   -4.3441    1.2352   -2.0695 C   0  0  0  0  0  0  0  0  0  0  0  0
   -4.7011    2.4618   -2.6694 C   0  0  0  0  0  0  0  0  0  0  0  0
   -5.2390    3.5001   -1.9075 C   0  0  0  0  0  0  0  0  0  0  0  0
   -5.3920    3.3579   -0.5182 C   0  0  0  0  0  0  0  0  0  0  0  0
   -5.9378    4.3670    0.2873 O   0  0  0  0  0  0  0  0  0  0  0  0
   -6.3230    5.6552   -0.1918 C   0  0  0  0  0  0  0  0  0  0  0  0
   -6.8543    6.4854    0.9647 C   0  0  0  0  0  0  0  0  0  0  0  0
   -4.9726    2.1718    0.0936 C   0  0  0  0  0  0  0  0  0  0  0  0
   -4.4258    1.1349   -0.6684 C   0  0  0  0  0  0  0  0  0  0  0  0
   -3.9084   -1.2828   -2.3343 C   0  0  0  0  0  0  0  0  0  0  0  0
   -4.8953   -2.2454   -2.6153 C   0  0  0  0  0  0  0  0  0  0  0  0
   -6.1981   -2.2707   -2.2108 N   0  0  0  0  0  0  0  0  0  0  0  0
   -6.4796   -3.5958   -2.0569 C   0  0  0  0  0  0  0  0  0  0  0  0
   -7.3905   -4.1966   -1.1770 C   0  0  0  0  0  0  0  0  0  0  0  0
   -6.9562   -1.1662   -1.6040 C   0  0  0  0  0  0  0  0  0  0  0  0
   -6.7485   -1.1234   -0.0893 C   0  0  0  0  0  0  0  0  0  0  0  0
   -1.3535    1.3951   -2.6555 C   0  0  0  0  0  0  0  0  0  0  0  0
   -0.0442    1.2672   -2.1691 C   0  0  0  0  0  0  0  0  0  0  0  0
    0.9246    2.2822   -1.8818 C   0  0  0  0  0  0  0  0  0  0  0  0
    1.9906    1.7317   -1.2104 C   0  0  0  0  0  0  0  0  0  0  0  0
    1.8484    0.2265   -1.0390 C   0  0  0  0  0  0  0  0  0  0  0  0
    0.4669    0.0601   -1.6744 C   0  0  0  0  0  0  0  0  0  0  0  0
   -0.3286   -1.0914   -1.6794 C   0  0  0  0  0  0  0  0  0  0  0  0
    2.8473   -0.5854   -1.8876 C   0  0  0  0  0  0  0  0  0  0  0  0
    2.8920   -1.9918   -1.7770 C   0  0  0  0  0  0  0  0  0  0  0  0
    3.7344   -2.7529   -2.5912 C   0  0  0  0  0  0  0  0  0  0  0  0
    4.5227   -2.1358   -3.5756 C   0  0  0  0  0  0  0  0  0  0  0  0
    5.3592   -2.8554   -4.4505 O   0  0  0  0  0  0  0  0  0  0  0  0
    5.6136   -4.2591   -4.3915 C   0  0  0  0  0  0  0  0  0  0  0  0
    6.6139   -4.5781   -3.2877 C   0  0  0  0  0  0  0  0  0  0  0  0
    4.4610   -0.7473   -3.7158 C   0  0  0  0  0  0  0  0  0  0  0  0
    3.6298    0.0194   -2.8969 C   0  0  0  0  0  0  0  0  0  0  0  0
    1.7997   -0.1133    0.4651 C   0  0  0  0  0  0  0  0  0  0  0  0
    0.7329    0.3702    1.2567 C   0  0  0  0  0  0  0  0  0  0  0  0
    0.6648    0.0956    2.6236 C   0  0  0  0  0  0  0  0  0  0  0  0
    1.6655   -0.6487    3.2502 C   0  0  0  0  0  0  0  0  0  0  0  0
    1.5474   -0.9027    4.6270 O   0  0  0  0  0  0  0  0  0  0  0  0
    2.4895   -1.6527    5.3906 C   0  0  0  0  0  0  0  0  0  0  0  0
    2.0002   -1.7707    6.8252 C   0  0  0  0  0  0  0  0  0  0  0  0
    2.7472   -1.1174    2.4855 C   0  0  0  0  0  0  0  0  0  0  0  0
    2.8134   -0.8510    1.1145 C   0  0  0  0  0  0  0  0  0  0  0  0
    2.9390    2.7148   -0.9469 C   0  0  0  0  0  0  0  0  0  0  0  0
    2.5702    3.9455   -1.4266 C   0  0  0  0  0  0  0  0  0  0  0  0
    1.0775    3.9491   -2.2221 S   0  0  0  0  0  0  0  0  0  0  0  0
    3.6446    4.7633   -1.2228 C   0  0  0  0  0  0  0  0  0  0  0  0
    4.2345    6.2689   -1.6531 S   0  0  0  0  0  0  0  0  0  0  0  0
    5.7722    5.9267   -0.9639 C   0  0  0  0  0  0  0  0  0  0  0  0
    5.8199    4.6184   -0.4574 C   0  0  0  0  0  0  0  0  0  0  0  0
    4.5923    4.0037   -0.6223 C   0  0  0  0  0  0  0  0  0  0  0  0
    4.2032    2.7190   -0.4485 N   0  0  0  0  0  0  0  0  0  0  0  0
    4.9880    1.6375    0.1404 C   0  0  0  0  0  0  0  0  0  0  0  0
    4.9038    1.7002    1.6608 C   0  0  0  0  0  0  0  0  0  0  0  0
    6.9573    6.7782   -1.1107 C   0  0  0  0  0  0  0  0  0  0  0  0
    7.5342    7.3323   -2.6024 S   0  0  0  0  0  0  0  0  0  0  0  0
    9.1252    7.7078   -2.1364 C   0  0  0  0  0  0  0  0  0  0  0  0
    9.1934    7.3433   -0.7965 C   0  0  0  0  0  0  0  0  0  0  0  0
   10.4796    7.1347    0.2695 S   0  0  0  0  0  0  0  0  0  0  0  0
    9.5290    6.4205    1.4911 C   0  0  0  0  0  0  0  0  0  0  0  0
   10.0469    5.8525    2.7428 C   0  0  0  0  0  0  0  0  0  0  0  0
   11.2389    6.0725    3.0891 O   0  0  0  0  0  0  0  0  0  0  0  0
    9.2196    5.0319    3.5197 O   0  0  0  0  0  0  0  0  0  0  0  0
    9.6723    4.3429    4.6786 C   0  0  0  0  0  0  0  0  0  0  0  0
    8.5604    3.4436    5.1966 C   0  0  0  0  0  0  0  0  0  0  0  0
    8.2012    6.3388    1.0556 C   0  0  0  0  0  0  0  0  0  0  0  0
    8.0371    6.8386   -0.2371 C   0  0  0  0  0  0  0  0  0  0  0  0
    7.2008    5.8062    1.7995 F   0  0  0  0  0  0  0  0  0  0  0  0
   10.2943    7.8447   -3.0274 C   0  0  0  0  0  0  0  0  0  0  0  0
   10.2530    8.1680   -4.3344 C   0  0  0  0  0  0  0  0  0  0  0  0
    9.2457    9.0131   -4.9947 C   0  0  0  0  0  0  0  0  0  0  0  0
    8.2178    9.4970   -4.4486 O   0  0  0  0  0  0  0  0  0  0  0  0
    9.7559    9.3964   -6.3109 C   0  0  0  0  0  0  0  0  0  0  0  0
   11.0302    8.8621   -6.4630 C   0  0  0  0  0  0  0  0  0  0  0  0
   11.8188    9.2118   -7.5695 C   0  0  0  0  0  0  0  0  0  0  0  0
   11.2827   10.0401   -8.5591 C   0  0  0  0  0  0  0  0  0  0  0  0
    9.9682   10.5347   -8.4465 C   0  0  0  0  0  0  0  0  0  0  0  0
    9.4343   11.3392   -9.4620 C   0  0  0  0  0  0  0  0  0  0  0  0
    8.1304   11.8248   -9.3587 C   0  0  0  0  0  0  0  0  0  0  0  0
    7.3501   11.5093   -8.2460 C   0  0  0  0  0  0  0  0  0  0  0  0
    7.8678   10.7118   -7.2223 C   0  0  0  0  0  0  0  0  0  0  0  0
    9.1831   10.2207   -7.3027 C   0  0  0  0  0  0  0  0  0  0  0  0
   11.3652    7.9863   -5.3093 C   0  0  0  0  0  0  0  0  0  0  0  0
   12.2907    6.9870   -5.2910 C   0  0  0  0  0  0  0  0  0  0  0  0
   12.3157    5.9811   -4.2609 C   0  0  0  0  0  0  0  0  0  0  0  0
   12.3383    5.1711   -3.4350 N   0  0  0  0  0  0  0  0  0  0  0  0
   13.2080    6.7563   -6.3723 C   0  0  0  0  0  0  0  0  0  0  0  0
   13.9565    6.5514   -7.2346 N   0  0  0  0  0  0  0  0  0  0  0  0
  -10.6830   -7.2737    3.3947 H   0  0  0  0  0  0  0  0  0  0  0  0
  -10.9342   -6.1322    8.8326 H   0  0  0  0  0  0  0  0  0  0  0  0
   -9.4715   -4.9059   10.3551 H   0  0  0  0  0  0  0  0  0  0  0  0
   -7.3458   -3.7720   10.8232 H   0  0  0  0  0  0  0  0  0  0  0  0
   -5.1196   -3.0151   10.0823 H   0  0  0  0  0  0  0  0  0  0  0  0
   -4.3303   -3.5002    7.7892 H   0  0  0  0  0  0  0  0  0  0  0  0
   -5.7231   -4.7565    6.2358 H   0  0  0  0  0  0  0  0  0  0  0  0
   -3.0363  -11.2721    4.7531 H   0  0  0  0  0  0  0  0  0  0  0  0
   -4.0457  -11.0465    6.2294 H   0  0  0  0  0  0  0  0  0  0  0  0
   -1.8089   -9.9742    6.5002 H   0  0  0  0  0  0  0  0  0  0  0  0
   -2.1286   -8.9257    5.0566 H   0  0  0  0  0  0  0  0  0  0  0  0
   -3.1276   -8.7591    6.5539 H   0  0  0  0  0  0  0  0  0  0  0  0
   -6.1264    0.5208   -4.1068 H   0  0  0  0  0  0  0  0  0  0  0  0
   -6.7273    0.3116   -6.4363 H   0  0  0  0  0  0  0  0  0  0  0  0
   -6.2949   -0.7086  -10.0608 H   0  0  0  0  0  0  0  0  0  0  0  0
   -7.1062   -0.6117   -8.4721 H   0  0  0  0  0  0  0  0  0  0  0  0
   -6.5995    1.8701   -8.4016 H   0  0  0  0  0  0  0  0  0  0  0  0
   -5.7106    1.7223   -9.9666 H   0  0  0  0  0  0  0  0  0  0  0  0
   -7.4956    1.4287   -9.9063 H   0  0  0  0  0  0  0  0  0  0  0  0
   -2.6519   -0.6666   -7.4232 H   0  0  0  0  0  0  0  0  0  0  0  0
   -2.0187   -0.4374   -5.0878 H   0  0  0  0  0  0  0  0  0  0  0  0
   -4.5485    2.6330   -3.7254 H   0  0  0  0  0  0  0  0  0  0  0  0
   -5.5118    4.4176   -2.4092 H   0  0  0  0  0  0  0  0  0  0  0  0
   -5.4456    6.1692   -0.6406 H   0  0  0  0  0  0  0  0  0  0  0  0
   -7.1252    5.5483   -0.9547 H   0  0  0  0  0  0  0  0  0  0  0  0
   -7.7595    6.0050    1.3961 H   0  0  0  0  0  0  0  0  0  0  0  0
   -6.0803    6.5751    1.7570 H   0  0  0  0  0  0  0  0  0  0  0  0
   -7.1254    7.5036    0.6071 H   0  0  0  0  0  0  0  0  0  0  0  0
   -5.0435    2.0645    1.1680 H   0  0  0  0  0  0  0  0  0  0  0  0
   -4.0442    0.2645   -0.1549 H   0  0  0  0  0  0  0  0  0  0  0  0
   -8.2414   -3.6909   -0.7459 H   0  0  0  0  0  0  0  0  0  0  0  0
   -6.6377   -0.2026   -2.0399 H   0  0  0  0  0  0  0  0  0  0  0  0
   -8.0393   -1.2856   -1.8273 H   0  0  0  0  0  0  0  0  0  0  0  0
   -7.3718   -1.8840    0.4179 H   0  0  0  0  0  0  0  0  0  0  0  0
   -5.6869   -1.3103    0.1661 H   0  0  0  0  0  0  0  0  0  0  0  0
   -7.0421   -0.1233    0.2957 H   0  0  0  0  0  0  0  0  0  0  0  0
   -1.7494    2.3572   -2.9632 H   0  0  0  0  0  0  0  0  0  0  0  0
    0.0059   -2.0186   -1.2341 H   0  0  0  0  0  0  0  0  0  0  0  0
    2.2798   -2.5083   -1.0508 H   0  0  0  0  0  0  0  0  0  0  0  0
    3.7504   -3.8234   -2.4491 H   0  0  0  0  0  0  0  0  0  0  0  0
    6.0512   -4.5756   -5.3629 H   0  0  0  0  0  0  0  0  0  0  0  0
    4.6697   -4.8291   -4.2515 H   0  0  0  0  0  0  0  0  0  0  0  0
    6.7779   -5.6755   -3.2387 H   0  0  0  0  0  0  0  0  0  0  0  0
    6.2413   -4.2220   -2.3051 H   0  0  0  0  0  0  0  0  0  0  0  0
    7.5810   -4.0748   -3.5013 H   0  0  0  0  0  0  0  0  0  0  0  0
    5.0511   -0.2574   -4.4799 H   0  0  0  0  0  0  0  0  0  0  0  0
    3.5942    1.0848   -3.0797 H   0  0  0  0  0  0  0  0  0  0  0  0
   -0.0542    0.9646    0.8123 H   0  0  0  0  0  0  0  0  0  0  0  0
   -0.1693    0.4692    3.2006 H   0  0  0  0  0  0  0  0  0  0  0  0
    2.5976   -2.6724    4.9616 H   0  0  0  0  0  0  0  0  0  0  0  0
    3.4779   -1.1423    5.3801 H   0  0  0  0  0  0  0  0  0  0  0  0
    2.7326   -2.3511    7.4248 H   0  0  0  0  0  0  0  0  0  0  0  0
    1.8914   -0.7596    7.2733 H   0  0  0  0  0  0  0  0  0  0  0  0
    1.0195   -2.2929    6.8506 H   0  0  0  0  0  0  0  0  0  0  0  0
    3.5497   -1.6850    2.9406 H   0  0  0  0  0  0  0  0  0  0  0  0
    3.6748   -1.2222    0.5827 H   0  0  0  0  0  0  0  0  0  0  0  0
    6.7083    4.1278   -0.0822 H   0  0  0  0  0  0  0  0  0  0  0  0
    6.0500    1.7258   -0.1732 H   0  0  0  0  0  0  0  0  0  0  0  0
    4.6305    0.6664   -0.2297 H   0  0  0  0  0  0  0  0  0  0  0  0
    3.8405    1.7101    1.9844 H   0  0  0  0  0  0  0  0  0  0  0  0
    5.4049    0.8114    2.1048 H   0  0  0  0  0  0  0  0  0  0  0  0
    5.4016    2.6200    2.0338 H   0  0  0  0  0  0  0  0  0  0  0  0
   10.5495    3.7164    4.4153 H   0  0  0  0  0  0  0  0  0  0  0  0
    9.9557    5.0775    5.4621 H   0  0  0  0  0  0  0  0  0  0  0  0
    7.6751    4.0518    5.4812 H   0  0  0  0  0  0  0  0  0  0  0  0
    8.9102    2.8681    6.0825 H   0  0  0  0  0  0  0  0  0  0  0  0
    8.2654    2.7278    4.3956 H   0  0  0  0  0  0  0  0  0  0  0  0
   11.2404    7.5501   -2.5936 H   0  0  0  0  0  0  0  0  0  0  0  0
   12.8439    8.8933   -7.6700 H   0  0  0  0  0  0  0  0  0  0  0  0
   11.8949   10.2923   -9.4170 H   0  0  0  0  0  0  0  0  0  0  0  0
   10.0247   11.5969  -10.3320 H   0  0  0  0  0  0  0  0  0  0  0  0
    7.7246   12.4492  -10.1432 H   0  0  0  0  0  0  0  0  0  0  0  0
    6.3353   11.8806   -8.1792 H   0  0  0  0  0  0  0  0  0  0  0  0
    7.2195   10.4736   -6.3938 H   0  0  0  0  0  0  0  0  0  0  0  0
  1  2  2  3
  2  3  1  0
  3  4  2  0
  3  5  1  0
  5  6  2  0
  6  7  1  0
  7  8  2  0
  8  9  1  0
  9 10  2  0
 10 11  1  0
 11 12  2  0
 12 13  1  0
 13 14  2  0
  6 15  1  0
 15 16  2  3
 16 17  1  0
 17 18  3  0
 16 19  1  0
 19 20  3  0
  1 21  1  0
 21 22  1  0
 22 23  1  0
 23 24  2  0
 24 25  1  0
 25 26  1  0
 26 27  1  0
 27 28  2  0
 27 29  1  0
 29 30  1  0
 30 31  1  0
 26 32  2  0
 32 33  1  0
 32 34  1  0
 23 35  1  0
 35 36  1  0
 36 37  1  0
 37 38  1  0
 38 39  1  0
 39 40  1  0
 40 41  1  0
 41 42  2  0
 42 43  1  0
 43 44  1  0
 44 45  2  0
 45 46  1  0
 46 47  2  0
 47 48  1  0
 48 49  1  0
 49 50  1  0
 47 51  1  0
 51 52  2  0
 43 53  1  0
 53 54  2  0
 54 55  1  0
 55 56  2  0
 56 57  1  0
 57 58  1  0
 58 59  1  0
 56 60  1  0
 60 61  2  0
 43 62  1  0
 62 63  1  0
 63 64  1  0
 64 65  1  0
 65 66  1  0
 64 67  1  0
 67 68  1  0
 42 69  1  0
 69 70  2  0
 70 71  1  0
 71 72  2  0
 72 73  1  0
 73 74  1  0
 74 75  2  0
 73 76  1  0
 76 77  2  0
 77 78  1  0
 78 79  2  0
 79 80  1  0
 80 81  1  0
 81 82  1  0
 79 83  1  0
 83 84  2  0
 73 85  1  0
 85 86  2  0
 86 87  1  0
 87 88  2  0
 88 89  1  0
 89 90  1  0
 90 91  1  0
 88 92  1  0
 92 93  2  0
 72 94  1  0
 94 95  2  0
 95 96  1  0
 95 97  1  0
 97 98  1  0
 98 99  1  0
 99100  2  0
100101  1  0
101102  1  0
102103  1  0
103104  1  0
 99105  1  0
105106  1  0
106107  1  0
107108  2  0
108109  1  0
109110  1  0
110111  1  0
111112  2  0
111113  1  0
113114  1  0
114115  1  0
110116  2  0
116117  1  0
116118  1  0
107119  1  0
119120  2  3
120121  1  0
121122  2  0
121123  1  0
123124  2  0
124125  1  0
125126  2  0
126127  1  0
127128  2  0
128129  1  0
129130  2  0
130131  1  0
131132  2  0
124133  1  0
133134  2  3
134135  1  0
135136  3  0
134137  1  0
137138  3  0
 15  2  1  0
 33 21  2  0
 66 35  2  0
 74 70  1  0
 84 76  1  0
 93 85  1  0
102 94  1  0
117105  2  0
133120  1  0
 14  5  1  0
 33 24  1  0
 65 37  2  0
 96 71  1  0
101 97  2  0
117108  1  0
132123  1  0
 14  9  1  0
 63 38  2  0
132127  1  0
 62 40  2  0
 75 41  1  0
 52 44  1  0
 61 53  1  0
  1139  1  0
  7140  1  0
  8141  1  0
 10142  1  0
 11143  1  0
 12144  1  0
 13145  1  0
 30146  1  0
 30147  1  0
 31148  1  0
 31149  1  0
 31150  1  0
 45151  1  0
 46152  1  0
 49153  1  0
 49154  1  0
 50155  1  0
 50156  1  0
 50157  1  0
 51158  1  0
 52159  1  0
 54160  1  0
 55161  1  0
 58162  1  0
 58163  1  0
 59164  1  0
 59165  1  0
 59166  1  0
 60167  1  0
 61168  1  0
 66169  1  0
 67170  1  0
 67171  1  0
 68172  1  0
 68173  1  0
 68174  1  0
 69175  1  0
 75176  1  0
 77177  1  0
 78178  1  0
 81179  1  0
 81180  1  0
 82181  1  0
 82182  1  0
 82183  1  0
 83184  1  0
 84185  1  0
 86186  1  0
 87187  1  0
 90188  1  0
 90189  1  0
 91190  1  0
 91191  1  0
 91192  1  0
 92193  1  0
 93194  1  0
100195  1  0
103196  1  0
103197  1  0
104198  1  0
104199  1  0
104200  1  0
114201  1  0
114202  1  0
115203  1  0
115204  1  0
115205  1  0
119206  1  0
125207  1  0
126208  1  0
128209  1  0
129210  1  0
130211  1  0
131212  1  0
M  END

