
     RDKit          3D

215239  0  0  0  0  0  0  0  0999 V2000
    4.8066   -1.7673    3.4478 C   0  0  0  0  0  0  0  0  0  0  0  0
    3.9338   -2.6405    2.8988 C   0  0  0  0  0  0  0  0  0  0  0  0
    2.5510   -2.3176    2.5296 C   0  0  0  0  0  0  0  0  0  0  0  0
    2.0846   -1.1562    2.3920 O   0  0  0  0  0  0  0  0  0  0  0  0
    1.8155   -3.5511    2.3015 C   0  0  0  0  0  0  0  0  0  0  0  0
    2.7023   -4.6142    2.4236 C   0  0  0  0  0  0  0  0  0  0  0  0
    2.2210   -5.9312    2.4341 C   0  0  0  0  0  0  0  0  0  0  0  0
    0.8564   -6.1689    2.2386 C   0  0  0  0  0  0  0  0  0  0  0  0
   -0.0455   -5.1006    2.0956 C   0  0  0  0  0  0  0  0  0  0  0  0
   -1.4239   -5.3552    1.9894 C   0  0  0  0  0  0  0  0  0  0  0  0
   -2.3327   -4.2985    1.9426 C   0  0  0  0  0  0  0  0  0  0  0  0
   -1.8804   -2.9806    1.9906 C   0  0  0  0  0  0  0  0  0  0  0  0
   -0.5109   -2.7047    2.0851 C   0  0  0  0  0  0  0  0  0  0  0  0
    0.4232   -3.7585    2.1433 C   0  0  0  0  0  0  0  0  0  0  0  0
    4.0863   -4.1123    2.7026 C   0  0  0  0  0  0  0  0  0  0  0  0
    5.2364   -4.8348    2.6473 C   0  0  0  0  0  0  0  0  0  0  0  0
    6.5318   -4.2749    2.9345 C   0  0  0  0  0  0  0  0  0  0  0  0
    7.5781   -3.8481    3.1790 N   0  0  0  0  0  0  0  0  0  0  0  0
    5.2669   -6.2058    2.2112 C   0  0  0  0  0  0  0  0  0  0  0  0
    5.3070   -7.3066    1.8552 N   0  0  0  0  0  0  0  0  0  0  0  0
    4.3855   -0.4181    3.8465 C   0  0  0  0  0  0  0  0  0  0  0  0
    3.4822   -0.1406    4.8798 C   0  0  0  0  0  0  0  0  0  0  0  0
    3.3152   -0.9940    6.0201 N   0  0  0  0  0  0  0  0  0  0  0  0
    2.4563   -2.1405    5.9177 C   0  0  0  0  0  0  0  0  0  0  0  0
    1.1088   -1.9892    5.5495 C   0  0  0  0  0  0  0  0  0  0  0  0
    0.2832   -3.1107    5.4291 C   0  0  0  0  0  0  0  0  0  0  0  0
    0.7994   -4.4010    5.6380 C   0  0  0  0  0  0  0  0  0  0  0  0
   -0.0775   -5.6093    5.5012 C   0  0  0  0  0  0  0  0  0  0  0  0
    2.1408   -4.5504    6.0236 C   0  0  0  0  0  0  0  0  0  0  0  0
    2.9616   -3.4275    6.1654 C   0  0  0  0  0  0  0  0  0  0  0  0
    4.2425   -0.8656    7.1244 C   0  0  0  0  0  0  0  0  0  0  0  0
    3.8085   -1.1121    8.4358 C   0  0  0  0  0  0  0  0  0  0  0  0
    4.7017   -1.0088    9.5103 C   0  0  0  0  0  0  0  0  0  0  0  0
    6.0408   -0.6530    9.2894 C   0  0  0  0  0  0  0  0  0  0  0  0
    7.0146   -0.6092   10.4298 C   0  0  0  0  0  0  0  0  0  0  0  0
    6.4811   -0.4129    7.9791 C   0  0  0  0  0  0  0  0  0  0  0  0
    5.5880   -0.5064    6.9105 C   0  0  0  0  0  0  0  0  0  0  0  0
    3.1265    1.1975    4.8745 C   0  0  0  0  0  0  0  0  0  0  0  0
    1.8827    2.0704    5.5783 S   0  0  0  0  0  0  0  0  0  0  0  0
    2.2064    3.4998    4.6883 C   0  0  0  0  0  0  0  0  0  0  0  0
    3.3402    3.2783    3.8732 C   0  0  0  0  0  0  0  0  0  0  0  0
    4.2303    4.3303    3.4462 N   0  0  0  0  0  0  0  0  0  0  0  0
    5.4041    4.6063    4.2419 C   0  0  0  0  0  0  0  0  0  0  0  0
    6.6270    4.9192    3.6232 C   0  0  0  0  0  0  0  0  0  0  0  0
    7.7760    5.1387    4.3899 C   0  0  0  0  0  0  0  0  0  0  0  0
    7.7210    5.0349    5.7879 C   0  0  0  0  0  0  0  0  0  0  0  0
    8.9415    5.3051    6.6190 C   0  0  0  0  0  0  0  0  0  0  0  0
    6.5002    4.7502    6.4110 C   0  0  0  0  0  0  0  0  0  0  0  0
    5.3534    4.5295    5.6463 C   0  0  0  0  0  0  0  0  0  0  0  0
    3.9839    5.0620    2.2299 C   0  0  0  0  0  0  0  0  0  0  0  0
    3.6564    4.3888    1.0414 C   0  0  0  0  0  0  0  0  0  0  0  0
    3.3528    5.1121   -0.1156 C   0  0  0  0  0  0  0  0  0  0  0  0
    3.3675    6.5150   -0.0968 C   0  0  0  0  0  0  0  0  0  0  0  0
    3.0461    7.2934   -1.3411 C   0  0  0  0  0  0  0  0  0  0  0  0
    3.7263    7.1884    1.0805 C   0  0  0  0  0  0  0  0  0  0  0  0
    4.0340    6.4672    2.2359 C   0  0  0  0  0  0  0  0  0  0  0  0
    3.7725    1.9644    3.9707 C   0  0  0  0  0  0  0  0  0  0  0  0
    4.8085    1.0223    3.0422 S   0  0  0  0  0  0  0  0  0  0  0  0
    1.1298    4.4512    4.3257 C   0  0  0  0  0  0  0  0  0  0  0  0
   -0.0857    4.6784    5.0185 C   0  0  0  0  0  0  0  0  0  0  0  0
   -0.3216    4.3305    6.4310 C   0  0  0  0  0  0  0  0  0  0  0  0
    0.5729    4.7822    7.4118 C   0  0  0  0  0  0  0  0  0  0  0  0
    0.3619    4.4708    8.7553 C   0  0  0  0  0  0  0  0  0  0  0  0
   -0.7432    3.6998    9.1286 C   0  0  0  0  0  0  0  0  0  0  0  0
   -1.6397    3.2252    8.1564 C   0  0  0  0  0  0  0  0  0  0  0  0
   -2.8007    2.3540    8.5622 C   0  0  0  0  0  0  0  0  0  0  0  0
   -2.3327    0.9355    8.8815 C   0  0  0  0  0  0  0  0  0  0  0  0
   -1.4222    3.5444    6.8069 C   0  0  0  0  0  0  0  0  0  0  0  0
   -1.0638    5.2237    4.1692 C   0  0  0  0  0  0  0  0  0  0  0  0
   -2.7530    5.4526    4.2848 S   0  0  0  0  0  0  0  0  0  0  0  0
   -2.8738    5.8347    2.6293 C   0  0  0  0  0  0  0  0  0  0  0  0
   -3.8398    5.6901    1.6655 C   0  0  0  0  0  0  0  0  0  0  0  0
   -5.2013    5.3712    1.7761 C   0  0  0  0  0  0  0  0  0  0  0  0
   -5.9115    4.9538    0.6068 C   0  0  0  0  0  0  0  0  0  0  0  0
   -7.2098    4.6010    0.7698 N   0  0  0  0  0  0  0  0  0  0  0  0
   -7.3693    4.8495    2.4001 S   0  0  0  0  0  0  0  0  0  0  0  0
   -5.8945    5.3676    2.9419 N   0  0  0  0  0  0  0  0  0  0  0  0
   -5.2286    4.9174   -0.6114 C   0  0  0  0  0  0  0  0  0  0  0  0
   -5.6024    4.5434   -1.8696 C   0  0  0  0  0  0  0  0  0  0  0  0
   -6.8622    3.6801   -2.6013 S   0  0  0  0  0  0  0  0  0  0  0  0
   -5.9146    3.4316   -4.0038 C   0  0  0  0  0  0  0  0  0  0  0  0
   -6.0532    2.5511   -5.0862 C   0  0  0  0  0  0  0  0  0  0  0  0
   -7.3430    1.9321   -5.4488 C   0  0  0  0  0  0  0  0  0  0  0  0
   -7.8922    2.1544   -6.7212 C   0  0  0  0  0  0  0  0  0  0  0  0
   -9.1343    1.6059   -7.0578 C   0  0  0  0  0  0  0  0  0  0  0  0
   -9.8301    0.8265   -6.1354 C   0  0  0  0  0  0  0  0  0  0  0  0
   -9.2831    0.5766   -4.8661 C   0  0  0  0  0  0  0  0  0  0  0  0
  -10.0458   -0.2523   -3.8670 C   0  0  0  0  0  0  0  0  0  0  0  0
  -10.8543    0.6362   -2.9267 C   0  0  0  0  0  0  0  0  0  0  0  0
   -8.0454    1.1466   -4.5214 C   0  0  0  0  0  0  0  0  0  0  0  0
   -4.8246    2.3871   -5.7795 C   0  0  0  0  0  0  0  0  0  0  0  0
   -3.6519    3.3787   -5.0297 S   0  0  0  0  0  0  0  0  0  0  0  0
   -4.6766    4.0095   -3.8753 C   0  0  0  0  0  0  0  0  0  0  0  0
   -4.5110    4.6737   -2.6691 C   0  0  0  0  0  0  0  0  0  0  0  0
   -3.4269    5.1580   -2.0137 N   0  0  0  0  0  0  0  0  0  0  0  0
   -3.8714    5.2414   -0.7235 C   0  0  0  0  0  0  0  0  0  0  0  0
   -3.1473    5.5548    0.4503 C   0  0  0  0  0  0  0  0  0  0  0  0
   -1.7980    5.4712    0.6612 N   0  0  0  0  0  0  0  0  0  0  0  0
   -1.6733    5.7201    1.9917 C   0  0  0  0  0  0  0  0  0  0  0  0
   -0.6580    5.4049    2.8787 C   0  0  0  0  0  0  0  0  0  0  0  0
    0.9081    4.9017    2.7056 S   0  0  0  0  0  0  0  0  0  0  0  0
   -0.8541    4.6347   -0.1015 C   0  0  0  0  0  0  0  0  0  0  0  0
   -1.0637    3.1493    0.2125 C   0  0  0  0  0  0  0  0  0  0  0  0
   -2.5199    6.1645   -2.6030 C   0  0  0  0  0  0  0  0  0  0  0  0
   -1.6108    5.5925   -3.6879 C   0  0  0  0  0  0  0  0  0  0  0  0
   -4.4543    1.3481   -6.7857 C   0  0  0  0  0  0  0  0  0  0  0  0
   -3.2146    1.4609   -7.4703 C   0  0  0  0  0  0  0  0  0  0  0  0
   -2.7708    0.3949   -8.2526 C   0  0  0  0  0  0  0  0  0  0  0  0
   -1.4557    0.1495   -8.8402 C   0  0  0  0  0  0  0  0  0  0  0  0
   -0.4802    0.9446   -8.8606 O   0  0  0  0  0  0  0  0  0  0  0  0
   -1.4722   -1.2278   -9.3362 C   0  0  0  0  0  0  0  0  0  0  0  0
   -2.7295   -1.7506   -9.0936 C   0  0  0  0  0  0  0  0  0  0  0  0
   -3.5309   -0.7485   -8.4029 C   0  0  0  0  0  0  0  0  0  0  0  0
   -4.7541   -0.8965   -7.7589 C   0  0  0  0  0  0  0  0  0  0  0  0
   -5.2115    0.1508   -6.9410 C   0  0  0  0  0  0  0  0  0  0  0  0
   -3.0388   -3.0749   -9.3893 C   0  0  0  0  0  0  0  0  0  0  0  0
   -2.0229   -3.8879   -9.9145 C   0  0  0  0  0  0  0  0  0  0  0  0
   -0.7051   -3.3898  -10.0740 C   0  0  0  0  0  0  0  0  0  0  0  0
   -0.4353   -2.0279   -9.8229 C   0  0  0  0  0  0  0  0  0  0  0  0
    0.3819   -4.2968  -10.4867 C   0  0  0  0  0  0  0  0  0  0  0  0
    0.5969   -5.4988   -9.9071 C   0  0  0  0  0  0  0  0  0  0  0  0
    0.1237   -5.8896   -8.5718 C   0  0  0  0  0  0  0  0  0  0  0  0
   -0.5890   -5.1775   -7.8139 O   0  0  0  0  0  0  0  0  0  0  0  0
    0.7168   -7.1702   -8.2096 C   0  0  0  0  0  0  0  0  0  0  0  0
    1.5527   -7.5765   -9.2479 C   0  0  0  0  0  0  0  0  0  0  0  0
    2.1250   -8.8608   -9.2187 C   0  0  0  0  0  0  0  0  0  0  0  0
    1.9148   -9.6959   -8.1131 C   0  0  0  0  0  0  0  0  0  0  0  0
    1.0989   -9.2747   -7.0467 C   0  0  0  0  0  0  0  0  0  0  0  0
    0.8729  -10.1342   -5.9608 C   0  0  0  0  0  0  0  0  0  0  0  0
    0.0555   -9.7267   -4.9044 C   0  0  0  0  0  0  0  0  0  0  0  0
   -0.5362   -8.4605   -4.9204 C   0  0  0  0  0  0  0  0  0  0  0  0
   -0.3335   -7.6016   -6.0052 C   0  0  0  0  0  0  0  0  0  0  0  0
    0.4833   -7.9911   -7.0849 C   0  0  0  0  0  0  0  0  0  0  0  0
    1.5455   -6.5691  -10.3479 C   0  0  0  0  0  0  0  0  0  0  0  0
    2.2197   -6.6337  -11.5197 C   0  0  0  0  0  0  0  0  0  0  0  0
    1.8609   -5.8344  -12.6678 C   0  0  0  0  0  0  0  0  0  0  0  0
    1.5170   -5.2416  -13.5992 N   0  0  0  0  0  0  0  0  0  0  0  0
    3.3467   -7.4979  -11.7179 C   0  0  0  0  0  0  0  0  0  0  0  0
    4.2686   -8.1795  -11.8977 N   0  0  0  0  0  0  0  0  0  0  0  0
    5.8036   -2.0439    3.7306 H   0  0  0  0  0  0  0  0  0  0  0  0
    2.8535   -6.7744    2.6381 H   0  0  0  0  0  0  0  0  0  0  0  0
    0.4927   -7.1913    2.2593 H   0  0  0  0  0  0  0  0  0  0  0  0
   -1.7975   -6.3731    1.9828 H   0  0  0  0  0  0  0  0  0  0  0  0
   -3.3971   -4.5036    1.8865 H   0  0  0  0  0  0  0  0  0  0  0  0
   -2.5955   -2.1677    1.9694 H   0  0  0  0  0  0  0  0  0  0  0  0
   -0.2124   -1.6702    2.1284 H   0  0  0  0  0  0  0  0  0  0  0  0
    0.7050   -1.0026    5.3635 H   0  0  0  0  0  0  0  0  0  0  0  0
   -0.7541   -2.9784    5.1443 H   0  0  0  0  0  0  0  0  0  0  0  0
   -0.9105   -5.4092    4.7972 H   0  0  0  0  0  0  0  0  0  0  0  0
   -0.5028   -5.8823    6.4863 H   0  0  0  0  0  0  0  0  0  0  0  0
    0.5039   -6.4684    5.1067 H   0  0  0  0  0  0  0  0  0  0  0  0
    2.5574   -5.5358    6.2042 H   0  0  0  0  0  0  0  0  0  0  0  0
    4.0033   -3.5632    6.4387 H   0  0  0  0  0  0  0  0  0  0  0  0
    2.7779   -1.3846    8.6276 H   0  0  0  0  0  0  0  0  0  0  0  0
    4.3498   -1.2147   10.5150 H   0  0  0  0  0  0  0  0  0  0  0  0
    7.8909    0.0315   10.1817 H   0  0  0  0  0  0  0  0  0  0  0  0
    6.5318   -0.1923   11.3400 H   0  0  0  0  0  0  0  0  0  0  0  0
    7.3734   -1.6346   10.6405 H   0  0  0  0  0  0  0  0  0  0  0  0
    7.5149   -0.1598    7.7842 H   0  0  0  0  0  0  0  0  0  0  0  0
    5.9725   -0.3265    5.9175 H   0  0  0  0  0  0  0  0  0  0  0  0
    6.6995    4.9747    2.5450 H   0  0  0  0  0  0  0  0  0  0  0  0
    8.7087    5.3829    3.8960 H   0  0  0  0  0  0  0  0  0  0  0  0
    8.9707    6.3821    6.8913 H   0  0  0  0  0  0  0  0  0  0  0  0
    9.8643    5.0450    6.0580 H   0  0  0  0  0  0  0  0  0  0  0  0
    8.9222    4.6958    7.5479 H   0  0  0  0  0  0  0  0  0  0  0  0
    6.4321    4.6972    7.4938 H   0  0  0  0  0  0  0  0  0  0  0  0
    4.4219    4.3076    6.1534 H   0  0  0  0  0  0  0  0  0  0  0  0
    3.6241    3.3068    1.0212 H   0  0  0  0  0  0  0  0  0  0  0  0
    3.0920    4.5796   -1.0222 H   0  0  0  0  0  0  0  0  0  0  0  0
    2.7609    8.3400   -1.0974 H   0  0  0  0  0  0  0  0  0  0  0  0
    2.1977    6.8249   -1.8845 H   0  0  0  0  0  0  0  0  0  0  0  0
    3.9372    7.3114   -2.0025 H   0  0  0  0  0  0  0  0  0  0  0  0
    3.7562    8.2688    1.1098 H   0  0  0  0  0  0  0  0  0  0  0  0
    4.2790    6.9986    3.1465 H   0  0  0  0  0  0  0  0  0  0  0  0
    1.4289    5.3914    7.1407 H   0  0  0  0  0  0  0  0  0  0  0  0
    1.0490    4.8295    9.5127 H   0  0  0  0  0  0  0  0  0  0  0  0
   -0.8904    3.4545   10.1746 H   0  0  0  0  0  0  0  0  0  0  0  0
   -3.5652    2.3108    7.7557 H   0  0  0  0  0  0  0  0  0  0  0  0
   -3.2924    2.7889    9.4600 H   0  0  0  0  0  0  0  0  0  0  0  0
   -1.9211    0.4537    7.9715 H   0  0  0  0  0  0  0  0  0  0  0  0
   -1.5543    0.9514    9.6731 H   0  0  0  0  0  0  0  0  0  0  0  0
   -3.1915    0.3381    9.2525 H   0  0  0  0  0  0  0  0  0  0  0  0
   -2.0995    3.1719    6.0503 H   0  0  0  0  0  0  0  0  0  0  0  0
   -7.3734    2.7751   -7.4436 H   0  0  0  0  0  0  0  0  0  0  0  0
   -9.5521    1.7809   -8.0414 H   0  0  0  0  0  0  0  0  0  0  0  0
  -10.7951    0.4143   -6.4057 H   0  0  0  0  0  0  0  0  0  0  0  0
   -9.3470   -0.8782   -3.2731 H   0  0  0  0  0  0  0  0  0  0  0  0
  -10.7394   -0.9435   -4.3908 H   0  0  0  0  0  0  0  0  0  0  0  0
  -10.1780    1.2934   -2.3377 H   0  0  0  0  0  0  0  0  0  0  0  0
  -11.4437    0.0058   -2.2269 H   0  0  0  0  0  0  0  0  0  0  0  0
  -11.5646    1.2657   -3.5083 H   0  0  0  0  0  0  0  0  0  0  0  0
   -7.6230    0.9636   -3.5410 H   0  0  0  0  0  0  0  0  0  0  0  0
   -0.9666    4.7603   -1.1850 H   0  0  0  0  0  0  0  0  0  0  0  0
    0.1914    4.9361    0.1177 H   0  0  0  0  0  0  0  0  0  0  0  0
   -0.2238    2.5524   -0.2220 H   0  0  0  0  0  0  0  0  0  0  0  0
   -2.0269    2.8109   -0.2254 H   0  0  0  0  0  0  0  0  0  0  0  0
   -1.0942    2.9766    1.3155 H   0  0  0  0  0  0  0  0  0  0  0  0
   -3.1208    6.9939   -3.0265 H   0  0  0  0  0  0  0  0  0  0  0  0
   -1.8915    6.6267   -1.8198 H   0  0  0  0  0  0  0  0  0  0  0  0
   -1.3407    4.5350   -3.4813 H   0  0  0  0  0  0  0  0  0  0  0  0
   -0.6732    6.1840   -3.7449 H   0  0  0  0  0  0  0  0  0  0  0  0
   -2.1059    5.6599   -4.6750 H   0  0  0  0  0  0  0  0  0  0  0  0
   -2.5709    2.3223   -7.3381 H   0  0  0  0  0  0  0  0  0  0  0  0
   -5.2983   -1.8296   -7.8173 H   0  0  0  0  0  0  0  0  0  0  0  0
   -6.1044   -0.0379   -6.3662 H   0  0  0  0  0  0  0  0  0  0  0  0
   -4.0235   -3.4761   -9.1897 H   0  0  0  0  0  0  0  0  0  0  0  0
   -2.2522   -4.9183  -10.1547 H   0  0  0  0  0  0  0  0  0  0  0  0
    0.5638   -1.6242   -9.9371 H   0  0  0  0  0  0  0  0  0  0  0  0
    1.0198   -3.9369  -11.2771 H   0  0  0  0  0  0  0  0  0  0  0  0
    2.6938   -9.2544  -10.0416 H   0  0  0  0  0  0  0  0  0  0  0  0
    2.3551  -10.6918   -8.0961 H   0  0  0  0  0  0  0  0  0  0  0  0
    1.3209  -11.1205   -5.9359 H   0  0  0  0  0  0  0  0  0  0  0  0
   -0.1141  -10.3921   -4.0685 H   0  0  0  0  0  0  0  0  0  0  0  0
   -1.1585   -8.1441   -4.0925 H   0  0  0  0  0  0  0  0  0  0  0  0
   -0.8173   -6.6360   -5.9761 H   0  0  0  0  0  0  0  0  0  0  0  0
  1  2  2  3
  2  3  1  0
  3  4  2  0
  3  5  1  0
  5  6  2  0
  6  7  1  0
  7  8  2  0
  8  9  1  0
  9 10  2  0
 10 11  1  0
 11 12  2  0
 12 13  1  0
 13 14  2  0
  6 15  1  0
 15 16  2  3
 16 17  1  0
 17 18  3  0
 16 19  1  0
 19 20  3  0
  1 21  1  0
 21 22  2  0
 22 23  1  0
 23 24  1  0
 24 25  2  0
 25 26  1  0
 26 27  2  0
 27 28  1  0
 27 29  1  0
 29 30  2  0
 23 31  1  0
 31 32  2  0
 32 33  1  0
 33 34  2  0
 34 35  1  0
 34 36  1  0
 36 37  2  0
 22 38  1  0
 38 39  1  0
 39 40  1  0
 40 41  2  0
 41 42  1  0
 42 43  1  0
 43 44  2  0
 44 45  1  0
 45 46  2  0
 46 47  1  0
 46 48  1  0
 48 49  2  0
 42 50  1  0
 50 51  2  0
 51 52  1  0
 52 53  2  0
 53 54  1  0
 53 55  1  0
 55 56  2  0
 41 57  1  0
 57 58  1  0
 40 59  1  0
 59 60  2  0
 60 61  1  0
 61 62  2  0
 62 63  1  0
 63 64  2  0
 64 65  1  0
 65 66  1  0
 66 67  1  0
 65 68  2  0
 60 69  1  0
 69 70  1  0
 70 71  1  0
 71 72  1  0
 72 73  1  0
 73 74  1  0
 74 75  2  0
 75 76  1  0
 76 77  1  0
 74 78  1  0
 78 79  1  0
 79 80  1  0
 80 81  1  0
 81 82  1  0
 82 83  1  0
 83 84  2  0
 84 85  1  0
 85 86  2  0
 86 87  1  0
 87 88  1  0
 88 89  1  0
 87 90  2  0
 82 91  2  0
 91 92  1  0
 92 93  1  0
 93 94  1  0
 94 95  1  0
 95 96  1  0
 96 97  1  0
 97 98  1  0
 98 99  1  0
 99100  1  0
100101  1  0
 98102  1  0
102103  1  0
 95104  1  0
104105  1  0
 91106  1  0
106107  2  0
107108  1  0
108109  1  0
109110  2  0
109111  1  0
111112  2  0
112113  1  0
113114  1  0
114115  2  0
112116  1  0
116117  2  0
117118  1  0
118119  2  0
118120  1  0
120121  2  3
121122  1  0
122123  2  0
122124  1  0
124125  2  0
125126  1  0
126127  2  0
127128  1  0
128129  2  0
129130  1  0
130131  2  0
131132  1  0
132133  2  0
125134  1  0
134135  2  3
135136  1  0
136137  3  0
135138  1  0
138139  3  0
 15  2  1  0
 58 21  1  0
101 59  1  0
115106  1  0
134121  1  0
 14  5  1  0
 30 24  1  0
 37 31  1  0
 57 38  2  0
 68 61  1  0
100 69  2  0
113108  2  0
133124  1  0
 14  9  1  0
 49 43  1  0
 56 50  1  0
 99 71  2  0
119111  1  0
133128  1  0
 97 72  2  0
 77 73  2  0
 96 78  2  0
 94 79  2  0
 93 81  2  0
 90 83  1  0
  1140  1  0
  7141  1  0
  8142  1  0
 10143  1  0
 11144  1  0
 12145  1  0
 13146  1  0
 25147  1  0
 26148  1  0
 28149  1  0
 28150  1  0
 28151  1  0
 29152  1  0
 30153  1  0
 32154  1  0
 33155  1  0
 35156  1  0
 35157  1  0
 35158  1  0
 36159  1  0
 37160  1  0
 44161  1  0
 45162  1  0
 47163  1  0
 47164  1  0
 47165  1  0
 48166  1  0
 49167  1  0
 51168  1  0
 52169  1  0
 54170  1  0
 54171  1  0
 54172  1  0
 55173  1  0
 56174  1  0
 62175  1  0
 63176  1  0
 64177  1  0
 66178  1  0
 66179  1  0
 67180  1  0
 67181  1  0
 67182  1  0
 68183  1  0
 84184  1  0
 85185  1  0
 86186  1  0
 88187  1  0
 88188  1  0
 89189  1  0
 89190  1  0
 89191  1  0
 90192  1  0
102193  1  0
102194  1  0
103195  1  0
103196  1  0
103197  1  0
104198  1  0
104199  1  0
105200  1  0
105201  1  0
105202  1  0
107203  1  0
114204  1  0
115205  1  0
116206  1  0
117207  1  0
119208  1  0
120209  1  0
126210  1  0
127211  1  0
129212  1  0
130213  1  0
131214  1  0
132215  1  0
M  END

