
     RDKit          3D

221245  0  0  0  0  0  0  0  0999 V2000
    4.0788   -5.4902   -2.9568 C   0  0  0  0  0  0  0  0  0  0  0  0
    5.2037   -5.4402   -3.6869 C   0  0  0  0  0  0  0  0  0  0  0  0
    6.5114   -5.3026   -3.0574 C   0  0  0  0  0  0  0  0  0  0  0  0
    6.7938   -5.6827   -1.8883 O   0  0  0  0  0  0  0  0  0  0  0  0
    7.3876   -4.5669   -3.9718 C   0  0  0  0  0  0  0  0  0  0  0  0
    6.7147   -4.3857   -5.1746 C   0  0  0  0  0  0  0  0  0  0  0  0
    7.2798   -3.6088   -6.1951 C   0  0  0  0  0  0  0  0  0  0  0  0
    8.5111   -2.9878   -5.9826 C   0  0  0  0  0  0  0  0  0  0  0  0
    9.1667   -3.0956   -4.7414 C   0  0  0  0  0  0  0  0  0  0  0  0
   10.3409   -2.3672   -4.5055 C   0  0  0  0  0  0  0  0  0  0  0  0
   10.9484   -2.4097   -3.2452 C   0  0  0  0  0  0  0  0  0  0  0  0
   10.4214   -3.2110   -2.2372 C   0  0  0  0  0  0  0  0  0  0  0  0
    9.2642   -3.9643   -2.4696 C   0  0  0  0  0  0  0  0  0  0  0  0
    8.6152   -3.9106   -3.7174 C   0  0  0  0  0  0  0  0  0  0  0  0
    5.3538   -4.9843   -5.0941 C   0  0  0  0  0  0  0  0  0  0  0  0
    4.5171   -5.2913   -6.1205 C   0  0  0  0  0  0  0  0  0  0  0  0
    4.7882   -4.9233   -7.4828 C   0  0  0  0  0  0  0  0  0  0  0  0
    5.0003   -4.6366   -8.5834 N   0  0  0  0  0  0  0  0  0  0  0  0
    3.3751   -6.1522   -5.9331 C   0  0  0  0  0  0  0  0  0  0  0  0
    2.4594   -6.8470   -5.7899 N   0  0  0  0  0  0  0  0  0  0  0  0
    2.9087   -4.6682   -3.2865 C   0  0  0  0  0  0  0  0  0  0  0  0
    2.9133   -3.2651   -3.3975 C   0  0  0  0  0  0  0  0  0  0  0  0
    4.0171   -2.4119   -3.0509 N   0  0  0  0  0  0  0  0  0  0  0  0
    3.9882   -1.8511   -1.7225 C   0  0  0  0  0  0  0  0  0  0  0  0
    4.0847   -2.6868   -0.5953 C   0  0  0  0  0  0  0  0  0  0  0  0
    3.9854   -2.1529    0.6938 C   0  0  0  0  0  0  0  0  0  0  0  0
    3.7701   -0.7780    0.8777 C   0  0  0  0  0  0  0  0  0  0  0  0
    3.7013   -0.2083    2.2643 C   0  0  0  0  0  0  0  0  0  0  0  0
    3.6723    0.0592   -0.2453 C   0  0  0  0  0  0  0  0  0  0  0  0
    3.7851   -0.4738   -1.5303 C   0  0  0  0  0  0  0  0  0  0  0  0
    4.7785   -1.7508   -4.0946 C   0  0  0  0  0  0  0  0  0  0  0  0
    4.3290   -1.7305   -5.4327 C   0  0  0  0  0  0  0  0  0  0  0  0
    5.0663   -1.0805   -6.4236 C   0  0  0  0  0  0  0  0  0  0  0  0
    6.2800   -0.4521   -6.1079 C   0  0  0  0  0  0  0  0  0  0  0  0
    7.0960    0.1971   -7.1809 C   0  0  0  0  0  0  0  0  0  0  0  0
    6.7248   -0.4546   -4.7789 C   0  0  0  0  0  0  0  0  0  0  0  0
    5.9910   -1.1088   -3.7846 C   0  0  0  0  0  0  0  0  0  0  0  0
    1.6302   -2.7742   -3.5760 C   0  0  0  0  0  0  0  0  0  0  0  0
    1.0112   -1.2348   -3.5006 S   0  0  0  0  0  0  0  0  0  0  0  0
   -0.6043   -1.7439   -3.4082 C   0  0  0  0  0  0  0  0  0  0  0  0
   -0.6603   -3.1546   -3.4317 C   0  0  0  0  0  0  0  0  0  0  0  0
   -1.8392   -3.9559   -3.2228 N   0  0  0  0  0  0  0  0  0  0  0  0
   -2.0191   -5.1270   -4.0475 C   0  0  0  0  0  0  0  0  0  0  0  0
   -2.3587   -6.3643   -3.4747 C   0  0  0  0  0  0  0  0  0  0  0  0
   -2.4778   -7.5068   -4.2697 C   0  0  0  0  0  0  0  0  0  0  0  0
   -2.2597   -7.4284   -5.6549 C   0  0  0  0  0  0  0  0  0  0  0  0
   -2.3725   -8.6474   -6.5196 C   0  0  0  0  0  0  0  0  0  0  0  0
   -1.9236   -6.1942   -6.2315 C   0  0  0  0  0  0  0  0  0  0  0  0
   -1.8061   -5.0549   -5.4337 C   0  0  0  0  0  0  0  0  0  0  0  0
   -2.7610   -3.6674   -2.1467 C   0  0  0  0  0  0  0  0  0  0  0  0
   -4.1313   -3.9589   -2.2795 C   0  0  0  0  0  0  0  0  0  0  0  0
   -5.0190   -3.6858   -1.2348 C   0  0  0  0  0  0  0  0  0  0  0  0
   -4.5571   -3.1031   -0.0489 C   0  0  0  0  0  0  0  0  0  0  0  0
   -5.5160   -2.8414    1.0748 C   0  0  0  0  0  0  0  0  0  0  0  0
   -3.1896   -2.8282    0.0983 C   0  0  0  0  0  0  0  0  0  0  0  0
   -2.2974   -3.1112   -0.9405 C   0  0  0  0  0  0  0  0  0  0  0  0
    0.6274   -3.6928   -3.5350 C   0  0  0  0  0  0  0  0  0  0  0  0
    1.2897   -5.2192   -3.2808 S   0  0  0  0  0  0  0  0  0  0  0  0
   -1.6525   -0.7939   -3.0359 C   0  0  0  0  0  0  0  0  0  0  0  0
   -2.9087   -0.5910   -3.6489 C   0  0  0  0  0  0  0  0  0  0  0  0
   -3.3564   -1.2804   -4.8694 C   0  0  0  0  0  0  0  0  0  0  0  0
   -4.6122   -1.8975   -4.9201 C   0  0  0  0  0  0  0  0  0  0  0  0
   -5.0329   -2.5285   -6.0948 C   0  0  0  0  0  0  0  0  0  0  0  0
   -4.2351   -2.4895   -7.2402 C   0  0  0  0  0  0  0  0  0  0  0  0
   -2.9972   -1.8265   -7.2174 C   0  0  0  0  0  0  0  0  0  0  0  0
   -2.1574   -1.7295   -8.4645 C   0  0  0  0  0  0  0  0  0  0  0  0
   -1.2080   -2.9160   -8.5873 C   0  0  0  0  0  0  0  0  0  0  0  0
   -2.5492   -1.2547   -6.0173 C   0  0  0  0  0  0  0  0  0  0  0  0
   -3.5105    0.5735   -3.1537 C   0  0  0  0  0  0  0  0  0  0  0  0
   -4.9248    1.4540   -3.5397 S   0  0  0  0  0  0  0  0  0  0  0  0
   -4.4241    2.7515   -2.5511 C   0  0  0  0  0  0  0  0  0  0  0  0
   -4.8894    3.9287   -2.0294 C   0  0  0  0  0  0  0  0  0  0  0  0
   -6.1883    4.4378   -1.9261 C   0  0  0  0  0  0  0  0  0  0  0  0
   -6.4385    5.5040   -1.0020 C   0  0  0  0  0  0  0  0  0  0  0  0
   -7.7243    5.9081   -0.8640 N   0  0  0  0  0  0  0  0  0  0  0  0
   -8.4597    4.8642   -1.9225 S   0  0  0  0  0  0  0  0  0  0  0  0
   -7.2658    3.9149   -2.5593 N   0  0  0  0  0  0  0  0  0  0  0  0
   -5.3539    6.0709   -0.3171 C   0  0  0  0  0  0  0  0  0  0  0  0
   -5.2779    7.0305    0.6653 C   0  0  0  0  0  0  0  0  0  0  0  0
   -6.2604    7.2944    2.0211 S   0  0  0  0  0  0  0  0  0  0  0  0
   -4.9264    7.6285    3.0266 C   0  0  0  0  0  0  0  0  0  0  0  0
   -4.7887    7.4300    4.4030 C   0  0  0  0  0  0  0  0  0  0  0  0
   -5.9075    7.4837    5.3544 C   0  0  0  0  0  0  0  0  0  0  0  0
   -6.5582    6.3176    5.7811 C   0  0  0  0  0  0  0  0  0  0  0  0
   -7.5589    6.3954    6.7521 C   0  0  0  0  0  0  0  0  0  0  0  0
   -7.9242    7.6333    7.2925 C   0  0  0  0  0  0  0  0  0  0  0  0
   -7.2953    8.8080    6.8502 C   0  0  0  0  0  0  0  0  0  0  0  0
   -7.6593   10.1460    7.4397 C   0  0  0  0  0  0  0  0  0  0  0  0
   -6.6218   10.5840    8.4681 C   0  0  0  0  0  0  0  0  0  0  0  0
   -6.2857    8.7253    5.8812 C   0  0  0  0  0  0  0  0  0  0  0  0
   -3.4646    7.1143    4.7619 C   0  0  0  0  0  0  0  0  0  0  0  0
   -2.5159    7.0962    3.3591 S   0  0  0  0  0  0  0  0  0  0  0  0
   -3.7553    7.5040    2.3171 C   0  0  0  0  0  0  0  0  0  0  0  0
   -3.9500    7.1418    0.9929 C   0  0  0  0  0  0  0  0  0  0  0  0
   -3.1712    6.3116    0.2632 N   0  0  0  0  0  0  0  0  0  0  0  0
   -4.0532    5.5939   -0.4808 C   0  0  0  0  0  0  0  0  0  0  0  0
   -3.8407    4.4112   -1.2235 C   0  0  0  0  0  0  0  0  0  0  0  0
   -2.8337    3.4888   -1.1146 N   0  0  0  0  0  0  0  0  0  0  0  0
   -3.2285    2.5121   -1.9615 C   0  0  0  0  0  0  0  0  0  0  0  0
   -2.7423    1.2599   -2.2516 C   0  0  0  0  0  0  0  0  0  0  0  0
   -1.3149    0.4728   -1.9536 S   0  0  0  0  0  0  0  0  0  0  0  0
   -1.9383    3.2631    0.0287 C   0  0  0  0  0  0  0  0  0  0  0  0
   -0.4595    3.3799   -0.3639 C   0  0  0  0  0  0  0  0  0  0  0  0
   -1.7207    6.4426    0.0755 C   0  0  0  0  0  0  0  0  0  0  0  0
   -1.3144    7.8886   -0.2000 C   0  0  0  0  0  0  0  0  0  0  0  0
   -3.1123    6.2009    5.8499 C   0  0  0  0  0  0  0  0  0  0  0  0
   -3.4707    4.8469    5.6978 C   0  0  0  0  0  0  0  0  0  0  0  0
   -2.8865    3.9011    6.5322 C   0  0  0  0  0  0  0  0  0  0  0  0
   -2.9533    2.5542    6.4033 N   0  0  0  0  0  0  0  0  0  0  0  0
   -3.6552    1.8006    5.3578 C   0  0  0  0  0  0  0  0  0  0  0  0
   -2.8045    1.7278    4.0917 C   0  0  0  0  0  0  0  0  0  0  0  0
   -2.0413    2.0767    7.2837 C   0  0  0  0  0  0  0  0  0  0  0  0
   -1.4395    3.1024    7.9858 C   0  0  0  0  0  0  0  0  0  0  0  0
   -1.9799    4.2740    7.5007 C   0  0  0  0  0  0  0  0  0  0  0  0
   -1.6238    5.6099    7.7017 C   0  0  0  0  0  0  0  0  0  0  0  0
   -2.1924    6.5824    6.8541 C   0  0  0  0  0  0  0  0  0  0  0  0
   -0.3859    2.8752    8.8680 C   0  0  0  0  0  0  0  0  0  0  0  0
    0.0653    1.5537    9.0223 C   0  0  0  0  0  0  0  0  0  0  0  0
   -0.5271    0.4993    8.2866 C   0  0  0  0  0  0  0  0  0  0  0  0
   -1.6002    0.7583    7.4174 C   0  0  0  0  0  0  0  0  0  0  0  0
    0.0222   -0.8592    8.3541 C   0  0  0  0  0  0  0  0  0  0  0  0
    1.1265   -1.2324    7.6777 C   0  0  0  0  0  0  0  0  0  0  0  0
    2.0121   -0.3355    6.9266 C   0  0  0  0  0  0  0  0  0  0  0  0
    1.7096    0.8195    6.5245 O   0  0  0  0  0  0  0  0  0  0  0  0
    3.2966   -1.0014    6.7320 C   0  0  0  0  0  0  0  0  0  0  0  0
    3.2071   -2.2773    7.2712 C   0  0  0  0  0  0  0  0  0  0  0  0
    4.3515   -3.0775    7.3971 C   0  0  0  0  0  0  0  0  0  0  0  0
    5.5746   -2.6048    6.9052 C   0  0  0  0  0  0  0  0  0  0  0  0
    5.6641   -1.3304    6.3095 C   0  0  0  0  0  0  0  0  0  0  0  0
    6.8989   -0.8632    5.8347 C   0  0  0  0  0  0  0  0  0  0  0  0
    6.9980    0.4059    5.2621 C   0  0  0  0  0  0  0  0  0  0  0  0
    5.8672    1.2166    5.1537 C   0  0  0  0  0  0  0  0  0  0  0  0
    4.6295    0.7705    5.6274 C   0  0  0  0  0  0  0  0  0  0  0  0
    4.5118   -0.5039    6.2154 C   0  0  0  0  0  0  0  0  0  0  0  0
    1.8215   -2.5460    7.7454 C   0  0  0  0  0  0  0  0  0  0  0  0
    1.2402   -3.7610    7.9021 C   0  0  0  0  0  0  0  0  0  0  0  0
    1.9693   -4.9929    7.7336 C   0  0  0  0  0  0  0  0  0  0  0  0
    2.5423   -5.9905    7.5999 N   0  0  0  0  0  0  0  0  0  0  0  0
   -0.1813   -3.9122    8.0972 C   0  0  0  0  0  0  0  0  0  0  0  0
   -1.3213   -4.0346    8.2599 N   0  0  0  0  0  0  0  0  0  0  0  0
    4.1239   -5.8713   -1.9460 H   0  0  0  0  0  0  0  0  0  0  0  0
    6.7566   -3.3953   -7.1070 H   0  0  0  0  0  0  0  0  0  0  0  0
    8.9132   -2.3496   -6.7590 H   0  0  0  0  0  0  0  0  0  0  0  0
   10.7692   -1.7337   -5.2767 H   0  0  0  0  0  0  0  0  0  0  0  0
   11.8440   -1.8260   -3.0628 H   0  0  0  0  0  0  0  0  0  0  0  0
   10.9031   -3.2379   -1.2664 H   0  0  0  0  0  0  0  0  0  0  0  0
    8.8929   -4.5700   -1.6596 H   0  0  0  0  0  0  0  0  0  0  0  0
    4.2220   -3.7485   -0.7144 H   0  0  0  0  0  0  0  0  0  0  0  0
    4.0730   -2.8099    1.5481 H   0  0  0  0  0  0  0  0  0  0  0  0
    4.7279   -0.1409    2.6880 H   0  0  0  0  0  0  0  0  0  0  0  0
    3.0823   -0.8608    2.9200 H   0  0  0  0  0  0  0  0  0  0  0  0
    3.2461    0.8052    2.2637 H   0  0  0  0  0  0  0  0  0  0  0  0
    3.5197    1.1251   -0.1212 H   0  0  0  0  0  0  0  0  0  0  0  0
    3.6930    0.1887   -2.3835 H   0  0  0  0  0  0  0  0  0  0  0  0
    3.4105   -2.2276   -5.7217 H   0  0  0  0  0  0  0  0  0  0  0  0
    4.7103   -1.1003   -7.4447 H   0  0  0  0  0  0  0  0  0  0  0  0
    8.1576    0.2856   -6.8693 H   0  0  0  0  0  0  0  0  0  0  0  0
    6.6937    1.2113   -7.3936 H   0  0  0  0  0  0  0  0  0  0  0  0
    7.0622   -0.4106   -8.1069 H   0  0  0  0  0  0  0  0  0  0  0  0
    7.6608    0.0171   -4.5087 H   0  0  0  0  0  0  0  0  0  0  0  0
    6.3769   -1.1229   -2.7735 H   0  0  0  0  0  0  0  0  0  0  0  0
   -2.5148   -6.4471   -2.4081 H   0  0  0  0  0  0  0  0  0  0  0  0
   -2.7438   -8.4517   -3.8038 H   0  0  0  0  0  0  0  0  0  0  0  0
   -2.6945   -9.5371   -5.9333 H   0  0  0  0  0  0  0  0  0  0  0  0
   -1.3870   -8.8720   -6.9828 H   0  0  0  0  0  0  0  0  0  0  0  0
   -3.1175   -8.4690   -7.3205 H   0  0  0  0  0  0  0  0  0  0  0  0
   -1.7463   -6.1216   -7.2970 H   0  0  0  0  0  0  0  0  0  0  0  0
   -1.5425   -4.1150   -5.8932 H   0  0  0  0  0  0  0  0  0  0  0  0
   -4.5131   -4.4047   -3.1885 H   0  0  0  0  0  0  0  0  0  0  0  0
   -6.0642   -3.9373   -1.3533 H   0  0  0  0  0  0  0  0  0  0  0  0
   -5.7854   -3.8018    1.5591 H   0  0  0  0  0  0  0  0  0  0  0  0
   -6.4357   -2.3637    0.6820 H   0  0  0  0  0  0  0  0  0  0  0  0
   -5.0676   -2.1677    1.8331 H   0  0  0  0  0  0  0  0  0  0  0  0
   -2.8091   -2.3827    1.0055 H   0  0  0  0  0  0  0  0  0  0  0  0
   -1.2464   -2.9098   -0.7966 H   0  0  0  0  0  0  0  0  0  0  0  0
   -5.2578   -1.9024   -4.0484 H   0  0  0  0  0  0  0  0  0  0  0  0
   -5.9930   -3.0321   -6.1213 H   0  0  0  0  0  0  0  0  0  0  0  0
   -4.5892   -2.9544   -8.1503 H   0  0  0  0  0  0  0  0  0  0  0  0
   -1.5614   -0.7886   -8.4460 H   0  0  0  0  0  0  0  0  0  0  0  0
   -2.8109   -1.6867   -9.3623 H   0  0  0  0  0  0  0  0  0  0  0  0
   -0.4994   -2.9355   -7.7307 H   0  0  0  0  0  0  0  0  0  0  0  0
   -1.7881   -3.8654   -8.6214 H   0  0  0  0  0  0  0  0  0  0  0  0
   -0.6212   -2.8250   -9.5256 H   0  0  0  0  0  0  0  0  0  0  0  0
   -1.5892   -0.7509   -5.9891 H   0  0  0  0  0  0  0  0  0  0  0  0
   -6.2903    5.3533    5.3667 H   0  0  0  0  0  0  0  0  0  0  0  0
   -8.0495    5.4927    7.0916 H   0  0  0  0  0  0  0  0  0  0  0  0
   -8.6927    7.6743    8.0549 H   0  0  0  0  0  0  0  0  0  0  0  0
   -7.7198   10.9038    6.6291 H   0  0  0  0  0  0  0  0  0  0  0  0
   -8.6583   10.0999    7.9243 H   0  0  0  0  0  0  0  0  0  0  0  0
   -6.5847    9.8592    9.3093 H   0  0  0  0  0  0  0  0  0  0  0  0
   -6.8957   11.5839    8.8663 H   0  0  0  0  0  0  0  0  0  0  0  0
   -5.6149   10.6540    8.0006 H   0  0  0  0  0  0  0  0  0  0  0  0
   -5.7751    9.6257    5.5523 H   0  0  0  0  0  0  0  0  0  0  0  0
   -2.1167    2.2498    0.4465 H   0  0  0  0  0  0  0  0  0  0  0  0
   -2.1764    3.9467    0.8671 H   0  0  0  0  0  0  0  0  0  0  0  0
   -0.3360    3.8582   -1.3605 H   0  0  0  0  0  0  0  0  0  0  0  0
    0.0184    2.3792   -0.3884 H   0  0  0  0  0  0  0  0  0  0  0  0
    0.0895    3.9836    0.3916 H   0  0  0  0  0  0  0  0  0  0  0  0
   -1.4008    5.8567   -0.8108 H   0  0  0  0  0  0  0  0  0  0  0  0
   -1.1816    6.0790    0.9735 H   0  0  0  0  0  0  0  0  0  0  0  0
   -0.2204    7.9303   -0.3912 H   0  0  0  0  0  0  0  0  0  0  0  0
   -1.5394    8.5368    0.6712 H   0  0  0  0  0  0  0  0  0  0  0  0
   -1.8499    8.2755   -1.0919 H   0  0  0  0  0  0  0  0  0  0  0  0
   -4.0975    4.5390    4.8697 H   0  0  0  0  0  0  0  0  0  0  0  0
   -3.8858    0.7747    5.7112 H   0  0  0  0  0  0  0  0  0  0  0  0
   -4.6287    2.2823    5.1256 H   0  0  0  0  0  0  0  0  0  0  0  0
   -1.8732    1.1566    4.2956 H   0  0  0  0  0  0  0  0  0  0  0  0
   -3.3741    1.2164    3.2875 H   0  0  0  0  0  0  0  0  0  0  0  0
   -2.5359    2.7461    3.7465 H   0  0  0  0  0  0  0  0  0  0  0  0
   -0.8712    5.8859    8.4287 H   0  0  0  0  0  0  0  0  0  0  0  0
   -1.8727    7.6137    6.9350 H   0  0  0  0  0  0  0  0  0  0  0  0
    0.0917    3.6909    9.3960 H   0  0  0  0  0  0  0  0  0  0  0  0
    0.9024    1.3523    9.6790 H   0  0  0  0  0  0  0  0  0  0  0  0
   -2.0367   -0.0378    6.8303 H   0  0  0  0  0  0  0  0  0  0  0  0
   -0.4944   -1.5550    8.9996 H   0  0  0  0  0  0  0  0  0  0  0  0
    4.3320   -4.0269    7.9014 H   0  0  0  0  0  0  0  0  0  0  0  0
    6.4546   -3.2318    6.9949 H   0  0  0  0  0  0  0  0  0  0  0  0
    7.7875   -1.4770    5.9143 H   0  0  0  0  0  0  0  0  0  0  0  0
    7.9554    0.7635    4.9046 H   0  0  0  0  0  0  0  0  0  0  0  0
    5.9490    2.1960    4.7006 H   0  0  0  0  0  0  0  0  0  0  0  0
    3.7803    1.4271    5.5122 H   0  0  0  0  0  0  0  0  0  0  0  0
  1  2  2  3
  2  3  1  0
  3  4  2  0
  3  5  1  0
  5  6  2  0
  6  7  1  0
  7  8  2  0
  8  9  1  0
  9 10  2  0
 10 11  1  0
 11 12  2  0
 12 13  1  0
 13 14  2  0
  6 15  1  0
 15 16  2  3
 16 17  1  0
 17 18  3  0
 16 19  1  0
 19 20  3  0
  1 21  1  0
 21 22  2  0
 22 23  1  0
 23 24  1  0
 24 25  2  0
 25 26  1  0
 26 27  2  0
 27 28  1  0
 27 29  1  0
 29 30  2  0
 23 31  1  0
 31 32  2  0
 32 33  1  0
 33 34  2  0
 34 35  1  0
 34 36  1  0
 36 37  2  0
 22 38  1  0
 38 39  1  0
 39 40  1  0
 40 41  2  0
 41 42  1  0
 42 43  1  0
 43 44  2  0
 44 45  1  0
 45 46  2  0
 46 47  1  0
 46 48  1  0
 48 49  2  0
 42 50  1  0
 50 51  2  0
 51 52  1  0
 52 53  2  0
 53 54  1  0
 53 55  1  0
 55 56  2  0
 41 57  1  0
 57 58  1  0
 40 59  1  0
 59 60  2  0
 60 61  1  0
 61 62  2  0
 62 63  1  0
 63 64  2  0
 64 65  1  0
 65 66  1  0
 66 67  1  0
 65 68  2  0
 60 69  1  0
 69 70  1  0
 70 71  1  0
 71 72  1  0
 72 73  1  0
 73 74  1  0
 74 75  2  0
 75 76  1  0
 76 77  1  0
 74 78  1  0
 78 79  1  0
 79 80  1  0
 80 81  1  0
 81 82  1  0
 82 83  1  0
 83 84  2  0
 84 85  1  0
 85 86  2  0
 86 87  1  0
 87 88  1  0
 88 89  1  0
 87 90  2  0
 82 91  2  0
 91 92  1  0
 92 93  1  0
 93 94  1  0
 94 95  1  0
 95 96  1  0
 96 97  1  0
 97 98  1  0
 98 99  1  0
 99100  1  0
100101  1  0
 98102  1  0
102103  1  0
 95104  1  0
104105  1  0
 91106  1  0
106107  2  0
107108  1  0
108109  1  0
109110  1  0
110111  1  0
109112  1  0
112113  2  0
113114  1  0
114115  1  0
115116  2  0
113117  1  0
117118  2  0
118119  1  0
119120  2  0
119121  1  0
121122  2  3
122123  1  0
123124  2  0
123125  1  0
125126  2  0
126127  1  0
127128  2  0
128129  1  0
129130  2  0
130131  1  0
131132  2  0
132133  1  0
133134  2  0
126135  1  0
135136  2  3
136137  1  0
137138  3  0
136139  1  0
139140  3  0
 15  2  1  0
 58 21  1  0
101 59  1  0
116106  1  0
135122  1  0
 14  5  1  0
 30 24  1  0
 37 31  1  0
 57 38  2  0
 68 61  1  0
100 69  2  0
114108  2  0
134125  1  0
 14  9  1  0
 49 43  1  0
 56 50  1  0
 99 71  2  0
120112  1  0
134129  1  0
 97 72  2  0
 77 73  2  0
 96 78  2  0
 94 79  2  0
 93 81  2  0
 90 83  1  0
  1141  1  0
  7142  1  0
  8143  1  0
 10144  1  0
 11145  1  0
 12146  1  0
 13147  1  0
 25148  1  0
 26149  1  0
 28150  1  0
 28151  1  0
 28152  1  0
 29153  1  0
 30154  1  0
 32155  1  0
 33156  1  0
 35157  1  0
 35158  1  0
 35159  1  0
 36160  1  0
 37161  1  0
 44162  1  0
 45163  1  0
 47164  1  0
 47165  1  0
 47166  1  0
 48167  1  0
 49168  1  0
 51169  1  0
 52170  1  0
 54171  1  0
 54172  1  0
 54173  1  0
 55174  1  0
 56175  1  0
 62176  1  0
 63177  1  0
 64178  1  0
 66179  1  0
 66180  1  0
 67181  1  0
 67182  1  0
 67183  1  0
 68184  1  0
 84185  1  0
 85186  1  0
 86187  1  0
 88188  1  0
 88189  1  0
 89190  1  0
 89191  1  0
 89192  1  0
 90193  1  0
102194  1  0
102195  1  0
103196  1  0
103197  1  0
103198  1  0
104199  1  0
104200  1  0
105201  1  0
105202  1  0
105203  1  0
107204  1  0
110205  1  0
110206  1  0
111207  1  0
111208  1  0
111209  1  0
115210  1  0
116211  1  0
117212  1  0
118213  1  0
120214  1  0
121215  1  0
127216  1  0
128217  1  0
130218  1  0
131219  1  0
132220  1  0
133221  1  0
M  END

