
     RDKit          3D

197217  0  0  0  0  0  0  0  0999 V2000
    9.0369    2.9702   -2.6032 C   0  0  0  0  0  0  0  0  0  0  0  0
    8.5544    4.2158   -2.7830 C   0  0  0  0  0  0  0  0  0  0  0  0
    9.1871    5.1991   -3.6627 C   0  0  0  0  0  0  0  0  0  0  0  0
   10.0399    4.9556   -4.5587 O   0  0  0  0  0  0  0  0  0  0  0  0
    8.7466    6.5185   -3.2516 C   0  0  0  0  0  0  0  0  0  0  0  0
    9.1726    7.7614   -3.7175 C   0  0  0  0  0  0  0  0  0  0  0  0
    8.6629    8.9205   -3.1107 C   0  0  0  0  0  0  0  0  0  0  0  0
    9.1859   10.4900   -3.7049 Cl  0  0  0  0  0  0  0  0  0  0  0  0
    7.7620    8.8122   -2.0247 C   0  0  0  0  0  0  0  0  0  0  0  0
    7.0811   10.3647   -1.1306 Br  0  0  0  0  0  0  0  0  0  0  0  0
    7.3564    7.5432   -1.5661 C   0  0  0  0  0  0  0  0  0  0  0  0
    7.8398    6.3973   -2.2144 C   0  0  0  0  0  0  0  0  0  0  0  0
    7.5450    4.9618   -1.9733 C   0  0  0  0  0  0  0  0  0  0  0  0
    6.3682    4.4621   -1.5170 C   0  0  0  0  0  0  0  0  0  0  0  0
    5.3788    5.2783   -0.8601 C   0  0  0  0  0  0  0  0  0  0  0  0
    4.5784    5.9283   -0.3356 N   0  0  0  0  0  0  0  0  0  0  0  0
    5.9535    3.1126   -1.8136 C   0  0  0  0  0  0  0  0  0  0  0  0
    5.6074    2.0370   -2.0585 N   0  0  0  0  0  0  0  0  0  0  0  0
    8.7828    2.1555   -1.4030 C   0  0  0  0  0  0  0  0  0  0  0  0
    8.5723    0.7815   -1.3831 C   0  0  0  0  0  0  0  0  0  0  0  0
    8.2280    0.2904   -0.1136 C   0  0  0  0  0  0  0  0  0  0  0  0
    7.7100   -1.4112    0.1300 S   0  0  0  0  0  0  0  0  0  0  0  0
    5.9187   -1.0780   -0.0412 C   0  0  0  0  0  0  0  0  0  0  0  0
    5.4401   -1.4860   -1.4300 C   0  0  0  0  0  0  0  0  0  0  0  0
    8.2347    1.2707    0.8870 C   0  0  0  0  0  0  0  0  0  0  0  0
    8.6190    2.7382    0.1630 S   0  0  0  0  0  0  0  0  0  0  0  0
    7.5892    1.1979    2.2057 C   0  0  0  0  0  0  0  0  0  0  0  0
    7.6751    0.1704    3.1713 C   0  0  0  0  0  0  0  0  0  0  0  0
    8.6773   -0.9192    3.1541 C   0  0  0  0  0  0  0  0  0  0  0  0
   10.0178   -0.6229    2.8524 C   0  0  0  0  0  0  0  0  0  0  0  0
   10.9778   -1.6370    2.8173 C   0  0  0  0  0  0  0  0  0  0  0  0
   10.6116   -2.9567    3.0770 C   0  0  0  0  0  0  0  0  0  0  0  0
    9.2751   -3.2738    3.3711 C   0  0  0  0  0  0  0  0  0  0  0  0
    8.8896   -4.6951    3.6782 C   0  0  0  0  0  0  0  0  0  0  0  0
    8.8961   -4.9468    5.1828 C   0  0  0  0  0  0  0  0  0  0  0  0
    8.3148   -2.2500    3.4257 C   0  0  0  0  0  0  0  0  0  0  0  0
    6.7375    0.3826    4.1990 C   0  0  0  0  0  0  0  0  0  0  0  0
    6.0371   -0.6385    5.3676 S   0  0  0  0  0  0  0  0  0  0  0  0
    4.8185    0.4983    5.7110 C   0  0  0  0  0  0  0  0  0  0  0  0
    3.4837    0.3619    5.9913 C   0  0  0  0  0  0  0  0  0  0  0  0
    2.7506   -0.6523    6.6186 C   0  0  0  0  0  0  0  0  0  0  0  0
    1.3260   -0.5528    6.6341 C   0  0  0  0  0  0  0  0  0  0  0  0
    0.6511   -1.5705    7.2236 N   0  0  0  0  0  0  0  0  0  0  0  0
    1.9248   -2.5123    7.7087 S   0  0  0  0  0  0  0  0  0  0  0  0
    3.3015   -1.7389    7.2115 N   0  0  0  0  0  0  0  0  0  0  0  0
    0.7092    0.5206    5.9710 C   0  0  0  0  0  0  0  0  0  0  0  0
   -0.5788    0.6486    5.5215 C   0  0  0  0  0  0  0  0  0  0  0  0
   -1.8763   -0.4369    5.3962 S   0  0  0  0  0  0  0  0  0  0  0  0
   -2.4703    0.3572    4.0168 C   0  0  0  0  0  0  0  0  0  0  0  0
   -3.3709   -0.0614    3.0382 C   0  0  0  0  0  0  0  0  0  0  0  0
   -4.1645   -1.2971    3.1550 C   0  0  0  0  0  0  0  0  0  0  0  0
   -3.8384   -2.4250    2.3891 C   0  0  0  0  0  0  0  0  0  0  0  0
   -4.5727   -3.6066    2.5276 C   0  0  0  0  0  0  0  0  0  0  0  0
   -5.6369   -3.6697    3.4276 C   0  0  0  0  0  0  0  0  0  0  0  0
   -5.9756   -2.5456    4.2002 C   0  0  0  0  0  0  0  0  0  0  0  0
   -7.1141   -2.6115    5.1854 C   0  0  0  0  0  0  0  0  0  0  0  0
   -6.6180   -3.0225    6.5679 C   0  0  0  0  0  0  0  0  0  0  0  0
   -5.2176   -1.3719    4.0783 C   0  0  0  0  0  0  0  0  0  0  0  0
   -3.2271    0.6945    1.8618 C   0  0  0  0  0  0  0  0  0  0  0  0
   -1.9679    1.8163    2.0505 S   0  0  0  0  0  0  0  0  0  0  0  0
   -1.6413    1.3827    3.6399 C   0  0  0  0  0  0  0  0  0  0  0  0
   -0.5577    1.5549    4.5003 C   0  0  0  0  0  0  0  0  0  0  0  0
    0.6880    2.0577    4.2814 N   0  0  0  0  0  0  0  0  0  0  0  0
    1.4546    1.4630    5.2502 C   0  0  0  0  0  0  0  0  0  0  0  0
    2.8623    1.4395    5.3536 C   0  0  0  0  0  0  0  0  0  0  0  0
    3.7636    2.2944    4.7904 N   0  0  0  0  0  0  0  0  0  0  0  0
    4.9417    1.6407    4.9639 C   0  0  0  0  0  0  0  0  0  0  0  0
    6.0085    1.5405    4.0837 C   0  0  0  0  0  0  0  0  0  0  0  0
    6.3907    2.3134    2.6572 S   0  0  0  0  0  0  0  0  0  0  0  0
    3.6620    3.7451    5.0378 C   0  0  0  0  0  0  0  0  0  0  0  0
    4.4080    4.5753    3.9977 C   0  0  0  0  0  0  0  0  0  0  0  0
    1.1537    2.5907    2.9900 C   0  0  0  0  0  0  0  0  0  0  0  0
    1.5973    1.4612    2.0623 C   0  0  0  0  0  0  0  0  0  0  0  0
   -3.7610    0.3168    0.5581 C   0  0  0  0  0  0  0  0  0  0  0  0
   -4.9937    0.6999    0.0087 C   0  0  0  0  0  0  0  0  0  0  0  0
   -5.7051    1.8799    0.4163 N   0  0  0  0  0  0  0  0  0  0  0  0
   -5.7823    3.0009   -0.4929 C   0  0  0  0  0  0  0  0  0  0  0  0
   -4.7114    3.3000   -1.3562 C   0  0  0  0  0  0  0  0  0  0  0  0
   -4.7993    4.3542   -2.2643 C   0  0  0  0  0  0  0  0  0  0  0  0
   -5.9624    5.1315   -2.3298 C   0  0  0  0  0  0  0  0  0  0  0  0
   -6.0468    6.2808   -3.2922 C   0  0  0  0  0  0  0  0  0  0  0  0
   -7.0222    4.8624   -1.4516 C   0  0  0  0  0  0  0  0  0  0  0  0
   -6.9350    3.8027   -0.5405 C   0  0  0  0  0  0  0  0  0  0  0  0
   -6.1319    2.0169    1.7806 C   0  0  0  0  0  0  0  0  0  0  0  0
   -7.0162    1.0877    2.3424 C   0  0  0  0  0  0  0  0  0  0  0  0
   -7.4304    1.2270    3.6701 C   0  0  0  0  0  0  0  0  0  0  0  0
   -6.9270    2.2685    4.4633 C   0  0  0  0  0  0  0  0  0  0  0  0
   -7.3767    2.4214    5.8864 C   0  0  0  0  0  0  0  0  0  0  0  0
   -6.0461    3.2014    3.8990 C   0  0  0  0  0  0  0  0  0  0  0  0
   -5.6560    3.0778    2.5651 C   0  0  0  0  0  0  0  0  0  0  0  0
   -5.1754    0.0957   -1.2362 C   0  0  0  0  0  0  0  0  0  0  0  0
   -6.3917    0.1008   -2.3944 S   0  0  0  0  0  0  0  0  0  0  0  0
   -5.5085   -0.8289   -3.5202 C   0  0  0  0  0  0  0  0  0  0  0  0
   -4.2484   -1.1343   -2.9723 C   0  0  0  0  0  0  0  0  0  0  0  0
   -3.1520   -1.7309   -3.6845 N   0  0  0  0  0  0  0  0  0  0  0  0
   -2.9987   -3.1534   -3.5796 C   0  0  0  0  0  0  0  0  0  0  0  0
   -3.4676   -3.9940   -4.5977 C   0  0  0  0  0  0  0  0  0  0  0  0
   -3.2680   -5.3758   -4.5203 C   0  0  0  0  0  0  0  0  0  0  0  0
   -2.5829   -5.9299   -3.4295 C   0  0  0  0  0  0  0  0  0  0  0  0
   -2.3538   -7.4121   -3.3639 C   0  0  0  0  0  0  0  0  0  0  0  0
   -2.1051   -5.0865   -2.4142 C   0  0  0  0  0  0  0  0  0  0  0  0
   -2.3106   -3.7079   -2.4935 C   0  0  0  0  0  0  0  0  0  0  0  0
   -2.0428   -0.9081   -4.1469 C   0  0  0  0  0  0  0  0  0  0  0  0
   -0.9537   -1.4849   -4.8324 C   0  0  0  0  0  0  0  0  0  0  0  0
    0.0938   -0.6898   -5.3073 C   0  0  0  0  0  0  0  0  0  0  0  0
    0.0797    0.6979   -5.1139 C   0  0  0  0  0  0  0  0  0  0  0  0
    1.1710    1.5619   -5.6759 C   0  0  0  0  0  0  0  0  0  0  0  0
   -1.0050    1.2882   -4.4546 C   0  0  0  0  0  0  0  0  0  0  0  0
   -2.0420    0.4933   -3.9560 C   0  0  0  0  0  0  0  0  0  0  0  0
   -4.1263   -0.6325   -1.6846 C   0  0  0  0  0  0  0  0  0  0  0  0
   -2.8947   -0.6324   -0.5556 S   0  0  0  0  0  0  0  0  0  0  0  0
   -6.1122   -1.4661   -4.7011 C   0  0  0  0  0  0  0  0  0  0  0  0
   -5.6093   -1.3759   -5.9429 C   0  0  0  0  0  0  0  0  0  0  0  0
   -4.7070   -0.3201   -6.4055 C   0  0  0  0  0  0  0  0  0  0  0  0
   -4.3078    0.6627   -5.7290 O   0  0  0  0  0  0  0  0  0  0  0  0
   -4.5420   -0.4523   -7.8343 C   0  0  0  0  0  0  0  0  0  0  0  0
   -3.7875    0.3525   -8.6851 C   0  0  0  0  0  0  0  0  0  0  0  0
   -3.8235    0.0961  -10.0622 C   0  0  0  0  0  0  0  0  0  0  0  0
   -2.8577    1.0949  -11.1335 Cl  0  0  0  0  0  0  0  0  0  0  0  0
   -4.6402   -0.9472  -10.5631 C   0  0  0  0  0  0  0  0  0  0  0  0
   -4.7490   -1.3062  -12.4417 Br  0  0  0  0  0  0  0  0  0  0  0  0
   -5.4018   -1.7397   -9.6813 C   0  0  0  0  0  0  0  0  0  0  0  0
   -5.3190   -1.5011   -8.2990 C   0  0  0  0  0  0  0  0  0  0  0  0
   -5.9787   -2.1871   -7.1470 C   0  0  0  0  0  0  0  0  0  0  0  0
   -6.5592   -3.4196   -7.1517 C   0  0  0  0  0  0  0  0  0  0  0  0
   -6.9208   -4.1115   -5.9371 C   0  0  0  0  0  0  0  0  0  0  0  0
   -7.1995   -4.6735   -4.9621 N   0  0  0  0  0  0  0  0  0  0  0  0
   -6.7186   -4.1956   -8.3491 C   0  0  0  0  0  0  0  0  0  0  0  0
   -6.8447   -4.8336   -9.3067 N   0  0  0  0  0  0  0  0  0  0  0  0
    9.7419    2.5704   -3.3174 H   0  0  0  0  0  0  0  0  0  0  0  0
    9.8896    7.8315   -4.5269 H   0  0  0  0  0  0  0  0  0  0  0  0
    6.7065    7.4756   -0.7068 H   0  0  0  0  0  0  0  0  0  0  0  0
    8.5914    0.1648   -2.2752 H   0  0  0  0  0  0  0  0  0  0  0  0
    5.3790   -1.6813    0.7177 H   0  0  0  0  0  0  0  0  0  0  0  0
    5.6736   -0.0122    0.1398 H   0  0  0  0  0  0  0  0  0  0  0  0
    4.3440   -1.3215   -1.5096 H   0  0  0  0  0  0  0  0  0  0  0  0
    5.9542   -0.8782   -2.2070 H   0  0  0  0  0  0  0  0  0  0  0  0
    5.6564   -2.5609   -1.6061 H   0  0  0  0  0  0  0  0  0  0  0  0
   10.3263    0.3980    2.6629 H   0  0  0  0  0  0  0  0  0  0  0  0
   12.0082   -1.3928    2.5940 H   0  0  0  0  0  0  0  0  0  0  0  0
   11.3662   -3.7332    3.0488 H   0  0  0  0  0  0  0  0  0  0  0  0
    7.8771   -4.9152    3.2703 H   0  0  0  0  0  0  0  0  0  0  0  0
    9.5996   -5.3987    3.1879 H   0  0  0  0  0  0  0  0  0  0  0  0
    8.0842   -4.3664    5.6662 H   0  0  0  0  0  0  0  0  0  0  0  0
    9.8713   -4.6467    5.6191 H   0  0  0  0  0  0  0  0  0  0  0  0
    8.7339   -6.0281    5.3812 H   0  0  0  0  0  0  0  0  0  0  0  0
    7.2844   -2.5007    3.6460 H   0  0  0  0  0  0  0  0  0  0  0  0
   -2.9987   -2.4008    1.7044 H   0  0  0  0  0  0  0  0  0  0  0  0
   -4.3029   -4.4760    1.9420 H   0  0  0  0  0  0  0  0  0  0  0  0
   -6.1928   -4.5923    3.5312 H   0  0  0  0  0  0  0  0  0  0  0  0
   -7.8757   -3.3407    4.8420 H   0  0  0  0  0  0  0  0  0  0  0  0
   -7.6170   -1.6223    5.2553 H   0  0  0  0  0  0  0  0  0  0  0  0
   -6.1437   -4.0281    6.5229 H   0  0  0  0  0  0  0  0  0  0  0  0
   -7.4732   -3.0615    7.2746 H   0  0  0  0  0  0  0  0  0  0  0  0
   -5.8796   -2.2808    6.9456 H   0  0  0  0  0  0  0  0  0  0  0  0
   -5.4457   -0.5118    4.6992 H   0  0  0  0  0  0  0  0  0  0  0  0
    2.6003    4.0659    5.0647 H   0  0  0  0  0  0  0  0  0  0  0  0
    4.0662    3.9704    6.0437 H   0  0  0  0  0  0  0  0  0  0  0  0
    4.1263    5.6423    4.1073 H   0  0  0  0  0  0  0  0  0  0  0  0
    5.4995    4.4919    4.1685 H   0  0  0  0  0  0  0  0  0  0  0  0
    4.1582    4.2406    2.9725 H   0  0  0  0  0  0  0  0  0  0  0  0
    1.9920    3.2856    3.1127 H   0  0  0  0  0  0  0  0  0  0  0  0
    0.3564    3.1855    2.5071 H   0  0  0  0  0  0  0  0  0  0  0  0
    2.4765    0.9366    2.4901 H   0  0  0  0  0  0  0  0  0  0  0  0
    0.7792    0.7279    1.9123 H   0  0  0  0  0  0  0  0  0  0  0  0
    1.8913    1.8850    1.0765 H   0  0  0  0  0  0  0  0  0  0  0  0
   -3.8026    2.7154   -1.3250 H   0  0  0  0  0  0  0  0  0  0  0  0
   -3.9594    4.5656   -2.9147 H   0  0  0  0  0  0  0  0  0  0  0  0
   -7.0958    6.4437   -3.6193 H   0  0  0  0  0  0  0  0  0  0  0  0
   -5.6711    7.1991   -2.7970 H   0  0  0  0  0  0  0  0  0  0  0  0
   -5.4345    6.0802   -4.1975 H   0  0  0  0  0  0  0  0  0  0  0  0
   -7.9143    5.4720   -1.4760 H   0  0  0  0  0  0  0  0  0  0  0  0
   -7.7755    3.5938    0.1121 H   0  0  0  0  0  0  0  0  0  0  0  0
   -7.3935    0.2657    1.7433 H   0  0  0  0  0  0  0  0  0  0  0  0
   -8.1329    0.5161    4.0815 H   0  0  0  0  0  0  0  0  0  0  0  0
   -6.5882    2.9089    6.4963 H   0  0  0  0  0  0  0  0  0  0  0  0
   -8.2952    3.0471    5.9197 H   0  0  0  0  0  0  0  0  0  0  0  0
   -7.5964    1.4313    6.3364 H   0  0  0  0  0  0  0  0  0  0  0  0
   -5.6577    4.0180    4.4910 H   0  0  0  0  0  0  0  0  0  0  0  0
   -4.9621    3.7934    2.1426 H   0  0  0  0  0  0  0  0  0  0  0  0
   -3.9666   -3.5762   -5.4616 H   0  0  0  0  0  0  0  0  0  0  0  0
   -3.6367   -6.0146   -5.3136 H   0  0  0  0  0  0  0  0  0  0  0  0
   -1.8140   -7.7480   -4.2756 H   0  0  0  0  0  0  0  0  0  0  0  0
   -3.3290   -7.9369   -3.3089 H   0  0  0  0  0  0  0  0  0  0  0  0
   -1.7490   -7.6908   -2.4747 H   0  0  0  0  0  0  0  0  0  0  0  0
   -1.5555   -5.4916   -1.5747 H   0  0  0  0  0  0  0  0  0  0  0  0
   -1.9052   -3.0702   -1.7199 H   0  0  0  0  0  0  0  0  0  0  0  0
   -0.9223   -2.5472   -5.0218 H   0  0  0  0  0  0  0  0  0  0  0  0
    0.9158   -1.1602   -5.8353 H   0  0  0  0  0  0  0  0  0  0  0  0
    2.1011    0.9739   -5.8386 H   0  0  0  0  0  0  0  0  0  0  0  0
    0.8421    1.9914   -6.6462 H   0  0  0  0  0  0  0  0  0  0  0  0
    1.4060    2.3919   -4.9757 H   0  0  0  0  0  0  0  0  0  0  0  0
   -1.0530    2.3647   -4.3379 H   0  0  0  0  0  0  0  0  0  0  0  0
   -2.8634    0.9959   -3.4706 H   0  0  0  0  0  0  0  0  0  0  0  0
   -6.9987   -2.0490   -4.5181 H   0  0  0  0  0  0  0  0  0  0  0  0
   -3.1891    1.1634   -8.2871 H   0  0  0  0  0  0  0  0  0  0  0  0
   -6.0521   -2.4889  -10.0969 H   0  0  0  0  0  0  0  0  0  0  0  0
  1  2  2  3
  2  3  1  0
  3  4  2  0
  3  5  1  0
  5  6  2  0
  6  7  1  0
  7  8  1  0
  7  9  2  0
  9 10  1  0
  9 11  1  0
 11 12  2  0
 12 13  1  0
 13 14  2  3
 14 15  1  0
 15 16  3  0
 14 17  1  0
 17 18  3  0
  1 19  1  0
 19 20  2  0
 20 21  1  0
 21 22  1  0
 22 23  1  0
 23 24  1  0
 21 25  2  0
 25 26  1  0
 25 27  1  0
 27 28  2  0
 28 29  1  0
 29 30  2  0
 30 31  1  0
 31 32  2  0
 32 33  1  0
 33 34  1  0
 34 35  1  0
 33 36  2  0
 28 37  1  0
 37 38  1  0
 38 39  1  0
 39 40  1  0
 40 41  1  0
 41 42  1  0
 42 43  2  0
 43 44  1  0
 44 45  1  0
 42 46  1  0
 46 47  1  0
 47 48  1  0
 48 49  1  0
 49 50  1  0
 50 51  1  0
 51 52  2  0
 52 53  1  0
 53 54  2  0
 54 55  1  0
 55 56  1  0
 56 57  1  0
 55 58  2  0
 50 59  2  0
 59 60  1  0
 60 61  1  0
 61 62  1  0
 62 63  1  0
 63 64  1  0
 64 65  1  0
 65 66  1  0
 66 67  1  0
 67 68  1  0
 68 69  1  0
 66 70  1  0
 70 71  1  0
 63 72  1  0
 72 73  1  0
 59 74  1  0
 74 75  2  0
 75 76  1  0
 76 77  1  0
 77 78  2  0
 78 79  1  0
 79 80  2  0
 80 81  1  0
 80 82  1  0
 82 83  2  0
 76 84  1  0
 84 85  2  0
 85 86  1  0
 86 87  2  0
 87 88  1  0
 87 89  1  0
 89 90  2  0
 75 91  1  0
 91 92  1  0
 92 93  1  0
 93 94  2  0
 94 95  1  0
 95 96  1  0
 96 97  2  0
 97 98  1  0
 98 99  2  0
 99100  1  0
 99101  1  0
101102  2  0
 95103  1  0
103104  2  0
104105  1  0
105106  2  0
106107  1  0
106108  1  0
108109  2  0
 94110  1  0
110111  1  0
 93112  1  0
112113  2  3
113114  1  0
114115  2  0
114116  1  0
116117  2  0
117118  1  0
118119  1  0
118120  2  0
120121  1  0
120122  1  0
122123  2  0
123124  1  0
124125  2  3
125126  1  0
126127  3  0
125128  1  0
128129  3  0
 13  2  1  0
 26 19  1  0
 69 27  1  0
111 74  1  0
124113  1  0
 12  5  1  0
 36 29  1  0
 68 37  2  0
 83 77  1  0
 90 84  1  0
110 91  2  0
123116  1  0
 67 39  2  0
102 96  1  0
109103  1  0
 65 40  2  0
 45 41  2  0
 64 46  2  0
 62 47  2  0
 61 49  2  0
 58 51  1  0
  1130  1  0
  6131  1  0
 11132  1  0
 20133  1  0
 23134  1  0
 23135  1  0
 24136  1  0
 24137  1  0
 24138  1  0
 30139  1  0
 31140  1  0
 32141  1  0
 34142  1  0
 34143  1  0
 35144  1  0
 35145  1  0
 35146  1  0
 36147  1  0
 52148  1  0
 53149  1  0
 54150  1  0
 56151  1  0
 56152  1  0
 57153  1  0
 57154  1  0
 57155  1  0
 58156  1  0
 70157  1  0
 70158  1  0
 71159  1  0
 71160  1  0
 71161  1  0
 72162  1  0
 72163  1  0
 73164  1  0
 73165  1  0
 73166  1  0
 78167  1  0
 79168  1  0
 81169  1  0
 81170  1  0
 81171  1  0
 82172  1  0
 83173  1  0
 85174  1  0
 86175  1  0
 88176  1  0
 88177  1  0
 88178  1  0
 89179  1  0
 90180  1  0
 97181  1  0
 98182  1  0
100183  1  0
100184  1  0
100185  1  0
101186  1  0
102187  1  0
104188  1  0
105189  1  0
107190  1  0
107191  1  0
107192  1  0
108193  1  0
109194  1  0
112195  1  0
117196  1  0
122197  1  0
M  END

