
     RDKit          3D

250278  0  0  0  0  0  0  0  0999 V2000
   -1.9253   -0.9125    9.6307 C   0  0  0  0  0  0  0  0  0  0  0  0
   -1.6114    0.1269   10.4209 C   0  0  0  0  0  0  0  0  0  0  0  0
   -2.5522    0.8605   11.2781 C   0  0  0  0  0  0  0  0  0  0  0  0
   -3.7780    0.6098   11.4200 O   0  0  0  0  0  0  0  0  0  0  0  0
   -1.8322    1.9666   11.9052 C   0  0  0  0  0  0  0  0  0  0  0  0
   -2.3060    2.9725   12.7491 C   0  0  0  0  0  0  0  0  0  0  0  0
   -1.3997    3.9481   13.1951 C   0  0  0  0  0  0  0  0  0  0  0  0
   -0.0482    3.9058   12.7921 C   0  0  0  0  0  0  0  0  0  0  0  0
    0.4071    2.8841   11.9441 C   0  0  0  0  0  0  0  0  0  0  0  0
   -0.5106    1.9263   11.5130 C   0  0  0  0  0  0  0  0  0  0  0  0
   -0.3079    0.7901   10.6226 C   0  0  0  0  0  0  0  0  0  0  0  0
    0.8113    0.3883   10.2117 O   0  0  0  0  0  0  0  0  0  0  0  0
   -1.0161   -1.4693    8.6153 C   0  0  0  0  0  0  0  0  0  0  0  0
   -0.1773   -0.7317    7.7846 C   0  0  0  0  0  0  0  0  0  0  0  0
    0.4597   -1.6719    7.0099 C   0  0  0  0  0  0  0  0  0  0  0  0
    1.4591   -1.5298    6.0339 C   0  0  0  0  0  0  0  0  0  0  0  0
    1.9737   -0.2213    5.5796 C   0  0  0  0  0  0  0  0  0  0  0  0
    1.2113    0.9132    5.3117 C   0  0  0  0  0  0  0  0  0  0  0  0
    1.9703    1.9826    4.8234 C   0  0  0  0  0  0  0  0  0  0  0  0
    1.4240    3.1747    4.4780 F   0  0  0  0  0  0  0  0  0  0  0  0
    3.3251    1.6955    4.6922 C   0  0  0  0  0  0  0  0  0  0  0  0
    4.3868    2.6169    4.1721 C   0  0  0  0  0  0  0  0  0  0  0  0
    5.3671    3.0032    5.2765 C   0  0  0  0  0  0  0  0  0  0  0  0
    3.5789    0.1067    5.1811 S   0  0  0  0  0  0  0  0  0  0  0  0
    1.9352   -2.7292    5.4864 C   0  0  0  0  0  0  0  0  0  0  0  0
    1.4260   -3.9709    5.8305 C   0  0  0  0  0  0  0  0  0  0  0  0
    0.4131   -4.1166    6.8070 C   0  0  0  0  0  0  0  0  0  0  0  0
   -0.1546   -5.4235    7.2019 C   0  0  0  0  0  0  0  0  0  0  0  0
   -0.4541   -6.7241    6.1685 S   0  0  0  0  0  0  0  0  0  0  0  0
   -1.1468   -7.7245    7.3261 C   0  0  0  0  0  0  0  0  0  0  0  0
   -1.6587   -9.1122    7.0787 C   0  0  0  0  0  0  0  0  0  0  0  0
   -0.7812  -10.1483    7.7739 C   0  0  0  0  0  0  0  0  0  0  0  0
   -1.1557   -7.0489    8.5408 C   0  0  0  0  0  0  0  0  0  0  0  0
   -0.6013   -5.7664    8.4756 C   0  0  0  0  0  0  0  0  0  0  0  0
   -1.6481   -7.5758    9.6881 F   0  0  0  0  0  0  0  0  0  0  0  0
   -0.0322   -2.9105    7.3939 C   0  0  0  0  0  0  0  0  0  0  0  0
   -0.9264   -2.7582    8.3409 O   0  0  0  0  0  0  0  0  0  0  0  0
    2.1213   -4.8996    5.0637 C   0  0  0  0  0  0  0  0  0  0  0  0
    3.0110   -4.1358    4.3135 C   0  0  0  0  0  0  0  0  0  0  0  0
    2.8729   -2.8575    4.5914 O   0  0  0  0  0  0  0  0  0  0  0  0
    3.9640   -4.5900    3.2999 C   0  0  0  0  0  0  0  0  0  0  0  0
    4.9739   -3.7357    2.8665 C   0  0  0  0  0  0  0  0  0  0  0  0
    5.3437   -3.9912    1.5622 C   0  0  0  0  0  0  0  0  0  0  0  0
    5.8731   -2.8706    0.4352 S   0  0  0  0  0  0  0  0  0  0  0  0
    5.3318   -3.7994   -0.8654 C   0  0  0  0  0  0  0  0  0  0  0  0
    4.6220   -3.3348   -2.0221 C   0  0  0  0  0  0  0  0  0  0  0  0
    3.7448   -4.3206   -2.4656 C   0  0  0  0  0  0  0  0  0  0  0  0
    3.9172   -5.5817   -1.5930 C   0  0  0  0  0  0  0  0  0  0  0  0
    4.7216   -4.9623   -0.4511 C   0  0  0  0  0  0  0  0  0  0  0  0
    4.7023   -5.0465    0.9494 C   0  0  0  0  0  0  0  0  0  0  0  0
    3.5914   -5.6880    2.0470 S   0  0  0  0  0  0  0  0  0  0  0  0
    2.5641   -6.1708   -1.1582 C   0  0  0  0  0  0  0  0  0  0  0  0
    1.6428   -5.3682   -0.4520 C   0  0  0  0  0  0  0  0  0  0  0  0
    0.4041   -5.8800   -0.0459 C   0  0  0  0  0  0  0  0  0  0  0  0
    0.0440   -7.1976   -0.3608 C   0  0  0  0  0  0  0  0  0  0  0  0
   -1.2816   -7.7530    0.0900 C   0  0  0  0  0  0  0  0  0  0  0  0
   -1.1706   -8.3583    1.4853 C   0  0  0  0  0  0  0  0  0  0  0  0
    0.9378   -7.9994   -1.0810 C   0  0  0  0  0  0  0  0  0  0  0  0
    2.1719   -7.4882   -1.4949 C   0  0  0  0  0  0  0  0  0  0  0  0
    4.8889   -6.6015   -2.2254 C   0  0  0  0  0  0  0  0  0  0  0  0
    5.2994   -7.7271   -1.4761 C   0  0  0  0  0  0  0  0  0  0  0  0
    6.3095   -8.5752   -1.9405 C   0  0  0  0  0  0  0  0  0  0  0  0
    6.9504   -8.3150   -3.1611 C   0  0  0  0  0  0  0  0  0  0  0  0
    8.0881   -9.1780   -3.6330 C   0  0  0  0  0  0  0  0  0  0  0  0
    9.4315   -8.5312   -3.3052 C   0  0  0  0  0  0  0  0  0  0  0  0
    6.5709   -7.1892   -3.9020 C   0  0  0  0  0  0  0  0  0  0  0  0
    5.5719   -6.3356   -3.4343 C   0  0  0  0  0  0  0  0  0  0  0  0
    2.5573   -3.7733   -3.0248 C   0  0  0  0  0  0  0  0  0  0  0  0
    1.6124   -4.3760   -3.8976 C   0  0  0  0  0  0  0  0  0  0  0  0
    1.7541   -5.7359   -4.4331 C   0  0  0  0  0  0  0  0  0  0  0  0
    2.8178   -6.2067   -5.1902 C   0  0  0  0  0  0  0  0  0  0  0  0
    2.6231   -7.5042   -5.6727 C   0  0  0  0  0  0  0  0  0  0  0  0
    1.3901   -8.0417   -5.3207 C   0  0  0  0  0  0  0  0  0  0  0  0
    0.8754   -9.3888   -5.7205 C   0  0  0  0  0  0  0  0  0  0  0  0
    0.6899  -10.2896   -4.5041 C   0  0  0  0  0  0  0  0  0  0  0  0
    0.5398   -6.9002   -4.4238 S   0  0  0  0  0  0  0  0  0  0  0  0
    0.5626   -3.5505   -4.3495 C   0  0  0  0  0  0  0  0  0  0  0  0
   -0.2730   -3.6149   -5.8405 S   0  0  0  0  0  0  0  0  0  0  0  0
   -0.9997   -2.1005   -5.6268 C   0  0  0  0  0  0  0  0  0  0  0  0
   -2.1804   -1.4700   -6.1639 C   0  0  0  0  0  0  0  0  0  0  0  0
   -2.8648   -0.9240   -5.0822 C   0  0  0  0  0  0  0  0  0  0  0  0
   -2.1693   -1.2494   -3.7563 C   0  0  0  0  0  0  0  0  0  0  0  0
   -1.9211   -0.1046   -2.7615 C   0  0  0  0  0  0  0  0  0  0  0  0
   -1.5915    1.2007   -3.1791 C   0  0  0  0  0  0  0  0  0  0  0  0
   -1.3499    2.2167   -2.2443 C   0  0  0  0  0  0  0  0  0  0  0  0
   -1.3776    1.9415   -0.8696 C   0  0  0  0  0  0  0  0  0  0  0  0
   -1.1020    3.0283    0.1417 C   0  0  0  0  0  0  0  0  0  0  0  0
    0.2173    2.7877    0.8838 C   0  0  0  0  0  0  0  0  0  0  0  0
   -1.6536    0.6381   -0.4416 C   0  0  0  0  0  0  0  0  0  0  0  0
   -1.8917   -0.3722   -1.3725 C   0  0  0  0  0  0  0  0  0  0  0  0
   -3.0750   -2.3354   -3.1447 C   0  0  0  0  0  0  0  0  0  0  0  0
   -4.3673   -1.9537   -2.7168 C   0  0  0  0  0  0  0  0  0  0  0  0
   -5.2862   -2.8987   -2.2602 C   0  0  0  0  0  0  0  0  0  0  0  0
   -4.9382   -4.2549   -2.2064 C   0  0  0  0  0  0  0  0  0  0  0  0
   -5.9351   -5.2699   -1.7211 C   0  0  0  0  0  0  0  0  0  0  0  0
   -5.9542   -5.3242   -0.1964 C   0  0  0  0  0  0  0  0  0  0  0  0
   -3.6438   -4.6460   -2.5827 C   0  0  0  0  0  0  0  0  0  0  0  0
   -2.7224   -3.6991   -3.0515 C   0  0  0  0  0  0  0  0  0  0  0  0
   -0.8293   -1.7121   -4.3345 C   0  0  0  0  0  0  0  0  0  0  0  0
    0.2566   -2.3390   -3.7221 C   0  0  0  0  0  0  0  0  0  0  0  0
    1.3121   -1.6457   -3.0875 C   0  0  0  0  0  0  0  0  0  0  0  0
    2.4571   -2.3948   -2.7745 C   0  0  0  0  0  0  0  0  0  0  0  0
    3.8895   -1.8263   -2.1065 S   0  0  0  0  0  0  0  0  0  0  0  0
    1.4127   -0.1693   -3.1628 C   0  0  0  0  0  0  0  0  0  0  0  0
    1.7776    0.6973   -2.1403 C   0  0  0  0  0  0  0  0  0  0  0  0
    1.9171    2.0287   -2.5624 C   0  0  0  0  0  0  0  0  0  0  0  0
    1.6674    2.2079   -3.9205 C   0  0  0  0  0  0  0  0  0  0  0  0
    1.7160    3.5097   -4.6653 C   0  0  0  0  0  0  0  0  0  0  0  0
    0.3899    3.8033   -5.3651 C   0  0  0  0  0  0  0  0  0  0  0  0
    1.3335    0.7096   -4.6011 S   0  0  0  0  0  0  0  0  0  0  0  0
   -3.6154    0.1991   -5.4272 C   0  0  0  0  0  0  0  0  0  0  0  0
   -3.2526    0.7411   -6.6192 C   0  0  0  0  0  0  0  0  0  0  0  0
   -2.1694   -0.2931   -7.4013 S   0  0  0  0  0  0  0  0  0  0  0  0
   -3.5103    2.1131   -6.7514 C   0  0  0  0  0  0  0  0  0  0  0  0
   -4.1790    2.6008   -5.6162 C   0  0  0  0  0  0  0  0  0  0  0  0
   -4.3888    1.3449   -4.4949 S   0  0  0  0  0  0  0  0  0  0  0  0
   -4.2061    3.9924   -5.1584 C   0  0  0  0  0  0  0  0  0  0  0  0
   -5.0505    4.4574   -4.1557 C   0  0  0  0  0  0  0  0  0  0  0  0
   -4.5627    5.7025   -3.8389 C   0  0  0  0  0  0  0  0  0  0  0  0
   -4.9340    6.6049   -2.8275 C   0  0  0  0  0  0  0  0  0  0  0  0
   -6.0490    6.3573   -1.9005 C   0  0  0  0  0  0  0  0  0  0  0  0
   -6.2639    5.1907   -1.1722 C   0  0  0  0  0  0  0  0  0  0  0  0
   -7.3854    5.2665   -0.3379 C   0  0  0  0  0  0  0  0  0  0  0  0
   -7.7603    4.2570    0.4843 F   0  0  0  0  0  0  0  0  0  0  0  0
   -8.0532    6.4861   -0.4107 C   0  0  0  0  0  0  0  0  0  0  0  0
   -9.2315    6.9007    0.4165 C   0  0  0  0  0  0  0  0  0  0  0  0
   -8.7801    7.4254    1.7742 C   0  0  0  0  0  0  0  0  0  0  0  0
   -7.2423    7.4772   -1.4990 S   0  0  0  0  0  0  0  0  0  0  0  0
   -4.1434    7.7591   -2.7280 C   0  0  0  0  0  0  0  0  0  0  0  0
   -3.0668    7.9986   -3.5656 C   0  0  0  0  0  0  0  0  0  0  0  0
   -2.6950    7.0953   -4.5883 C   0  0  0  0  0  0  0  0  0  0  0  0
   -1.5153    7.2927   -5.4561 C   0  0  0  0  0  0  0  0  0  0  0  0
    0.0033    7.8310   -4.9580 S   0  0  0  0  0  0  0  0  0  0  0  0
    0.7471    7.6842   -6.4612 C   0  0  0  0  0  0  0  0  0  0  0  0
    2.1969    7.9427   -6.7406 C   0  0  0  0  0  0  0  0  0  0  0  0
    3.0311    6.6908   -6.4898 C   0  0  0  0  0  0  0  0  0  0  0  0
   -0.1837    7.1879   -7.3656 C   0  0  0  0  0  0  0  0  0  0  0  0
   -1.4471    6.9651   -6.8068 C   0  0  0  0  0  0  0  0  0  0  0  0
    0.1007    6.9249   -8.6633 F   0  0  0  0  0  0  0  0  0  0  0  0
   -3.4856    5.9334   -4.6826 C   0  0  0  0  0  0  0  0  0  0  0  0
   -3.3007    4.9008   -5.4738 O   0  0  0  0  0  0  0  0  0  0  0  0
   -2.5174    9.1965   -3.1467 C   0  0  0  0  0  0  0  0  0  0  0  0
   -3.2891    9.5799   -2.0524 C   0  0  0  0  0  0  0  0  0  0  0  0
   -4.2565    8.7143   -1.8400 O   0  0  0  0  0  0  0  0  0  0  0  0
   -3.0600   10.7799   -1.2367 C   0  0  0  0  0  0  0  0  0  0  0  0
   -2.4700   10.7350   -0.0317 C   0  0  0  0  0  0  0  0  0  0  0  0
   -1.6799   11.8528    0.4815 C   0  0  0  0  0  0  0  0  0  0  0  0
   -1.8495   13.0691    0.2047 O   0  0  0  0  0  0  0  0  0  0  0  0
   -0.6022   11.3106    1.2816 C   0  0  0  0  0  0  0  0  0  0  0  0
    0.4665   11.9860    1.8772 C   0  0  0  0  0  0  0  0  0  0  0  0
    1.4527   11.2310    2.5239 C   0  0  0  0  0  0  0  0  0  0  0  0
    1.3538    9.8256    2.5800 C   0  0  0  0  0  0  0  0  0  0  0  0
    2.8675    8.6994    3.5134 I   0  0  0  0  0  0  0  0  0  0  0  0
    0.2619    9.1684    1.9844 C   0  0  0  0  0  0  0  0  0  0  0  0
   -0.7253    9.9332    1.3472 C   0  0  0  0  0  0  0  0  0  0  0  0
   -1.9837    9.5176    0.6779 C   0  0  0  0  0  0  0  0  0  0  0  0
   -2.7596    8.4816    1.0609 C   0  0  0  0  0  0  0  0  0  0  0  0
   -2.2268    7.3272    1.7422 C   0  0  0  0  0  0  0  0  0  0  0  0
   -1.7963    6.4019    2.2856 N   0  0  0  0  0  0  0  0  0  0  0  0
   -4.1961    8.5546    0.9759 C   0  0  0  0  0  0  0  0  0  0  0  0
   -5.3508    8.6158    0.9247 N   0  0  0  0  0  0  0  0  0  0  0  0
   -2.9156   -1.3467    9.7060 H   0  0  0  0  0  0  0  0  0  0  0  0
   -3.3467    3.0073   13.0449 H   0  0  0  0  0  0  0  0  0  0  0  0
   -1.7405    4.7392   13.8492 H   0  0  0  0  0  0  0  0  0  0  0  0
    0.6397    4.6666   13.1367 H   0  0  0  0  0  0  0  0  0  0  0  0
    1.4426    2.8503   11.6247 H   0  0  0  0  0  0  0  0  0  0  0  0
   -0.0559    0.3417    7.7633 H   0  0  0  0  0  0  0  0  0  0  0  0
    0.1374    0.9574    5.4234 H   0  0  0  0  0  0  0  0  0  0  0  0
    4.9354    2.1096    3.3510 H   0  0  0  0  0  0  0  0  0  0  0  0
    3.9251    3.5407    3.7589 H   0  0  0  0  0  0  0  0  0  0  0  0
    6.1511    3.6726    4.8602 H   0  0  0  0  0  0  0  0  0  0  0  0
    5.8587    2.0946    5.6916 H   0  0  0  0  0  0  0  0  0  0  0  0
    4.8381    3.5385    6.0929 H   0  0  0  0  0  0  0  0  0  0  0  0
   -2.7015   -9.1958    7.4501 H   0  0  0  0  0  0  0  0  0  0  0  0
   -1.6601   -9.3191    5.9848 H   0  0  0  0  0  0  0  0  0  0  0  0
   -1.1541  -11.1683    7.5375 H   0  0  0  0  0  0  0  0  0  0  0  0
   -0.8173  -10.0069    8.8774 H   0  0  0  0  0  0  0  0  0  0  0  0
    0.2715  -10.0610    7.4265 H   0  0  0  0  0  0  0  0  0  0  0  0
   -0.5269   -5.1148    9.3372 H   0  0  0  0  0  0  0  0  0  0  0  0
    2.0178   -5.9756    5.0464 H   0  0  0  0  0  0  0  0  0  0  0  0
    5.2422   -2.8169    3.3792 H   0  0  0  0  0  0  0  0  0  0  0  0
    1.8902   -4.3432   -0.2011 H   0  0  0  0  0  0  0  0  0  0  0  0
   -0.2730   -5.2443    0.5145 H   0  0  0  0  0  0  0  0  0  0  0  0
   -1.6333   -8.5336   -0.6189 H   0  0  0  0  0  0  0  0  0  0  0  0
   -2.0487   -6.9488    0.1009 H   0  0  0  0  0  0  0  0  0  0  0  0
   -0.4554   -9.2074    1.4829 H   0  0  0  0  0  0  0  0  0  0  0  0
   -0.8263   -7.5938    2.2138 H   0  0  0  0  0  0  0  0  0  0  0  0
   -2.1651   -8.7333    1.8105 H   0  0  0  0  0  0  0  0  0  0  0  0
    0.6706   -9.0178   -1.3382 H   0  0  0  0  0  0  0  0  0  0  0  0
    2.7959   -8.1334   -2.0963 H   0  0  0  0  0  0  0  0  0  0  0  0
    4.8495   -7.9322   -0.5131 H   0  0  0  0  0  0  0  0  0  0  0  0
    6.6147   -9.4211   -1.3320 H   0  0  0  0  0  0  0  0  0  0  0  0
    8.0156   -9.3266   -4.7316 H   0  0  0  0  0  0  0  0  0  0  0  0
    8.0400  -10.1801   -3.1552 H   0  0  0  0  0  0  0  0  0  0  0  0
   10.2566   -9.1825   -3.6629 H   0  0  0  0  0  0  0  0  0  0  0  0
    9.5394   -8.3930   -2.2071 H   0  0  0  0  0  0  0  0  0  0  0  0
    9.5200   -7.5434   -3.8071 H   0  0  0  0  0  0  0  0  0  0  0  0
    7.0749   -6.9525   -4.8329 H   0  0  0  0  0  0  0  0  0  0  0  0
    5.3888   -5.4371   -4.0055 H   0  0  0  0  0  0  0  0  0  0  0  0
    3.6743   -5.6011   -5.4470 H   0  0  0  0  0  0  0  0  0  0  0  0
    3.3486   -8.0208   -6.2900 H   0  0  0  0  0  0  0  0  0  0  0  0
   -0.0950   -9.2667   -6.2455 H   0  0  0  0  0  0  0  0  0  0  0  0
    1.5870   -9.8731   -6.4217 H   0  0  0  0  0  0  0  0  0  0  0  0
    1.6426  -10.3678   -3.9359 H   0  0  0  0  0  0  0  0  0  0  0  0
   -0.1042   -9.8841   -3.8372 H   0  0  0  0  0  0  0  0  0  0  0  0
    0.3933  -11.3098   -4.8361 H   0  0  0  0  0  0  0  0  0  0  0  0
   -1.5055    1.4373   -4.2314 H   0  0  0  0  0  0  0  0  0  0  0  0
   -1.1162    3.2138   -2.5854 H   0  0  0  0  0  0  0  0  0  0  0  0
   -1.9288    3.0605    0.8828 H   0  0  0  0  0  0  0  0  0  0  0  0
   -1.0531    4.0258   -0.3467 H   0  0  0  0  0  0  0  0  0  0  0  0
    0.3435    3.5512    1.6842 H   0  0  0  0  0  0  0  0  0  0  0  0
    0.2278    1.7858    1.3654 H   0  0  0  0  0  0  0  0  0  0  0  0
    1.0775    2.8609    0.1898 H   0  0  0  0  0  0  0  0  0  0  0  0
   -1.6709    0.3958    0.6159 H   0  0  0  0  0  0  0  0  0  0  0  0
   -2.0578   -1.3745   -0.9952 H   0  0  0  0  0  0  0  0  0  0  0  0
   -4.6720   -0.9143   -2.7500 H   0  0  0  0  0  0  0  0  0  0  0  0
   -6.2769   -2.5690   -1.9639 H   0  0  0  0  0  0  0  0  0  0  0  0
   -5.6874   -6.2770   -2.1218 H   0  0  0  0  0  0  0  0  0  0  0  0
   -6.9510   -5.0123   -2.0950 H   0  0  0  0  0  0  0  0  0  0  0  0
   -6.1942   -4.3266    0.2272 H   0  0  0  0  0  0  0  0  0  0  0  0
   -6.7263   -6.0450    0.1396 H   0  0  0  0  0  0  0  0  0  0  0  0
   -4.9648   -5.6525    0.1859 H   0  0  0  0  0  0  0  0  0  0  0  0
   -3.3503   -5.6885   -2.5243 H   0  0  0  0  0  0  0  0  0  0  0  0
   -1.7575   -4.0611   -3.3504 H   0  0  0  0  0  0  0  0  0  0  0  0
    1.9491    0.3812   -1.1184 H   0  0  0  0  0  0  0  0  0  0  0  0
    2.1969    2.8346   -1.9003 H   0  0  0  0  0  0  0  0  0  0  0  0
    1.9465    4.3430   -3.9663 H   0  0  0  0  0  0  0  0  0  0  0  0
    2.5270    3.4578   -5.4223 H   0  0  0  0  0  0  0  0  0  0  0  0
    0.1710    3.0199   -6.1230 H   0  0  0  0  0  0  0  0  0  0  0  0
    0.4490    4.7840   -5.8806 H   0  0  0  0  0  0  0  0  0  0  0  0
   -0.4485    3.8500   -4.6392 H   0  0  0  0  0  0  0  0  0  0  0  0
   -3.0529    2.7399   -7.5032 H   0  0  0  0  0  0  0  0  0  0  0  0
   -5.8457    3.9130   -3.6605 H   0  0  0  0  0  0  0  0  0  0  0  0
   -5.6167    4.3237   -1.2174 H   0  0  0  0  0  0  0  0  0  0  0  0
   -9.7987    7.6944   -0.1174 H   0  0  0  0  0  0  0  0  0  0  0  0
   -9.9107    6.0323    0.5621 H   0  0  0  0  0  0  0  0  0  0  0  0
   -9.6672    7.7212    2.3753 H   0  0  0  0  0  0  0  0  0  0  0  0
   -8.1259    8.3166    1.6459 H   0  0  0  0  0  0  0  0  0  0  0  0
   -8.2205    6.6332    2.3214 H   0  0  0  0  0  0  0  0  0  0  0  0
    2.5588    8.7612   -6.0819 H   0  0  0  0  0  0  0  0  0  0  0  0
    2.3228    8.2684   -7.7947 H   0  0  0  0  0  0  0  0  0  0  0  0
    2.6562    5.8426   -7.1029 H   0  0  0  0  0  0  0  0  0  0  0  0
    4.0901    6.8923   -6.7656 H   0  0  0  0  0  0  0  0  0  0  0  0
    2.9903    6.4160   -5.4132 H   0  0  0  0  0  0  0  0  0  0  0  0
   -2.2841    6.5791   -7.3734 H   0  0  0  0  0  0  0  0  0  0  0  0
   -1.6631    9.7150   -3.5577 H   0  0  0  0  0  0  0  0  0  0  0  0
   -3.1196   11.7313   -1.7508 H   0  0  0  0  0  0  0  0  0  0  0  0
    0.5440   13.0662    1.8148 H   0  0  0  0  0  0  0  0  0  0  0  0
    2.2969   11.7314    2.9802 H   0  0  0  0  0  0  0  0  0  0  0  0
    0.2258    8.0905    1.9961 H   0  0  0  0  0  0  0  0  0  0  0  0
  1  2  2  3
  2  3  1  0
  3  4  2  0
  3  5  1  0
  5  6  2  0
  6  7  1  0
  7  8  2  0
  8  9  1  0
  9 10  2  0
 10 11  1  0
 11 12  2  0
  1 13  1  0
 13 14  2  0
 14 15  1  0
 15 16  2  0
 16 17  1  0
 17 18  2  0
 18 19  1  0
 19 20  1  0
 19 21  2  0
 21 22  1  0
 22 23  1  0
 21 24  1  0
 16 25  1  0
 25 26  2  0
 26 27  1  0
 27 28  1  0
 28 29  1  0
 29 30  1  0
 30 31  1  0
 31 32  1  0
 30 33  2  0
 33 34  1  0
 33 35  1  0
 27 36  2  0
 36 37  1  0
 26 38  1  0
 38 39  2  0
 39 40  1  0
 39 41  1  0
 41 42  2  0
 42 43  1  0
 43 44  1  0
 44 45  1  0
 45 46  1  0
 46 47  2  0
 47 48  1  0
 48 49  1  0
 49 50  1  0
 50 51  1  0
 48 52  1  0
 52 53  2  0
 53 54  1  0
 54 55  2  0
 55 56  1  0
 56 57  1  0
 55 58  1  0
 58 59  2  0
 48 60  1  0
 60 61  2  0
 61 62  1  0
 62 63  2  0
 63 64  1  0
 64 65  1  0
 63 66  1  0
 66 67  2  0
 47 68  1  0
 68 69  2  0
 69 70  1  0
 70 71  2  0
 71 72  1  0
 72 73  2  0
 73 74  1  0
 74 75  1  0
 73 76  1  0
 69 77  1  0
 77 78  1  0
 78 79  1  0
 79 80  1  0
 80 81  2  0
 81 82  1  0
 82 83  1  0
 83 84  2  0
 84 85  1  0
 85 86  2  0
 86 87  1  0
 87 88  1  0
 86 89  1  0
 89 90  2  0
 82 91  1  0
 91 92  2  0
 92 93  1  0
 93 94  2  0
 94 95  1  0
 95 96  1  0
 94 97  1  0
 97 98  2  0
 82 99  1  0
 99100  1  0
100101  1  0
101102  2  0
102103  1  0
101104  1  0
104105  2  0
105106  1  0
106107  2  0
107108  1  0
108109  1  0
107110  1  0
 81111  1  0
111112  2  0
112113  1  0
112114  1  0
114115  2  0
115116  1  0
115117  1  0
117118  2  0
118119  1  0
119120  2  0
120121  1  0
121122  2  0
122123  1  0
123124  1  0
123125  2  0
125126  1  0
126127  1  0
125128  1  0
120129  1  0
129130  2  0
130131  1  0
131132  1  0
132133  1  0
133134  1  0
134135  1  0
135136  1  0
134137  2  0
137138  1  0
137139  1  0
131140  2  0
140141  1  0
130142  1  0
142143  2  0
143144  1  0
143145  1  0
145146  2  3
146147  1  0
147148  2  0
147149  1  0
149150  2  0
150151  1  0
151152  2  0
152153  1  0
152154  1  0
154155  2  0
155156  1  0
156157  2  3
157158  1  0
158159  3  0
157160  1  0
160161  3  0
 11  2  1  0
 37 13  1  0
 51 41  1  0
 59 52  1  0
 67 60  1  0
102 68  1  0
110104  1  0
116111  1  0
141117  1  0
156146  1  0
 10  5  1  0
 36 15  1  0
 50 43  2  0
 76 70  1  0
100 77  2  0
140119  1  0
155149  1  0
 24 17  1  0
 40 25  1  0
 49 45  2  0
 99 79  2  0
128121  1  0
144129  1  0
 34 28  2  0
103 46  1  0
138132  2  0
113 80  1  0
 90 83  1  0
 98 91  1  0
  1162  1  0
  6163  1  0
  7164  1  0
  8165  1  0
  9166  1  0
 14167  1  0
 18168  1  0
 22169  1  0
 22170  1  0
 23171  1  0
 23172  1  0
 23173  1  0
 31174  1  0
 31175  1  0
 32176  1  0
 32177  1  0
 32178  1  0
 34179  1  0
 38180  1  0
 42181  1  0
 53182  1  0
 54183  1  0
 56184  1  0
 56185  1  0
 57186  1  0
 57187  1  0
 57188  1  0
 58189  1  0
 59190  1  0
 61191  1  0
 62192  1  0
 64193  1  0
 64194  1  0
 65195  1  0
 65196  1  0
 65197  1  0
 66198  1  0
 67199  1  0
 71200  1  0
 72201  1  0
 74202  1  0
 74203  1  0
 75204  1  0
 75205  1  0
 75206  1  0
 84207  1  0
 85208  1  0
 87209  1  0
 87210  1  0
 88211  1  0
 88212  1  0
 88213  1  0
 89214  1  0
 90215  1  0
 92216  1  0
 93217  1  0
 95218  1  0
 95219  1  0
 96220  1  0
 96221  1  0
 96222  1  0
 97223  1  0
 98224  1  0
105225  1  0
106226  1  0
108227  1  0
108228  1  0
109229  1  0
109230  1  0
109231  1  0
114232  1  0
118233  1  0
122234  1  0
126235  1  0
126236  1  0
127237  1  0
127238  1  0
127239  1  0
135240  1  0
135241  1  0
136242  1  0
136243  1  0
136244  1  0
138245  1  0
142246  1  0
145247  1  0
150248  1  0
151249  1  0
154250  1  0
M  END

