
     RDKit          3D

163179  0  0  0  0  0  0  0  0999 V2000
   11.0273    0.7542    2.2200 C   0  0  0  0  0  0  0  0  0  0  0  0
   10.9306   -0.4851    2.7425 C   0  0  0  0  0  0  0  0  0  0  0  0
    9.6747   -1.2315    2.9041 C   0  0  0  0  0  0  0  0  0  0  0  0
    8.5095   -0.7585    2.8593 O   0  0  0  0  0  0  0  0  0  0  0  0
    9.9945   -2.6293    3.0915 C   0  0  0  0  0  0  0  0  0  0  0  0
    9.1150   -3.7123    3.1185 C   0  0  0  0  0  0  0  0  0  0  0  0
    9.6485   -5.0125    3.1756 C   0  0  0  0  0  0  0  0  0  0  0  0
    8.7311   -6.1985    3.1625 C   0  0  0  0  0  0  0  0  0  0  0  0
   11.0462   -5.1945    3.1542 C   0  0  0  0  0  0  0  0  0  0  0  0
   11.9125   -4.0873    3.1158 C   0  0  0  0  0  0  0  0  0  0  0  0
   11.3714   -2.7910    3.1147 C   0  0  0  0  0  0  0  0  0  0  0  0
   12.0371   -1.4594    3.0031 C   0  0  0  0  0  0  0  0  0  0  0  0
   13.3509   -1.1842    3.2270 C   0  0  0  0  0  0  0  0  0  0  0  0
   13.8915    0.1457    3.1937 C   0  0  0  0  0  0  0  0  0  0  0  0
   14.3420    1.2104    3.1639 N   0  0  0  0  0  0  0  0  0  0  0  0
   14.3002   -2.1947    3.6117 C   0  0  0  0  0  0  0  0  0  0  0  0
   15.0737   -3.0023    3.9178 N   0  0  0  0  0  0  0  0  0  0  0  0
    9.8599    1.4690    1.6550 C   0  0  0  0  0  0  0  0  0  0  0  0
    9.2332    2.5879    2.2829 C   0  0  0  0  0  0  0  0  0  0  0  0
    9.6382    3.1726    3.4999 O   0  0  0  0  0  0  0  0  0  0  0  0
   10.8087    2.9306    4.2850 C   0  0  0  0  0  0  0  0  0  0  0  0
   12.0158    3.6526    3.6891 C   0  0  0  0  0  0  0  0  0  0  0  0
    8.0993    3.1709    1.6790 C   0  0  0  0  0  0  0  0  0  0  0  0
    7.5027    4.3050    2.2564 O   0  0  0  0  0  0  0  0  0  0  0  0
    6.7600    4.2669    3.4772 C   0  0  0  0  0  0  0  0  0  0  0  0
    7.4059    5.1490    4.5422 C   0  0  0  0  0  0  0  0  0  0  0  0
    7.5796    2.6600    0.4702 C   0  0  0  0  0  0  0  0  0  0  0  0
    8.2071    1.5642   -0.1473 C   0  0  0  0  0  0  0  0  0  0  0  0
    9.3489    0.9834    0.4346 C   0  0  0  0  0  0  0  0  0  0  0  0
    9.9192   -0.0952   -0.1794 N   0  0  0  0  0  0  0  0  0  0  0  0
    9.4069   -0.6268   -1.3183 C   0  0  0  0  0  0  0  0  0  0  0  0
    8.2632   -0.0674   -1.8765 C   0  0  0  0  0  0  0  0  0  0  0  0
    7.6916    1.0078   -1.2803 N   0  0  0  0  0  0  0  0  0  0  0  0
    6.3047    3.1839   -0.0688 C   0  0  0  0  0  0  0  0  0  0  0  0
    5.9602    3.4164   -1.7368 S   0  0  0  0  0  0  0  0  0  0  0  0
    4.3198    3.5503   -1.4625 C   0  0  0  0  0  0  0  0  0  0  0  0
    3.1457    3.4923   -2.1364 C   0  0  0  0  0  0  0  0  0  0  0  0
    2.6230    3.4819   -3.7459 S   0  0  0  0  0  0  0  0  0  0  0  0
    1.0423    3.2069   -3.1816 C   0  0  0  0  0  0  0  0  0  0  0  0
   -0.2000    3.0821   -3.7272 C   0  0  0  0  0  0  0  0  0  0  0  0
   -0.6507    3.3763   -5.0161 C   0  0  0  0  0  0  0  0  0  0  0  0
   -2.0496    3.4424   -5.2442 C   0  0  0  0  0  0  0  0  0  0  0  0
   -2.4564    3.7773   -6.4933 N   0  0  0  0  0  0  0  0  0  0  0  0
   -0.9850    3.9781   -7.2223 S   0  0  0  0  0  0  0  0  0  0  0  0
    0.1575    3.6719   -6.0647 N   0  0  0  0  0  0  0  0  0  0  0  0
   -2.9214    3.1462   -4.1898 C   0  0  0  0  0  0  0  0  0  0  0  0
   -4.2792    3.0297   -4.1681 C   0  0  0  0  0  0  0  0  0  0  0  0
   -5.5555    3.0071   -5.2936 S   0  0  0  0  0  0  0  0  0  0  0  0
   -6.5806    2.2741   -4.1458 C   0  0  0  0  0  0  0  0  0  0  0  0
   -7.8808    1.7554   -4.2009 C   0  0  0  0  0  0  0  0  0  0  0  0
   -8.8066    1.9036   -5.3732 C   0  0  0  0  0  0  0  0  0  0  0  0
   -9.3625    3.3217   -5.4278 C   0  0  0  0  0  0  0  0  0  0  0  0
   -8.2111    1.1170   -2.9893 C   0  0  0  0  0  0  0  0  0  0  0  0
   -6.8894    1.1732   -1.9303 S   0  0  0  0  0  0  0  0  0  0  0  0
   -5.9181    2.0355   -2.9721 C   0  0  0  0  0  0  0  0  0  0  0  0
   -4.6031    2.4667   -2.9813 C   0  0  0  0  0  0  0  0  0  0  0  0
   -3.5254    2.1793   -2.2064 N   0  0  0  0  0  0  0  0  0  0  0  0
   -2.4706    2.7038   -2.9308 C   0  0  0  0  0  0  0  0  0  0  0  0
   -1.0626    2.7810   -2.6596 C   0  0  0  0  0  0  0  0  0  0  0  0
   -0.3626    2.8156   -1.4681 N   0  0  0  0  0  0  0  0  0  0  0  0
    0.9216    3.1008   -1.8284 C   0  0  0  0  0  0  0  0  0  0  0  0
    2.1589    3.3191   -1.1914 C   0  0  0  0  0  0  0  0  0  0  0  0
    2.6845    3.2985    0.0819 N   0  0  0  0  0  0  0  0  0  0  0  0
    4.0185    3.4109   -0.1520 C   0  0  0  0  0  0  0  0  0  0  0  0
    5.1154    3.2048    0.6779 C   0  0  0  0  0  0  0  0  0  0  0  0
    2.0718    3.5542    1.3930 C   0  0  0  0  0  0  0  0  0  0  0  0
    1.6247    5.0086    1.5037 C   0  0  0  0  0  0  0  0  0  0  0  0
   -0.8586    2.6803   -0.1058 C   0  0  0  0  0  0  0  0  0  0  0  0
   -0.4852    1.2970    0.4506 C   0  0  0  0  0  0  0  0  0  0  0  0
   -3.5214    1.0042   -1.3129 C   0  0  0  0  0  0  0  0  0  0  0  0
   -3.1420   -0.2628   -2.0839 C   0  0  0  0  0  0  0  0  0  0  0  0
   -9.3231    0.1928   -2.7163 C   0  0  0  0  0  0  0  0  0  0  0  0
   -9.2193   -1.1291   -3.1895 C   0  0  0  0  0  0  0  0  0  0  0  0
   -8.4606   -1.3719   -4.3398 O   0  0  0  0  0  0  0  0  0  0  0  0
   -9.0128   -1.9966   -5.4965 C   0  0  0  0  0  0  0  0  0  0  0  0
   -7.9502   -2.0859   -6.5830 C   0  0  0  0  0  0  0  0  0  0  0  0
   -9.7952   -2.1858   -2.4480 C   0  0  0  0  0  0  0  0  0  0  0  0
   -9.5579   -3.5253   -2.7760 O   0  0  0  0  0  0  0  0  0  0  0  0
   -8.2479   -4.0898   -2.8121 C   0  0  0  0  0  0  0  0  0  0  0  0
   -8.3535   -5.5864   -3.0589 C   0  0  0  0  0  0  0  0  0  0  0  0
  -10.5437   -1.8997   -1.2918 C   0  0  0  0  0  0  0  0  0  0  0  0
  -10.8176   -0.5673   -0.9472 C   0  0  0  0  0  0  0  0  0  0  0  0
  -10.1917    0.4805   -1.6512 C   0  0  0  0  0  0  0  0  0  0  0  0
  -10.3625    1.7605   -1.2172 N   0  0  0  0  0  0  0  0  0  0  0  0
  -11.1530    2.0477   -0.1512 C   0  0  0  0  0  0  0  0  0  0  0  0
  -11.7817    1.0083    0.5399 C   0  0  0  0  0  0  0  0  0  0  0  0
  -11.5893   -0.2726    0.1358 N   0  0  0  0  0  0  0  0  0  0  0  0
  -10.7174   -2.9501   -0.2697 C   0  0  0  0  0  0  0  0  0  0  0  0
   -9.7496   -3.2086    0.6392 C   0  0  0  0  0  0  0  0  0  0  0  0
   -8.4926   -2.4526    0.7668 C   0  0  0  0  0  0  0  0  0  0  0  0
   -8.0340   -1.6111   -0.0500 O   0  0  0  0  0  0  0  0  0  0  0  0
   -7.8552   -2.8137    2.0056 C   0  0  0  0  0  0  0  0  0  0  0  0
   -6.6763   -2.2947    2.5394 C   0  0  0  0  0  0  0  0  0  0  0  0
   -6.2407   -2.7599    3.7916 C   0  0  0  0  0  0  0  0  0  0  0  0
   -4.9716   -2.2447    4.4005 C   0  0  0  0  0  0  0  0  0  0  0  0
   -7.0185   -3.7106    4.4882 C   0  0  0  0  0  0  0  0  0  0  0  0
   -8.2050   -4.2137    3.9319 C   0  0  0  0  0  0  0  0  0  0  0  0
   -8.6099   -3.7731    2.6568 C   0  0  0  0  0  0  0  0  0  0  0  0
   -9.7955   -4.1363    1.8174 C   0  0  0  0  0  0  0  0  0  0  0  0
  -10.6248   -5.1980    1.9979 C   0  0  0  0  0  0  0  0  0  0  0  0
  -11.6139   -5.5856    1.0269 C   0  0  0  0  0  0  0  0  0  0  0  0
  -12.4254   -5.9112    0.2618 N   0  0  0  0  0  0  0  0  0  0  0  0
  -10.5293   -6.0802    3.1327 C   0  0  0  0  0  0  0  0  0  0  0  0
  -10.4679   -6.8005    4.0384 N   0  0  0  0  0  0  0  0  0  0  0  0
   11.9860    1.1822    1.9922 H   0  0  0  0  0  0  0  0  0  0  0  0
    8.0451   -3.5554    3.0691 H   0  0  0  0  0  0  0  0  0  0  0  0
    7.9264   -6.0537    3.9109 H   0  0  0  0  0  0  0  0  0  0  0  0
    9.2782   -7.1337    3.4169 H   0  0  0  0  0  0  0  0  0  0  0  0
    8.2842   -6.3122    2.1522 H   0  0  0  0  0  0  0  0  0  0  0  0
   11.4679   -6.1908    3.1520 H   0  0  0  0  0  0  0  0  0  0  0  0
   12.9705   -4.2729    3.0324 H   0  0  0  0  0  0  0  0  0  0  0  0
   10.6303    3.3619    5.2907 H   0  0  0  0  0  0  0  0  0  0  0  0
   10.9873    1.8509    4.4473 H   0  0  0  0  0  0  0  0  0  0  0  0
   11.8774    4.7556    3.7808 H   0  0  0  0  0  0  0  0  0  0  0  0
   12.1383    3.4015    2.6191 H   0  0  0  0  0  0  0  0  0  0  0  0
   12.9344    3.3685    4.2550 H   0  0  0  0  0  0  0  0  0  0  0  0
    6.6448    3.2254    3.8500 H   0  0  0  0  0  0  0  0  0  0  0  0
    5.7426    4.6613    3.2783 H   0  0  0  0  0  0  0  0  0  0  0  0
    6.6669    5.3756    5.3389 H   0  0  0  0  0  0  0  0  0  0  0  0
    8.2590    4.6189    5.0147 H   0  0  0  0  0  0  0  0  0  0  0  0
    7.7709    6.1103    4.1059 H   0  0  0  0  0  0  0  0  0  0  0  0
    9.8888   -1.4797   -1.7828 H   0  0  0  0  0  0  0  0  0  0  0  0
    7.8289   -0.4793   -2.7803 H   0  0  0  0  0  0  0  0  0  0  0  0
   -8.2540    1.6875   -6.3121 H   0  0  0  0  0  0  0  0  0  0  0  0
   -9.6547    1.1886   -5.3008 H   0  0  0  0  0  0  0  0  0  0  0  0
   -9.8903    3.5792   -4.4815 H   0  0  0  0  0  0  0  0  0  0  0  0
   -8.5323    4.0492   -5.5873 H   0  0  0  0  0  0  0  0  0  0  0  0
  -10.0731    3.4158   -6.2801 H   0  0  0  0  0  0  0  0  0  0  0  0
    5.0404    2.9293    1.7209 H   0  0  0  0  0  0  0  0  0  0  0  0
    1.2583    2.8576    1.6162 H   0  0  0  0  0  0  0  0  0  0  0  0
    2.8129    3.3654    2.1977 H   0  0  0  0  0  0  0  0  0  0  0  0
    0.9914    5.1335    2.4034 H   0  0  0  0  0  0  0  0  0  0  0  0
    1.0396    5.3192    0.6125 H   0  0  0  0  0  0  0  0  0  0  0  0
    2.5149    5.6691    1.5957 H   0  0  0  0  0  0  0  0  0  0  0  0
   -1.9416    2.9032   -0.0629 H   0  0  0  0  0  0  0  0  0  0  0  0
   -0.4505    3.4881    0.5178 H   0  0  0  0  0  0  0  0  0  0  0  0
   -0.8737    0.4759   -0.1897 H   0  0  0  0  0  0  0  0  0  0  0  0
   -0.8865    1.1891    1.4845 H   0  0  0  0  0  0  0  0  0  0  0  0
    0.6150    1.1498    0.4571 H   0  0  0  0  0  0  0  0  0  0  0  0
   -2.8869    1.1209   -0.4453 H   0  0  0  0  0  0  0  0  0  0  0  0
   -4.5129    0.8683   -0.8448 H   0  0  0  0  0  0  0  0  0  0  0  0
   -3.8769   -0.4535   -2.8957 H   0  0  0  0  0  0  0  0  0  0  0  0
   -3.1328   -1.1363   -1.3997 H   0  0  0  0  0  0  0  0  0  0  0  0
   -2.1255   -0.1458   -2.5204 H   0  0  0  0  0  0  0  0  0  0  0  0
   -9.3735   -3.0182   -5.2535 H   0  0  0  0  0  0  0  0  0  0  0  0
   -9.8699   -1.3960   -5.8711 H   0  0  0  0  0  0  0  0  0  0  0  0
   -8.3573   -2.6297   -7.4618 H   0  0  0  0  0  0  0  0  0  0  0  0
   -7.0627   -2.6334   -6.1991 H   0  0  0  0  0  0  0  0  0  0  0  0
   -7.6487   -1.0664   -6.9044 H   0  0  0  0  0  0  0  0  0  0  0  0
   -7.6402   -3.6301   -3.6169 H   0  0  0  0  0  0  0  0  0  0  0  0
   -7.7399   -3.9200   -1.8386 H   0  0  0  0  0  0  0  0  0  0  0  0
   -8.9360   -6.0646   -2.2414 H   0  0  0  0  0  0  0  0  0  0  0  0
   -7.3359   -6.0301   -3.0866 H   0  0  0  0  0  0  0  0  0  0  0  0
   -8.8566   -5.7767   -4.0293 H   0  0  0  0  0  0  0  0  0  0  0  0
  -11.2900    3.0724    0.1629 H   0  0  0  0  0  0  0  0  0  0  0  0
  -12.4102    1.2162    1.3930 H   0  0  0  0  0  0  0  0  0  0  0  0
  -11.6846   -3.4277   -0.2246 H   0  0  0  0  0  0  0  0  0  0  0  0
   -6.1128   -1.5469    1.9996 H   0  0  0  0  0  0  0  0  0  0  0  0
   -5.2042   -1.6864    5.3326 H   0  0  0  0  0  0  0  0  0  0  0  0
   -4.4321   -1.5649    3.7077 H   0  0  0  0  0  0  0  0  0  0  0  0
   -4.2964   -3.0932    4.6455 H   0  0  0  0  0  0  0  0  0  0  0  0
   -6.7053   -4.0515    5.4654 H   0  0  0  0  0  0  0  0  0  0  0  0
   -8.7770   -4.9160    4.5125 H   0  0  0  0  0  0  0  0  0  0  0  0
  1  2  2  3
  2  3  1  0
  3  4  2  0
  3  5  1  0
  5  6  2  0
  6  7  1  0
  7  8  1  0
  7  9  2  0
  9 10  1  0
 10 11  2  0
 11 12  1  0
 12 13  2  3
 13 14  1  0
 14 15  3  0
 13 16  1  0
 16 17  3  0
  1 18  1  0
 18 19  2  0
 19 20  1  0
 20 21  1  0
 21 22  1  0
 19 23  1  0
 23 24  1  0
 24 25  1  0
 25 26  1  0
 23 27  2  0
 27 28  1  0
 28 29  2  0
 29 30  1  0
 30 31  2  0
 31 32  1  0
 32 33  2  0
 27 34  1  0
 34 35  1  0
 35 36  1  0
 36 37  1  0
 37 38  1  0
 38 39  1  0
 39 40  1  0
 40 41  1  0
 41 42  1  0
 42 43  2  0
 43 44  1  0
 44 45  1  0
 42 46  1  0
 46 47  1  0
 47 48  1  0
 48 49  1  0
 49 50  1  0
 50 51  1  0
 51 52  1  0
 50 53  2  0
 53 54  1  0
 54 55  1  0
 55 56  1  0
 56 57  1  0
 57 58  1  0
 58 59  1  0
 59 60  1  0
 60 61  1  0
 61 62  1  0
 62 63  1  0
 63 64  1  0
 64 65  1  0
 63 66  1  0
 66 67  1  0
 60 68  1  0
 68 69  1  0
 57 70  1  0
 70 71  1  0
 53 72  1  0
 72 73  2  0
 73 74  1  0
 74 75  1  0
 75 76  1  0
 73 77  1  0
 77 78  1  0
 78 79  1  0
 79 80  1  0
 77 81  2  0
 81 82  1  0
 82 83  2  0
 83 84  1  0
 84 85  2  0
 85 86  1  0
 86 87  2  0
 81 88  1  0
 88 89  2  3
 89 90  1  0
 90 91  2  0
 90 92  1  0
 92 93  2  0
 93 94  1  0
 94 95  1  0
 94 96  2  0
 96 97  1  0
 97 98  2  0
 98 99  1  0
 99100  2  3
100101  1  0
101102  3  0
100103  1  0
103104  3  0
 12  2  1  0
 29 18  1  0
 65 34  2  0
 83 72  1  0
 99 89  1  0
 11  5  1  0
 33 28  1  0
 64 36  2  0
 87 82  1  0
 98 92  1  0
 62 37  2  0
 61 39  2  0
 59 40  2  0
 45 41  2  0
 58 46  2  0
 56 47  2  0
 55 49  2  0
  1105  1  0
  6106  1  0
  8107  1  0
  8108  1  0
  8109  1  0
  9110  1  0
 10111  1  0
 21112  1  0
 21113  1  0
 22114  1  0
 22115  1  0
 22116  1  0
 25117  1  0
 25118  1  0
 26119  1  0
 26120  1  0
 26121  1  0
 31122  1  0
 32123  1  0
 51124  1  0
 51125  1  0
 52126  1  0
 52127  1  0
 52128  1  0
 65129  1  0
 66130  1  0
 66131  1  0
 67132  1  0
 67133  1  0
 67134  1  0
 68135  1  0
 68136  1  0
 69137  1  0
 69138  1  0
 69139  1  0
 70140  1  0
 70141  1  0
 71142  1  0
 71143  1  0
 71144  1  0
 75145  1  0
 75146  1  0
 76147  1  0
 76148  1  0
 76149  1  0
 79150  1  0
 79151  1  0
 80152  1  0
 80153  1  0
 80154  1  0
 85155  1  0
 86156  1  0
 88157  1  0
 93158  1  0
 95159  1  0
 95160  1  0
 95161  1  0
 96162  1  0
 97163  1  0
M  END

