
     RDKit          3D

179196  0  0  0  0  0  0  0  0999 V2000
    8.0364    1.1278    3.0456 C   0  0  0  0  0  0  0  0  0  0  0  0
    7.5370    0.6222    1.8894 C   0  0  0  0  0  0  0  0  0  0  0  0
    6.2221   -0.0177    1.7320 C   0  0  0  0  0  0  0  0  0  0  0  0
    5.3171   -0.1149    2.6056 O   0  0  0  0  0  0  0  0  0  0  0  0
    6.1202   -0.5617    0.3986 C   0  0  0  0  0  0  0  0  0  0  0  0
    5.1152   -1.3822   -0.1132 C   0  0  0  0  0  0  0  0  0  0  0  0
    5.2647   -1.8973   -1.4154 C   0  0  0  0  0  0  0  0  0  0  0  0
    4.2212   -2.8160   -1.9738 C   0  0  0  0  0  0  0  0  0  0  0  0
    6.4538   -1.6437   -2.1259 C   0  0  0  0  0  0  0  0  0  0  0  0
    7.4609   -0.8288   -1.5831 C   0  0  0  0  0  0  0  0  0  0  0  0
    7.2650   -0.2599   -0.3114 C   0  0  0  0  0  0  0  0  0  0  0  0
    8.1761    0.5753    0.5275 C   0  0  0  0  0  0  0  0  0  0  0  0
    9.2121    1.3243    0.0714 C   0  0  0  0  0  0  0  0  0  0  0  0
   10.0118    2.1787    0.9100 C   0  0  0  0  0  0  0  0  0  0  0  0
   10.6618    2.8682    1.5704 N   0  0  0  0  0  0  0  0  0  0  0  0
    9.5304    1.4177   -1.3387 C   0  0  0  0  0  0  0  0  0  0  0  0
    9.7909    1.5314   -2.4663 N   0  0  0  0  0  0  0  0  0  0  0  0
    7.2211    1.2137    4.2720 C   0  0  0  0  0  0  0  0  0  0  0  0
    6.8752    0.0489    4.9734 C   0  0  0  0  0  0  0  0  0  0  0  0
    7.6710   -1.0879    4.7663 O   0  0  0  0  0  0  0  0  0  0  0  0
    7.8837   -2.1252    5.7241 C   0  0  0  0  0  0  0  0  0  0  0  0
    9.3520   -2.5218    5.7161 C   0  0  0  0  0  0  0  0  0  0  0  0
    5.7080    0.0399    5.7784 C   0  0  0  0  0  0  0  0  0  0  0  0
    5.2049   -1.2204    6.1691 O   0  0  0  0  0  0  0  0  0  0  0  0
    4.5387   -1.5412    7.3928 C   0  0  0  0  0  0  0  0  0  0  0  0
    5.5293   -1.6876    8.5385 C   0  0  0  0  0  0  0  0  0  0  0  0
    4.9959    1.2579    5.9982 C   0  0  0  0  0  0  0  0  0  0  0  0
    5.5545    2.4636    5.5326 C   0  0  0  0  0  0  0  0  0  0  0  0
    6.6401    2.4362    4.6300 C   0  0  0  0  0  0  0  0  0  0  0  0
    7.0439    3.5919    4.0400 N   0  0  0  0  0  0  0  0  0  0  0  0
    6.4548    4.7810    4.3248 C   0  0  0  0  0  0  0  0  0  0  0  0
    5.3771    4.8160    5.2129 C   0  0  0  0  0  0  0  0  0  0  0  0
    4.9463    3.6592    5.7829 N   0  0  0  0  0  0  0  0  0  0  0  0
    3.5234    1.2148    6.0340 C   0  0  0  0  0  0  0  0  0  0  0  0
    2.6086    1.5205    7.0855 C   0  0  0  0  0  0  0  0  0  0  0  0
    2.9691    1.9801    8.4614 C   0  0  0  0  0  0  0  0  0  0  0  0
    4.2008    1.6501    9.0586 C   0  0  0  0  0  0  0  0  0  0  0  0
    4.5152    2.0751   10.3533 C   0  0  0  0  0  0  0  0  0  0  0  0
    3.6058    2.8426   11.0790 C   0  0  0  0  0  0  0  0  0  0  0  0
    2.3809    3.2074   10.5068 C   0  0  0  0  0  0  0  0  0  0  0  0
    1.4227    4.0931   11.2546 C   0  0  0  0  0  0  0  0  0  0  0  0
    1.7675    5.5617   11.0372 C   0  0  0  0  0  0  0  0  0  0  0  0
    2.0847    2.8025    9.1956 C   0  0  0  0  0  0  0  0  0  0  0  0
    1.2858    1.4541    6.5805 C   0  0  0  0  0  0  0  0  0  0  0  0
   -0.3033    1.5104    7.2427 S   0  0  0  0  0  0  0  0  0  0  0  0
   -1.0146    1.4234    5.6980 C   0  0  0  0  0  0  0  0  0  0  0  0
   -2.2303    1.3019    5.0594 C   0  0  0  0  0  0  0  0  0  0  0  0
   -3.5307    0.9901    5.4973 C   0  0  0  0  0  0  0  0  0  0  0  0
   -4.5420    0.7219    4.5167 C   0  0  0  0  0  0  0  0  0  0  0  0
   -5.7700    0.3926    4.9788 N   0  0  0  0  0  0  0  0  0  0  0  0
   -5.4791    0.4296    6.6119 S   0  0  0  0  0  0  0  0  0  0  0  0
   -3.8850    0.8545    6.7961 N   0  0  0  0  0  0  0  0  0  0  0  0
   -4.2278    0.8837    3.1590 C   0  0  0  0  0  0  0  0  0  0  0  0
   -4.9513    0.8104    1.9845 C   0  0  0  0  0  0  0  0  0  0  0  0
   -6.3171    0.0266    1.3337 S   0  0  0  0  0  0  0  0  0  0  0  0
   -5.7850    0.3207   -0.2756 C   0  0  0  0  0  0  0  0  0  0  0  0
   -6.1072   -0.1991   -1.5460 C   0  0  0  0  0  0  0  0  0  0  0  0
   -7.2475   -1.0873   -1.8410 C   0  0  0  0  0  0  0  0  0  0  0  0
   -7.5588   -2.1770   -1.0120 C   0  0  0  0  0  0  0  0  0  0  0  0
   -8.6155   -3.0326   -1.3429 C   0  0  0  0  0  0  0  0  0  0  0  0
   -9.3890   -2.7911   -2.4810 C   0  0  0  0  0  0  0  0  0  0  0  0
   -9.1007   -1.6909   -3.3076 C   0  0  0  0  0  0  0  0  0  0  0  0
   -9.8912   -1.4484   -4.5658 C   0  0  0  0  0  0  0  0  0  0  0  0
   -9.2995   -2.2277   -5.7386 C   0  0  0  0  0  0  0  0  0  0  0  0
   -8.0208   -0.8542   -2.9869 C   0  0  0  0  0  0  0  0  0  0  0  0
   -5.1245    0.1566   -2.4992 C   0  0  0  0  0  0  0  0  0  0  0  0
   -3.8894    1.0476   -1.7547 S   0  0  0  0  0  0  0  0  0  0  0  0
   -4.6113    1.0260   -0.2613 C   0  0  0  0  0  0  0  0  0  0  0  0
   -4.1289    1.2534    0.9968 C   0  0  0  0  0  0  0  0  0  0  0  0
   -2.8944    1.5737    1.4329 N   0  0  0  0  0  0  0  0  0  0  0  0
   -2.9405    1.2676    2.7530 C   0  0  0  0  0  0  0  0  0  0  0  0
   -1.9141    1.3039    3.6929 C   0  0  0  0  0  0  0  0  0  0  0  0
   -0.5728    1.2070    3.4884 N   0  0  0  0  0  0  0  0  0  0  0  0
   -0.0680    1.3327    4.7331 C   0  0  0  0  0  0  0  0  0  0  0  0
    1.2070    1.2773    5.2272 C   0  0  0  0  0  0  0  0  0  0  0  0
    2.7075    1.0659    4.5534 S   0  0  0  0  0  0  0  0  0  0  0  0
    0.1024    0.4893    2.3915 C   0  0  0  0  0  0  0  0  0  0  0  0
    0.2764   -0.9926    2.7438 C   0  0  0  0  0  0  0  0  0  0  0  0
   -1.9421    2.4545    0.7301 C   0  0  0  0  0  0  0  0  0  0  0  0
   -2.5847    3.8053    0.4238 C   0  0  0  0  0  0  0  0  0  0  0  0
   -4.8083   -0.5704   -3.7378 C   0  0  0  0  0  0  0  0  0  0  0  0
   -5.0028    0.0516   -4.9782 C   0  0  0  0  0  0  0  0  0  0  0  0
   -5.8178    1.2098   -5.0359 O   0  0  0  0  0  0  0  0  0  0  0  0
   -5.3947    2.4743   -5.5562 C   0  0  0  0  0  0  0  0  0  0  0  0
   -4.1913    3.0116   -4.7968 C   0  0  0  0  0  0  0  0  0  0  0  0
   -4.3239   -0.4353   -6.1258 C   0  0  0  0  0  0  0  0  0  0  0  0
   -4.4931    0.2022   -7.3523 O   0  0  0  0  0  0  0  0  0  0  0  0
   -5.5714   -0.0972   -8.2257 C   0  0  0  0  0  0  0  0  0  0  0  0
   -5.3613    0.6679   -9.5290 C   0  0  0  0  0  0  0  0  0  0  0  0
   -3.4012   -1.4967   -6.0278 C   0  0  0  0  0  0  0  0  0  0  0  0
   -3.2011   -2.1007   -4.7628 C   0  0  0  0  0  0  0  0  0  0  0  0
   -3.9428   -1.6730   -3.6409 C   0  0  0  0  0  0  0  0  0  0  0  0
   -3.7148   -2.2604   -2.4317 N   0  0  0  0  0  0  0  0  0  0  0  0
   -2.7823   -3.2239   -2.2678 C   0  0  0  0  0  0  0  0  0  0  0  0
   -2.0248   -3.6267   -3.3629 C   0  0  0  0  0  0  0  0  0  0  0  0
   -2.2534   -3.0589   -4.5718 N   0  0  0  0  0  0  0  0  0  0  0  0
   -2.5462   -1.7973   -7.2297 C   0  0  0  0  0  0  0  0  0  0  0  0
   -1.3908   -2.4778   -7.2062 C   0  0  0  0  0  0  0  0  0  0  0  0
   -1.3879   -3.9560   -7.1671 C   0  0  0  0  0  0  0  0  0  0  0  0
   -2.3459   -4.6874   -6.8039 O   0  0  0  0  0  0  0  0  0  0  0  0
   -0.1778   -4.4437   -7.7889 C   0  0  0  0  0  0  0  0  0  0  0  0
    0.2166   -5.7670   -7.9668 C   0  0  0  0  0  0  0  0  0  0  0  0
    1.4054   -6.0224   -8.6733 C   0  0  0  0  0  0  0  0  0  0  0  0
    1.8520   -7.4335   -8.9450 C   0  0  0  0  0  0  0  0  0  0  0  0
    2.1897   -4.9507   -9.1314 C   0  0  0  0  0  0  0  0  0  0  0  0
    1.7669   -3.6208   -8.9459 C   0  0  0  0  0  0  0  0  0  0  0  0
    0.5486   -3.3847   -8.2871 C   0  0  0  0  0  0  0  0  0  0  0  0
   -0.1659   -2.1138   -8.0008 C   0  0  0  0  0  0  0  0  0  0  0  0
    0.2254   -0.8461   -8.2876 C   0  0  0  0  0  0  0  0  0  0  0  0
   -0.5247    0.2875   -7.8048 C   0  0  0  0  0  0  0  0  0  0  0  0
   -1.1192    1.2082   -7.4317 N   0  0  0  0  0  0  0  0  0  0  0  0
    1.4244   -0.5316   -9.0204 C   0  0  0  0  0  0  0  0  0  0  0  0
    2.3865   -0.2653   -9.6041 N   0  0  0  0  0  0  0  0  0  0  0  0
    9.0267    1.5461    3.1039 H   0  0  0  0  0  0  0  0  0  0  0  0
    4.2476   -1.6355    0.4875 H   0  0  0  0  0  0  0  0  0  0  0  0
    4.3138   -2.8978   -3.0804 H   0  0  0  0  0  0  0  0  0  0  0  0
    4.3503   -3.8253   -1.5342 H   0  0  0  0  0  0  0  0  0  0  0  0
    3.2074   -2.4423   -1.7307 H   0  0  0  0  0  0  0  0  0  0  0  0
    6.6126   -2.0755   -3.1035 H   0  0  0  0  0  0  0  0  0  0  0  0
    8.3778   -0.6996   -2.1301 H   0  0  0  0  0  0  0  0  0  0  0  0
    7.6292   -1.7735    6.7351 H   0  0  0  0  0  0  0  0  0  0  0  0
    7.2618   -3.0155    5.4630 H   0  0  0  0  0  0  0  0  0  0  0  0
    9.6554   -2.8735    4.7084 H   0  0  0  0  0  0  0  0  0  0  0  0
    9.9825   -1.6468    6.0001 H   0  0  0  0  0  0  0  0  0  0  0  0
    9.5276   -3.3329    6.4565 H   0  0  0  0  0  0  0  0  0  0  0  0
    4.0198   -2.5163    7.2648 H   0  0  0  0  0  0  0  0  0  0  0  0
    3.7612   -0.7981    7.6366 H   0  0  0  0  0  0  0  0  0  0  0  0
    4.9880   -1.7418    9.5085 H   0  0  0  0  0  0  0  0  0  0  0  0
    6.1163   -2.6254    8.4162 H   0  0  0  0  0  0  0  0  0  0  0  0
    6.2393   -0.8344    8.5676 H   0  0  0  0  0  0  0  0  0  0  0  0
    6.8025    5.6890    3.8494 H   0  0  0  0  0  0  0  0  0  0  0  0
    4.8765    5.7500    5.4298 H   0  0  0  0  0  0  0  0  0  0  0  0
    4.9389    1.0709    8.5350 H   0  0  0  0  0  0  0  0  0  0  0  0
    5.4691    1.8102   10.7898 H   0  0  0  0  0  0  0  0  0  0  0  0
    3.8645    3.1671   12.0792 H   0  0  0  0  0  0  0  0  0  0  0  0
    0.3798    3.9058   10.9170 H   0  0  0  0  0  0  0  0  0  0  0  0
    1.4597    3.8646   12.3387 H   0  0  0  0  0  0  0  0  0  0  0  0
    1.7034    5.8199    9.9579 H   0  0  0  0  0  0  0  0  0  0  0  0
    1.0578    6.1982   11.6015 H   0  0  0  0  0  0  0  0  0  0  0  0
    2.7967    5.7725   11.3998 H   0  0  0  0  0  0  0  0  0  0  0  0
    1.1740    3.1721    8.7456 H   0  0  0  0  0  0  0  0  0  0  0  0
   -6.9532   -2.3959   -0.1442 H   0  0  0  0  0  0  0  0  0  0  0  0
   -8.8133   -3.8925   -0.7211 H   0  0  0  0  0  0  0  0  0  0  0  0
  -10.1905   -3.4686   -2.7291 H   0  0  0  0  0  0  0  0  0  0  0  0
  -10.9548   -1.7415   -4.4285 H   0  0  0  0  0  0  0  0  0  0  0  0
   -9.8855   -0.3649   -4.8138 H   0  0  0  0  0  0  0  0  0  0  0  0
   -9.7365   -1.8584   -6.6891 H   0  0  0  0  0  0  0  0  0  0  0  0
   -8.2004   -2.0976   -5.7813 H   0  0  0  0  0  0  0  0  0  0  0  0
   -9.5382   -3.3028   -5.6370 H   0  0  0  0  0  0  0  0  0  0  0  0
   -7.7787   -0.0216   -3.6394 H   0  0  0  0  0  0  0  0  0  0  0  0
   -0.4760    0.5218    1.4577 H   0  0  0  0  0  0  0  0  0  0  0  0
    1.0971    0.9464    2.1917 H   0  0  0  0  0  0  0  0  0  0  0  0
    0.9425   -1.1259    3.6235 H   0  0  0  0  0  0  0  0  0  0  0  0
   -0.7119   -1.4373    2.9894 H   0  0  0  0  0  0  0  0  0  0  0  0
    0.7066   -1.5350    1.8790 H   0  0  0  0  0  0  0  0  0  0  0  0
   -1.0634    2.6634    1.3619 H   0  0  0  0  0  0  0  0  0  0  0  0
   -1.5956    1.9724   -0.2080 H   0  0  0  0  0  0  0  0  0  0  0  0
   -3.4170    3.6915   -0.2985 H   0  0  0  0  0  0  0  0  0  0  0  0
   -1.8199    4.4816   -0.0251 H   0  0  0  0  0  0  0  0  0  0  0  0
   -2.9651    4.2646    1.3589 H   0  0  0  0  0  0  0  0  0  0  0  0
   -5.1548    2.4031   -6.6310 H   0  0  0  0  0  0  0  0  0  0  0  0
   -6.2380    3.1903   -5.4548 H   0  0  0  0  0  0  0  0  0  0  0  0
   -3.3203    2.3310   -4.9130 H   0  0  0  0  0  0  0  0  0  0  0  0
   -4.4303    3.1146   -3.7152 H   0  0  0  0  0  0  0  0  0  0  0  0
   -3.9178    4.0132   -5.1943 H   0  0  0  0  0  0  0  0  0  0  0  0
   -5.5840   -1.1901   -8.4403 H   0  0  0  0  0  0  0  0  0  0  0  0
   -6.5276    0.2062   -7.7462 H   0  0  0  0  0  0  0  0  0  0  0  0
   -6.1987    0.4829  -10.2392 H   0  0  0  0  0  0  0  0  0  0  0  0
   -5.2979    1.7643   -9.3202 H   0  0  0  0  0  0  0  0  0  0  0  0
   -4.4032    0.3312   -9.9903 H   0  0  0  0  0  0  0  0  0  0  0  0
   -2.6221   -3.6736   -1.2988 H   0  0  0  0  0  0  0  0  0  0  0  0
   -1.2694   -4.3925   -3.2665 H   0  0  0  0  0  0  0  0  0  0  0  0
   -2.8664   -1.4271   -8.1985 H   0  0  0  0  0  0  0  0  0  0  0  0
   -0.3998   -6.5743   -7.5961 H   0  0  0  0  0  0  0  0  0  0  0  0
    2.1925   -7.5310   -9.9913 H   0  0  0  0  0  0  0  0  0  0  0  0
    1.0210   -8.1519   -8.7682 H   0  0  0  0  0  0  0  0  0  0  0  0
    2.6945   -7.6919   -8.2691 H   0  0  0  0  0  0  0  0  0  0  0  0
    3.1244   -5.1460   -9.6348 H   0  0  0  0  0  0  0  0  0  0  0  0
    2.3817   -2.8309   -9.3328 H   0  0  0  0  0  0  0  0  0  0  0  0
  1  2  2  3
  2  3  1  0
  3  4  2  0
  3  5  1  0
  5  6  2  0
  6  7  1  0
  7  8  1  0
  7  9  2  0
  9 10  1  0
 10 11  2  0
 11 12  1  0
 12 13  2  3
 13 14  1  0
 14 15  3  0
 13 16  1  0
 16 17  3  0
  1 18  1  0
 18 19  2  0
 19 20  1  0
 20 21  1  0
 21 22  1  0
 19 23  1  0
 23 24  1  0
 24 25  1  0
 25 26  1  0
 23 27  2  0
 27 28  1  0
 28 29  2  0
 29 30  1  0
 30 31  2  0
 31 32  1  0
 32 33  2  0
 27 34  1  0
 34 35  2  0
 35 36  1  0
 36 37  2  0
 37 38  1  0
 38 39  2  0
 39 40  1  0
 40 41  1  0
 41 42  1  0
 40 43  2  0
 35 44  1  0
 44 45  1  0
 45 46  1  0
 46 47  1  0
 47 48  1  0
 48 49  1  0
 49 50  2  0
 50 51  1  0
 51 52  1  0
 49 53  1  0
 53 54  1  0
 54 55  1  0
 55 56  1  0
 56 57  1  0
 57 58  1  0
 58 59  2  0
 59 60  1  0
 60 61  2  0
 61 62  1  0
 62 63  1  0
 63 64  1  0
 62 65  2  0
 57 66  2  0
 66 67  1  0
 67 68  1  0
 68 69  1  0
 69 70  1  0
 70 71  1  0
 71 72  1  0
 72 73  1  0
 73 74  1  0
 74 75  1  0
 75 76  1  0
 73 77  1  0
 77 78  1  0
 70 79  1  0
 79 80  1  0
 66 81  1  0
 81 82  2  0
 82 83  1  0
 83 84  1  0
 84 85  1  0
 82 86  1  0
 86 87  1  0
 87 88  1  0
 88 89  1  0
 86 90  2  0
 90 91  1  0
 91 92  2  0
 92 93  1  0
 93 94  2  0
 94 95  1  0
 95 96  2  0
 90 97  1  0
 97 98  2  3
 98 99  1  0
 99100  2  0
 99101  1  0
101102  2  0
102103  1  0
103104  1  0
103105  2  0
105106  1  0
106107  2  0
107108  1  0
108109  2  3
109110  1  0
110111  3  0
109112  1  0
112113  3  0
 12  2  1  0
 29 18  1  0
 76 34  1  0
 92 81  1  0
108 98  1  0
 11  5  1  0
 33 28  1  0
 43 36  1  0
 75 44  2  0
 96 91  1  0
107101  1  0
 74 46  2  0
 72 47  2  0
 52 48  2  0
 71 53  2  0
 69 54  2  0
 68 56  2  0
 65 58  1  0
  1114  1  0
  6115  1  0
  8116  1  0
  8117  1  0
  8118  1  0
  9119  1  0
 10120  1  0
 21121  1  0
 21122  1  0
 22123  1  0
 22124  1  0
 22125  1  0
 25126  1  0
 25127  1  0
 26128  1  0
 26129  1  0
 26130  1  0
 31131  1  0
 32132  1  0
 37133  1  0
 38134  1  0
 39135  1  0
 41136  1  0
 41137  1  0
 42138  1  0
 42139  1  0
 42140  1  0
 43141  1  0
 59142  1  0
 60143  1  0
 61144  1  0
 63145  1  0
 63146  1  0
 64147  1  0
 64148  1  0
 64149  1  0
 65150  1  0
 77151  1  0
 77152  1  0
 78153  1  0
 78154  1  0
 78155  1  0
 79156  1  0
 79157  1  0
 80158  1  0
 80159  1  0
 80160  1  0
 84161  1  0
 84162  1  0
 85163  1  0
 85164  1  0
 85165  1  0
 88166  1  0
 88167  1  0
 89168  1  0
 89169  1  0
 89170  1  0
 94171  1  0
 95172  1  0
 97173  1  0
102174  1  0
104175  1  0
104176  1  0
104177  1  0
105178  1  0
106179  1  0
M  END

