
     RDKit          3D

172189  0  0  0  0  0  0  0  0999 V2000
    3.3828   -1.3962  -10.0150 C   0  0  0  0  0  0  0  0  0  0  0  0
    2.2162   -2.0272  -10.2817 C   0  0  0  0  0  0  0  0  0  0  0  0
    1.3781   -2.7422   -9.3047 C   0  0  0  0  0  0  0  0  0  0  0  0
    1.4289   -2.6493   -8.0505 O   0  0  0  0  0  0  0  0  0  0  0  0
    0.5185   -3.6541  -10.0180 C   0  0  0  0  0  0  0  0  0  0  0  0
   -0.3299   -4.6210   -9.4799 C   0  0  0  0  0  0  0  0  0  0  0  0
   -0.9767   -5.5113  -10.3542 C   0  0  0  0  0  0  0  0  0  0  0  0
   -1.9128   -6.5483   -9.8092 C   0  0  0  0  0  0  0  0  0  0  0  0
   -0.7702   -5.3940  -11.7448 C   0  0  0  0  0  0  0  0  0  0  0  0
    0.0897   -4.4104  -12.2627 C   0  0  0  0  0  0  0  0  0  0  0  0
    0.7264   -3.5253  -11.3786 C   0  0  0  0  0  0  0  0  0  0  0  0
    1.7068   -2.4283  -11.6310 C   0  0  0  0  0  0  0  0  0  0  0  0
    1.9281   -1.7850  -12.8057 C   0  0  0  0  0  0  0  0  0  0  0  0
    1.3028   -2.1840  -14.0369 C   0  0  0  0  0  0  0  0  0  0  0  0
    0.8048   -2.4933  -15.0365 N   0  0  0  0  0  0  0  0  0  0  0  0
    2.7068   -0.5763  -12.8835 C   0  0  0  0  0  0  0  0  0  0  0  0
    3.3303    0.3958  -12.9490 N   0  0  0  0  0  0  0  0  0  0  0  0
    3.9230   -1.2360   -8.6473 C   0  0  0  0  0  0  0  0  0  0  0  0
    5.1169   -1.8872   -8.3004 C   0  0  0  0  0  0  0  0  0  0  0  0
    5.8391   -2.5439   -9.2447 F   0  0  0  0  0  0  0  0  0  0  0  0
    5.5173   -1.9591   -6.9602 C   0  0  0  0  0  0  0  0  0  0  0  0
    6.6276   -2.6751   -6.6409 F   0  0  0  0  0  0  0  0  0  0  0  0
    4.7320   -1.3816   -5.9499 C   0  0  0  0  0  0  0  0  0  0  0  0
    3.6150   -0.6022   -6.3157 C   0  0  0  0  0  0  0  0  0  0  0  0
    2.8464    0.0045   -5.3761 N   0  0  0  0  0  0  0  0  0  0  0  0
    1.7266    0.7125   -5.6811 C   0  0  0  0  0  0  0  0  0  0  0  0
    0.9633    1.3375   -4.5375 C   0  0  0  0  0  0  0  0  0  0  0  0
    0.4768    0.2740   -3.5548 C   0  0  0  0  0  0  0  0  0  0  0  0
    1.3530    0.8282   -7.0441 C   0  0  0  0  0  0  0  0  0  0  0  0
    2.1092    0.1983   -7.9807 N   0  0  0  0  0  0  0  0  0  0  0  0
    3.2246   -0.5140   -7.6634 C   0  0  0  0  0  0  0  0  0  0  0  0
    0.1177    1.5534   -7.5104 C   0  0  0  0  0  0  0  0  0  0  0  0
   -1.1179    0.6704   -7.3600 C   0  0  0  0  0  0  0  0  0  0  0  0
    4.9225   -1.7974   -4.5396 C   0  0  0  0  0  0  0  0  0  0  0  0
    4.7656   -3.1205   -4.0775 C   0  0  0  0  0  0  0  0  0  0  0  0
    4.7427   -4.3414   -4.9102 C   0  0  0  0  0  0  0  0  0  0  0  0
    5.6424   -5.3764   -4.6132 C   0  0  0  0  0  0  0  0  0  0  0  0
    5.6522   -6.5451   -5.3735 C   0  0  0  0  0  0  0  0  0  0  0  0
    4.7524   -6.6991   -6.4271 C   0  0  0  0  0  0  0  0  0  0  0  0
    3.8203   -5.6912   -6.7186 C   0  0  0  0  0  0  0  0  0  0  0  0
    2.8604   -5.8728   -7.8635 C   0  0  0  0  0  0  0  0  0  0  0  0
    3.5121   -5.4811   -9.1847 C   0  0  0  0  0  0  0  0  0  0  0  0
    3.8247   -4.5055   -5.9596 C   0  0  0  0  0  0  0  0  0  0  0  0
    4.5321   -3.1577   -2.7035 C   0  0  0  0  0  0  0  0  0  0  0  0
    3.6126   -4.2829   -1.8336 S   0  0  0  0  0  0  0  0  0  0  0  0
    3.3426   -3.1891   -0.5761 C   0  0  0  0  0  0  0  0  0  0  0  0
    2.2471   -2.9559    0.2111 C   0  0  0  0  0  0  0  0  0  0  0  0
    1.0166   -3.6358    0.2372 C   0  0  0  0  0  0  0  0  0  0  0  0
   -0.1403   -2.9580    0.7338 C   0  0  0  0  0  0  0  0  0  0  0  0
   -1.3088   -3.6437    0.7306 N   0  0  0  0  0  0  0  0  0  0  0  0
   -0.7905   -5.0660    0.0604 S   0  0  0  0  0  0  0  0  0  0  0  0
    0.8318   -4.8934   -0.2301 N   0  0  0  0  0  0  0  0  0  0  0  0
    0.0044   -1.6552    1.2219 C   0  0  0  0  0  0  0  0  0  0  0  0
   -0.8195   -0.8878    1.9960 C   0  0  0  0  0  0  0  0  0  0  0  0
   -2.3664   -0.9975    2.6752 S   0  0  0  0  0  0  0  0  0  0  0  0
   -1.9740    0.1943    3.8333 C   0  0  0  0  0  0  0  0  0  0  0  0
   -2.6632    0.7405    4.9186 C   0  0  0  0  0  0  0  0  0  0  0  0
   -4.1392    0.7062    5.0316 C   0  0  0  0  0  0  0  0  0  0  0  0
   -4.8454   -0.4984    4.8985 C   0  0  0  0  0  0  0  0  0  0  0  0
   -6.2398   -0.5105    4.9800 C   0  0  0  0  0  0  0  0  0  0  0  0
   -6.9404    0.6771    5.2120 C   0  0  0  0  0  0  0  0  0  0  0  0
   -6.2484    1.8874    5.3662 C   0  0  0  0  0  0  0  0  0  0  0  0
   -6.9967    3.1729    5.5949 C   0  0  0  0  0  0  0  0  0  0  0  0
   -7.2993    3.8653    4.2708 C   0  0  0  0  0  0  0  0  0  0  0  0
   -4.8498    1.8987    5.2557 C   0  0  0  0  0  0  0  0  0  0  0  0
   -1.7958    1.5055    5.7410 C   0  0  0  0  0  0  0  0  0  0  0  0
   -0.2429    1.5523    5.0117 S   0  0  0  0  0  0  0  0  0  0  0  0
   -0.6716    0.6006    3.7055 C   0  0  0  0  0  0  0  0  0  0  0  0
   -0.0342    0.0294    2.6145 C   0  0  0  0  0  0  0  0  0  0  0  0
    1.2593   -0.0233    2.2054 N   0  0  0  0  0  0  0  0  0  0  0  0
    1.2531   -1.0288    1.2766 C   0  0  0  0  0  0  0  0  0  0  0  0
    2.3483   -1.6176    0.6118 C   0  0  0  0  0  0  0  0  0  0  0  0
    3.3492   -0.9802   -0.0721 N   0  0  0  0  0  0  0  0  0  0  0  0
    3.9266   -1.9714   -0.8066 C   0  0  0  0  0  0  0  0  0  0  0  0
    4.5634   -1.9426   -2.0538 C   0  0  0  0  0  0  0  0  0  0  0  0
    4.7978   -0.7397   -3.2034 S   0  0  0  0  0  0  0  0  0  0  0  0
    3.4217    0.4564   -0.3789 C   0  0  0  0  0  0  0  0  0  0  0  0
    4.8226    1.0054   -0.1244 C   0  0  0  0  0  0  0  0  0  0  0  0
    2.4110    0.4696    2.9694 C   0  0  0  0  0  0  0  0  0  0  0  0
    2.6991   -0.4443    4.1558 C   0  0  0  0  0  0  0  0  0  0  0  0
   -2.1235    2.0955    7.0786 C   0  0  0  0  0  0  0  0  0  0  0  0
   -3.0550    1.4630    7.9286 C   0  0  0  0  0  0  0  0  0  0  0  0
   -3.5353    0.2289    7.6453 F   0  0  0  0  0  0  0  0  0  0  0  0
   -3.4772    2.0705    9.1138 C   0  0  0  0  0  0  0  0  0  0  0  0
   -4.4966    1.4976    9.8044 F   0  0  0  0  0  0  0  0  0  0  0  0
   -2.8899    3.2677    9.5563 C   0  0  0  0  0  0  0  0  0  0  0  0
   -1.8909    3.8621    8.7631 C   0  0  0  0  0  0  0  0  0  0  0  0
   -1.2510    4.9843    9.1870 N   0  0  0  0  0  0  0  0  0  0  0  0
   -0.2526    5.5715    8.4753 C   0  0  0  0  0  0  0  0  0  0  0  0
    0.4382    6.7650    9.0827 C   0  0  0  0  0  0  0  0  0  0  0  0
    1.5758    6.3157    9.9946 C   0  0  0  0  0  0  0  0  0  0  0  0
    0.1386    4.9860    7.2505 C   0  0  0  0  0  0  0  0  0  0  0  0
   -0.5200    3.8781    6.8181 N   0  0  0  0  0  0  0  0  0  0  0  0
   -1.5101    3.2830    7.5348 C   0  0  0  0  0  0  0  0  0  0  0  0
    1.2428    5.5318    6.3824 C   0  0  0  0  0  0  0  0  0  0  0  0
    0.6894    6.5112    5.3545 C   0  0  0  0  0  0  0  0  0  0  0  0
   -3.3670    3.9568   10.7828 C   0  0  0  0  0  0  0  0  0  0  0  0
   -3.6942    3.3655   11.9479 C   0  0  0  0  0  0  0  0  0  0  0  0
   -4.6173    3.9792   12.9042 C   0  0  0  0  0  0  0  0  0  0  0  0
   -4.9521    5.1918   12.9332 O   0  0  0  0  0  0  0  0  0  0  0  0
   -5.1544    2.9338   13.7510 C   0  0  0  0  0  0  0  0  0  0  0  0
   -6.1937    3.0151   14.6816 C   0  0  0  0  0  0  0  0  0  0  0  0
   -6.6403    1.8353   15.2904 C   0  0  0  0  0  0  0  0  0  0  0  0
   -6.0594    0.5972   14.9505 C   0  0  0  0  0  0  0  0  0  0  0  0
   -6.7066   -1.0130   15.7550 Br  0  0  0  0  0  0  0  0  0  0  0  0
   -5.0213    0.5353   14.0036 C   0  0  0  0  0  0  0  0  0  0  0  0
   -4.5578    1.7277   13.4212 C   0  0  0  0  0  0  0  0  0  0  0  0
   -3.5115    1.9508   12.3894 C   0  0  0  0  0  0  0  0  0  0  0  0
   -2.4097    1.1840   12.1916 C   0  0  0  0  0  0  0  0  0  0  0  0
   -2.2575   -0.1160   12.7878 C   0  0  0  0  0  0  0  0  0  0  0  0
   -2.1251   -1.1648   13.2602 N   0  0  0  0  0  0  0  0  0  0  0  0
   -1.2451    1.6830   11.5051 C   0  0  0  0  0  0  0  0  0  0  0  0
   -0.3049    2.0769   10.9588 N   0  0  0  0  0  0  0  0  0  0  0  0
    4.0555   -1.1507  -10.8205 H   0  0  0  0  0  0  0  0  0  0  0  0
   -0.4631   -4.6970   -8.4078 H   0  0  0  0  0  0  0  0  0  0  0  0
   -2.9298   -6.1141   -9.7177 H   0  0  0  0  0  0  0  0  0  0  0  0
   -1.5775   -6.8931   -8.8090 H   0  0  0  0  0  0  0  0  0  0  0  0
   -1.9535   -7.4317  -10.4803 H   0  0  0  0  0  0  0  0  0  0  0  0
   -1.2665   -6.0735  -12.4266 H   0  0  0  0  0  0  0  0  0  0  0  0
    0.2663   -4.3916  -13.3232 H   0  0  0  0  0  0  0  0  0  0  0  0
    0.0856    1.9258   -4.8686 H   0  0  0  0  0  0  0  0  0  0  0  0
    1.6411    2.0347   -4.0021 H   0  0  0  0  0  0  0  0  0  0  0  0
    0.0092    0.7632   -2.6759 H   0  0  0  0  0  0  0  0  0  0  0  0
   -0.2765   -0.3804   -4.0408 H   0  0  0  0  0  0  0  0  0  0  0  0
    1.3235   -0.3475   -3.1948 H   0  0  0  0  0  0  0  0  0  0  0  0
   -0.0173    2.5114   -6.9700 H   0  0  0  0  0  0  0  0  0  0  0  0
    0.2321    1.8173   -8.5849 H   0  0  0  0  0  0  0  0  0  0  0  0
   -1.0327   -0.2185   -8.0184 H   0  0  0  0  0  0  0  0  0  0  0  0
   -1.2378    0.3346   -6.3111 H   0  0  0  0  0  0  0  0  0  0  0  0
   -2.0212    1.2441   -7.6532 H   0  0  0  0  0  0  0  0  0  0  0  0
    6.3451   -5.2717   -3.7959 H   0  0  0  0  0  0  0  0  0  0  0  0
    6.3615   -7.3319   -5.1486 H   0  0  0  0  0  0  0  0  0  0  0  0
    4.7776   -7.6087   -7.0162 H   0  0  0  0  0  0  0  0  0  0  0  0
    1.9507   -5.2603   -7.7014 H   0  0  0  0  0  0  0  0  0  0  0  0
    2.5353   -6.9348   -7.9190 H   0  0  0  0  0  0  0  0  0  0  0  0
    2.7908   -5.6272  -10.0167 H   0  0  0  0  0  0  0  0  0  0  0  0
    4.4073   -6.1095   -9.3801 H   0  0  0  0  0  0  0  0  0  0  0  0
    3.8151   -4.4146   -9.1632 H   0  0  0  0  0  0  0  0  0  0  0  0
    3.1046   -3.7243   -6.1768 H   0  0  0  0  0  0  0  0  0  0  0  0
   -4.3206   -1.4325    4.7443 H   0  0  0  0  0  0  0  0  0  0  0  0
   -6.7783   -1.4427    4.8680 H   0  0  0  0  0  0  0  0  0  0  0  0
   -8.0184    0.6513    5.2706 H   0  0  0  0  0  0  0  0  0  0  0  0
   -7.9489    2.9724    6.1320 H   0  0  0  0  0  0  0  0  0  0  0  0
   -6.3959    3.8549    6.2351 H   0  0  0  0  0  0  0  0  0  0  0  0
   -6.3563    4.1069    3.7375 H   0  0  0  0  0  0  0  0  0  0  0  0
   -7.8488    4.8106    4.4623 H   0  0  0  0  0  0  0  0  0  0  0  0
   -7.9270    3.2123    3.6303 H   0  0  0  0  0  0  0  0  0  0  0  0
   -4.3159    2.8358    5.3404 H   0  0  0  0  0  0  0  0  0  0  0  0
    2.6947    1.0348    0.2269 H   0  0  0  0  0  0  0  0  0  0  0  0
    3.1330    0.6310   -1.4373 H   0  0  0  0  0  0  0  0  0  0  0  0
    4.8500    2.0861   -0.3736 H   0  0  0  0  0  0  0  0  0  0  0  0
    5.5770    0.4844   -0.7469 H   0  0  0  0  0  0  0  0  0  0  0  0
    5.1078    0.8751    0.9397 H   0  0  0  0  0  0  0  0  0  0  0  0
    3.3140    0.4954    2.3389 H   0  0  0  0  0  0  0  0  0  0  0  0
    2.2137    1.5026    3.3224 H   0  0  0  0  0  0  0  0  0  0  0  0
    1.8354   -0.4761    4.8489 H   0  0  0  0  0  0  0  0  0  0  0  0
    3.5816   -0.0610    4.7118 H   0  0  0  0  0  0  0  0  0  0  0  0
    2.9172   -1.4728    3.8041 H   0  0  0  0  0  0  0  0  0  0  0  0
   -0.2957    7.3402    9.6904 H   0  0  0  0  0  0  0  0  0  0  0  0
    0.8224    7.4570    8.3036 H   0  0  0  0  0  0  0  0  0  0  0  0
    1.1928    5.6160   10.7667 H   0  0  0  0  0  0  0  0  0  0  0  0
    2.3673    5.8001    9.4086 H   0  0  0  0  0  0  0  0  0  0  0  0
    2.0109    7.1964   10.5106 H   0  0  0  0  0  0  0  0  0  0  0  0
    2.0352    6.0221    6.9858 H   0  0  0  0  0  0  0  0  0  0  0  0
    1.7318    4.6882    5.8441 H   0  0  0  0  0  0  0  0  0  0  0  0
    1.5285    6.9205    4.7487 H   0  0  0  0  0  0  0  0  0  0  0  0
    0.1722    7.3540    5.8592 H   0  0  0  0  0  0  0  0  0  0  0  0
   -0.0219    5.9940    4.6766 H   0  0  0  0  0  0  0  0  0  0  0  0
   -3.5451    5.0225   10.6873 H   0  0  0  0  0  0  0  0  0  0  0  0
   -6.6642    3.9609   14.9110 H   0  0  0  0  0  0  0  0  0  0  0  0
   -7.4497    1.8755   16.0061 H   0  0  0  0  0  0  0  0  0  0  0  0
   -4.6314   -0.4274   13.7164 H   0  0  0  0  0  0  0  0  0  0  0  0
  1  2  2  3
  2  3  1  0
  3  4  2  0
  3  5  1  0
  5  6  2  0
  6  7  1  0
  7  8  1  0
  7  9  2  0
  9 10  1  0
 10 11  2  0
 11 12  1  0
 12 13  2  3
 13 14  1  0
 14 15  3  0
 13 16  1  0
 16 17  3  0
  1 18  1  0
 18 19  2  0
 19 20  1  0
 19 21  1  0
 21 22  1  0
 21 23  2  0
 23 24  1  0
 24 25  2  0
 25 26  1  0
 26 27  1  0
 27 28  1  0
 26 29  2  0
 29 30  1  0
 30 31  2  0
 29 32  1  0
 32 33  1  0
 23 34  1  0
 34 35  2  0
 35 36  1  0
 36 37  2  0
 37 38  1  0
 38 39  2  0
 39 40  1  0
 40 41  1  0
 41 42  1  0
 40 43  2  0
 35 44  1  0
 44 45  1  0
 45 46  1  0
 46 47  1  0
 47 48  1  0
 48 49  1  0
 49 50  2  0
 50 51  1  0
 51 52  1  0
 49 53  1  0
 53 54  1  0
 54 55  1  0
 55 56  1  0
 56 57  1  0
 57 58  1  0
 58 59  2  0
 59 60  1  0
 60 61  2  0
 61 62  1  0
 62 63  1  0
 63 64  1  0
 62 65  2  0
 57 66  2  0
 66 67  1  0
 67 68  1  0
 68 69  1  0
 69 70  1  0
 70 71  1  0
 71 72  1  0
 72 73  1  0
 73 74  1  0
 74 75  1  0
 75 76  1  0
 73 77  1  0
 77 78  1  0
 70 79  1  0
 79 80  1  0
 66 81  1  0
 81 82  2  0
 82 83  1  0
 82 84  1  0
 84 85  1  0
 84 86  2  0
 86 87  1  0
 87 88  2  0
 88 89  1  0
 89 90  1  0
 90 91  1  0
 89 92  2  0
 92 93  1  0
 93 94  2  0
 92 95  1  0
 95 96  1  0
 86 97  1  0
 97 98  2  3
 98 99  1  0
 99100  2  0
 99101  1  0
101102  2  0
102103  1  0
103104  2  0
104105  1  0
104106  1  0
106107  2  0
107108  1  0
108109  2  3
109110  1  0
110111  3  0
109112  1  0
112113  3  0
 12  2  1  0
 31 18  1  0
 76 34  1  0
 94 81  1  0
108 98  1  0
 11  5  1  0
 31 24  1  0
 43 36  1  0
 75 44  2  0
 94 87  1  0
107101  1  0
 74 46  2  0
 72 47  2  0
 52 48  2  0
 71 53  2  0
 69 54  2  0
 68 56  2  0
 65 58  1  0
  1114  1  0
  6115  1  0
  8116  1  0
  8117  1  0
  8118  1  0
  9119  1  0
 10120  1  0
 27121  1  0
 27122  1  0
 28123  1  0
 28124  1  0
 28125  1  0
 32126  1  0
 32127  1  0
 33128  1  0
 33129  1  0
 33130  1  0
 37131  1  0
 38132  1  0
 39133  1  0
 41134  1  0
 41135  1  0
 42136  1  0
 42137  1  0
 42138  1  0
 43139  1  0
 59140  1  0
 60141  1  0
 61142  1  0
 63143  1  0
 63144  1  0
 64145  1  0
 64146  1  0
 64147  1  0
 65148  1  0
 77149  1  0
 77150  1  0
 78151  1  0
 78152  1  0
 78153  1  0
 79154  1  0
 79155  1  0
 80156  1  0
 80157  1  0
 80158  1  0
 90159  1  0
 90160  1  0
 91161  1  0
 91162  1  0
 91163  1  0
 95164  1  0
 95165  1  0
 96166  1  0
 96167  1  0
 96168  1  0
 97169  1  0
102170  1  0
103171  1  0
106172  1  0
M  END

