
     RDKit          3D

173192  0  0  0  0  0  0  0  0999 V2000
   -6.8197   -7.2602    3.5726 C   0  0  0  0  0  0  0  0  0  0  0  0
   -6.3596   -8.0261    4.5814 C   0  0  0  0  0  0  0  0  0  0  0  0
   -5.0318   -7.9794    5.2063 C   0  0  0  0  0  0  0  0  0  0  0  0
   -3.9519   -7.6431    4.6536 O   0  0  0  0  0  0  0  0  0  0  0  0
   -5.1423   -8.5292    6.5433 C   0  0  0  0  0  0  0  0  0  0  0  0
   -4.1865   -8.5405    7.5554 C   0  0  0  0  0  0  0  0  0  0  0  0
   -4.5410   -9.0632    8.8125 C   0  0  0  0  0  0  0  0  0  0  0  0
   -3.5603   -9.0339    9.9460 C   0  0  0  0  0  0  0  0  0  0  0  0
   -5.8571   -9.5211    9.0329 C   0  0  0  0  0  0  0  0  0  0  0  0
   -6.8074   -9.4930    7.9980 C   0  0  0  0  0  0  0  0  0  0  0  0
   -6.4265   -9.0119    6.7377 C   0  0  0  0  0  0  0  0  0  0  0  0
   -7.2047   -8.8636    5.4783 C   0  0  0  0  0  0  0  0  0  0  0  0
   -8.3212   -9.5574    5.1301 C   0  0  0  0  0  0  0  0  0  0  0  0
   -9.0194  -10.4135    6.0491 C   0  0  0  0  0  0  0  0  0  0  0  0
   -9.5919  -11.1024    6.7834 N   0  0  0  0  0  0  0  0  0  0  0  0
   -8.8077   -9.6016    3.7730 C   0  0  0  0  0  0  0  0  0  0  0  0
   -9.1944   -9.6325    2.6844 N   0  0  0  0  0  0  0  0  0  0  0  0
   -6.0812   -6.2125    2.8327 C   0  0  0  0  0  0  0  0  0  0  0  0
   -6.4997   -5.6876    1.6034 C   0  0  0  0  0  0  0  0  0  0  0  0
   -7.7285   -6.0873    0.8898 C   0  0  0  0  0  0  0  0  0  0  0  0
   -7.6696   -7.0260   -0.1669 C   0  0  0  0  0  0  0  0  0  0  0  0
   -8.8131   -7.2645   -0.9421 C   0  0  0  0  0  0  0  0  0  0  0  0
  -10.0175   -6.6124   -0.6584 C   0  0  0  0  0  0  0  0  0  0  0  0
  -11.2127   -6.8098   -1.5508 C   0  0  0  0  0  0  0  0  0  0  0  0
  -11.3144   -5.6720   -2.5636 C   0  0  0  0  0  0  0  0  0  0  0  0
  -10.0887   -5.7216    0.4179 C   0  0  0  0  0  0  0  0  0  0  0  0
   -8.9516   -5.4333    1.1943 C   0  0  0  0  0  0  0  0  0  0  0  0
   -9.0072   -4.4452    2.3575 C   0  0  0  0  0  0  0  0  0  0  0  0
  -10.3291   -3.7003    2.5588 C   0  0  0  0  0  0  0  0  0  0  0  0
   -6.3833   -7.7339   -0.5345 C   0  0  0  0  0  0  0  0  0  0  0  0
   -5.6514   -6.9847   -1.6436 C   0  0  0  0  0  0  0  0  0  0  0  0
   -5.7953   -4.5505    1.2066 C   0  0  0  0  0  0  0  0  0  0  0  0
   -4.8776   -4.1051    2.1423 C   0  0  0  0  0  0  0  0  0  0  0  0
   -4.9075   -5.1605    3.4508 S   0  0  0  0  0  0  0  0  0  0  0  0
   -4.2338   -2.7809    2.1443 C   0  0  0  0  0  0  0  0  0  0  0  0
   -4.8521   -1.5568    1.8101 C   0  0  0  0  0  0  0  0  0  0  0  0
   -6.1663   -1.4036    1.1717 C   0  0  0  0  0  0  0  0  0  0  0  0
   -7.3004   -1.0758    1.9274 C   0  0  0  0  0  0  0  0  0  0  0  0
   -8.5393   -0.9261    1.3005 C   0  0  0  0  0  0  0  0  0  0  0  0
   -8.6575   -1.1255   -0.0806 C   0  0  0  0  0  0  0  0  0  0  0  0
   -7.5213   -1.4172   -0.8508 C   0  0  0  0  0  0  0  0  0  0  0  0
   -7.6404   -1.6735   -2.3312 C   0  0  0  0  0  0  0  0  0  0  0  0
   -7.5063   -3.1634   -2.6486 C   0  0  0  0  0  0  0  0  0  0  0  0
   -6.2707   -1.5281   -0.2228 C   0  0  0  0  0  0  0  0  0  0  0  0
   -3.9638   -0.4992    1.9250 C   0  0  0  0  0  0  0  0  0  0  0  0
   -4.0782    1.1011    1.3967 S   0  0  0  0  0  0  0  0  0  0  0  0
   -2.4182    1.3457    1.6254 C   0  0  0  0  0  0  0  0  0  0  0  0
   -1.5296    2.0621    0.8849 C   0  0  0  0  0  0  0  0  0  0  0  0
   -1.8009    3.0085   -0.1195 C   0  0  0  0  0  0  0  0  0  0  0  0
   -0.7952    3.2961   -1.0838 C   0  0  0  0  0  0  0  0  0  0  0  0
   -1.1071    4.1800   -2.0619 N   0  0  0  0  0  0  0  0  0  0  0  0
   -2.6634    4.5381   -1.6275 S   0  0  0  0  0  0  0  0  0  0  0  0
   -2.9902    3.6419   -0.2742 N   0  0  0  0  0  0  0  0  0  0  0  0
    0.4280    2.6388   -0.9792 C   0  0  0  0  0  0  0  0  0  0  0  0
    1.5877    2.7877   -1.6718 C   0  0  0  0  0  0  0  0  0  0  0  0
    2.2065    3.8120   -2.8664 S   0  0  0  0  0  0  0  0  0  0  0  0
    3.7931    3.3014   -2.5028 C   0  0  0  0  0  0  0  0  0  0  0  0
    5.0423    3.7139   -2.9442 C   0  0  0  0  0  0  0  0  0  0  0  0
    5.2481    4.7225   -3.9952 C   0  0  0  0  0  0  0  0  0  0  0  0
    4.7548    6.0237   -3.8273 C   0  0  0  0  0  0  0  0  0  0  0  0
    4.9527    6.9842   -4.8234 C   0  0  0  0  0  0  0  0  0  0  0  0
    5.6005    6.6354   -6.0133 C   0  0  0  0  0  0  0  0  0  0  0  0
    6.0641    5.3239   -6.2083 C   0  0  0  0  0  0  0  0  0  0  0  0
    6.6968    4.9337   -7.5183 C   0  0  0  0  0  0  0  0  0  0  0  0
    8.1858    5.2624   -7.5314 C   0  0  0  0  0  0  0  0  0  0  0  0
    5.9074    4.3766   -5.1889 C   0  0  0  0  0  0  0  0  0  0  0  0
    6.0642    3.0847   -2.2136 C   0  0  0  0  0  0  0  0  0  0  0  0
    5.3980    2.0557   -1.0227 S   0  0  0  0  0  0  0  0  0  0  0  0
    3.8143    2.3945   -1.4719 C   0  0  0  0  0  0  0  0  0  0  0  0
    2.5451    2.0960   -1.0052 C   0  0  0  0  0  0  0  0  0  0  0  0
    2.0717    1.4870    0.1113 N   0  0  0  0  0  0  0  0  0  0  0  0
    0.7279    1.7580    0.0714 C   0  0  0  0  0  0  0  0  0  0  0  0
   -0.3086    1.3732    0.9640 C   0  0  0  0  0  0  0  0  0  0  0  0
   -0.4691    0.1920    1.6497 N   0  0  0  0  0  0  0  0  0  0  0  0
   -1.7697    0.2152    2.0510 C   0  0  0  0  0  0  0  0  0  0  0  0
   -2.6754   -0.8373    2.2506 C   0  0  0  0  0  0  0  0  0  0  0  0
   -2.5867   -2.5053    2.4829 S   0  0  0  0  0  0  0  0  0  0  0  0
    0.3242   -1.0414    1.5002 C   0  0  0  0  0  0  0  0  0  0  0  0
    0.7484   -1.5971    2.8660 C   0  0  0  0  0  0  0  0  0  0  0  0
    2.8853    1.2054    1.3079 C   0  0  0  0  0  0  0  0  0  0  0  0
    3.2990    2.5000    2.0021 C   0  0  0  0  0  0  0  0  0  0  0  0
    7.4617    3.5360   -2.1969 C   0  0  0  0  0  0  0  0  0  0  0  0
    7.7662    4.8411   -1.7851 C   0  0  0  0  0  0  0  0  0  0  0  0
    9.0831    5.3499   -1.8545 C   0  0  0  0  0  0  0  0  0  0  0  0
    9.2205    6.7065   -1.4153 N   0  0  0  0  0  0  0  0  0  0  0  0
    7.7169    7.0420   -1.0095 S   0  0  0  0  0  4  0  0  0  0  0  0
    6.7966    5.7697   -1.2798 N   0  0  0  0  0  0  0  0  0  0  0  0
   10.1499    4.5594   -2.3188 C   0  0  0  0  0  0  0  0  0  0  0  0
    9.8538    3.2547   -2.7632 C   0  0  0  0  0  0  0  0  0  0  0  0
   10.7864    2.4255   -3.2892 N   0  0  0  0  0  0  0  0  0  0  0  0
    9.8646    1.0952   -3.6129 S   0  0  0  0  0  0  0  0  0  0  0  0
    8.3279    1.4702   -3.1331 N   0  0  0  0  0  0  0  0  0  0  0  0
    8.5162    2.7361   -2.6779 C   0  0  0  0  0  0  0  0  0  0  0  0
   11.5119    5.1281   -2.4054 C   0  0  0  0  0  0  0  0  0  0  0  0
   12.1126    5.6373   -1.3099 C   0  0  0  0  0  0  0  0  0  0  0  0
   12.7255    6.9737   -1.3314 C   0  0  0  0  0  0  0  0  0  0  0  0
   13.3259    7.4939   -2.3063 O   0  0  0  0  0  0  0  0  0  0  0  0
   12.3809    7.6544   -0.0936 C   0  0  0  0  0  0  0  0  0  0  0  0
   12.4143    9.0258    0.1727 C   0  0  0  0  0  0  0  0  0  0  0  0
   11.7322    9.5075    1.3080 C   0  0  0  0  0  0  0  0  0  0  0  0
   11.6787   10.8856    1.5750 C   0  0  0  0  0  0  0  0  0  0  0  0
   10.9434   11.3676    2.6591 C   0  0  0  0  0  0  0  0  0  0  0  0
   10.2615   10.4714    3.4943 C   0  0  0  0  0  0  0  0  0  0  0  0
   10.3049    9.0960    3.2456 C   0  0  0  0  0  0  0  0  0  0  0  0
   11.0283    8.6020    2.1528 C   0  0  0  0  0  0  0  0  0  0  0  0
   11.0309    7.2211    1.8658 C   0  0  0  0  0  0  0  0  0  0  0  0
   11.7198    6.7670    0.7345 C   0  0  0  0  0  0  0  0  0  0  0  0
   11.6681    5.4331    0.0961 C   0  0  0  0  0  0  0  0  0  0  0  0
   11.5206    4.2427    0.7196 C   0  0  0  0  0  0  0  0  0  0  0  0
   11.7782    3.0114    0.0239 C   0  0  0  0  0  0  0  0  0  0  0  0
   12.0133    2.0191   -0.5323 N   0  0  0  0  0  0  0  0  0  0  0  0
   11.4038    4.1480    2.1551 C   0  0  0  0  0  0  0  0  0  0  0  0
   11.3561    4.1112    3.3079 N   0  0  0  0  0  0  0  0  0  0  0  0
   -7.8600   -7.3401    3.3062 H   0  0  0  0  0  0  0  0  0  0  0  0
   -3.1995   -8.1360    7.3779 H   0  0  0  0  0  0  0  0  0  0  0  0
   -3.6171   -8.0493   10.4558 H   0  0  0  0  0  0  0  0  0  0  0  0
   -3.7811   -9.8352   10.6824 H   0  0  0  0  0  0  0  0  0  0  0  0
   -2.5246   -9.1904    9.5685 H   0  0  0  0  0  0  0  0  0  0  0  0
   -6.1548   -9.8919   10.0087 H   0  0  0  0  0  0  0  0  0  0  0  0
   -7.8176   -9.7998    8.2145 H   0  0  0  0  0  0  0  0  0  0  0  0
   -8.7527   -7.9456   -1.7819 H   0  0  0  0  0  0  0  0  0  0  0  0
  -11.1425   -7.7754   -2.0975 H   0  0  0  0  0  0  0  0  0  0  0  0
  -12.1402   -6.8407   -0.9416 H   0  0  0  0  0  0  0  0  0  0  0  0
  -10.3865   -5.6158   -3.1736 H   0  0  0  0  0  0  0  0  0  0  0  0
  -12.1756   -5.8434   -3.2419 H   0  0  0  0  0  0  0  0  0  0  0  0
  -11.4606   -4.6986   -2.0383 H   0  0  0  0  0  0  0  0  0  0  0  0
  -11.0382   -5.2405    0.6096 H   0  0  0  0  0  0  0  0  0  0  0  0
   -8.7702   -4.9827    3.2987 H   0  0  0  0  0  0  0  0  0  0  0  0
   -8.2266   -3.6738    2.2094 H   0  0  0  0  0  0  0  0  0  0  0  0
  -10.6024   -3.1329    1.6458 H   0  0  0  0  0  0  0  0  0  0  0  0
  -11.1367   -4.4158    2.8217 H   0  0  0  0  0  0  0  0  0  0  0  0
  -10.2185   -2.9826    3.3983 H   0  0  0  0  0  0  0  0  0  0  0  0
   -6.6099   -8.7672   -0.8796 H   0  0  0  0  0  0  0  0  0  0  0  0
   -5.7131   -7.8365    0.3495 H   0  0  0  0  0  0  0  0  0  0  0  0
   -6.2781   -6.9485   -2.5627 H   0  0  0  0  0  0  0  0  0  0  0  0
   -5.4086   -5.9507   -1.3208 H   0  0  0  0  0  0  0  0  0  0  0  0
   -4.7061   -7.5157   -1.8910 H   0  0  0  0  0  0  0  0  0  0  0  0
   -6.0161   -4.0303    0.2910 H   0  0  0  0  0  0  0  0  0  0  0  0
   -7.2182   -0.9488    3.0014 H   0  0  0  0  0  0  0  0  0  0  0  0
   -9.4074   -0.6849    1.8927 H   0  0  0  0  0  0  0  0  0  0  0  0
   -9.6338   -1.0471   -0.5380 H   0  0  0  0  0  0  0  0  0  0  0  0
   -8.6176   -1.3079   -2.7158 H   0  0  0  0  0  0  0  0  0  0  0  0
   -6.8454   -1.1138   -2.8703 H   0  0  0  0  0  0  0  0  0  0  0  0
   -6.5024   -3.5337   -2.3447 H   0  0  0  0  0  0  0  0  0  0  0  0
   -8.2873   -3.7471   -2.1169 H   0  0  0  0  0  0  0  0  0  0  0  0
   -7.6187   -3.3198   -3.7422 H   0  0  0  0  0  0  0  0  0  0  0  0
   -5.3904   -1.7573   -0.8103 H   0  0  0  0  0  0  0  0  0  0  0  0
    4.2386    6.3009   -2.9156 H   0  0  0  0  0  0  0  0  0  0  0  0
    4.5908    7.9945   -4.6784 H   0  0  0  0  0  0  0  0  0  0  0  0
    5.7210    7.3815   -6.7914 H   0  0  0  0  0  0  0  0  0  0  0  0
    6.5603    3.8461   -7.7070 H   0  0  0  0  0  0  0  0  0  0  0  0
    6.1965    5.4722   -8.3545 H   0  0  0  0  0  0  0  0  0  0  0  0
    8.7137    4.6681   -6.7534 H   0  0  0  0  0  0  0  0  0  0  0  0
    8.6104    5.0080   -8.5251 H   0  0  0  0  0  0  0  0  0  0  0  0
    8.3431    6.3432   -7.3348 H   0  0  0  0  0  0  0  0  0  0  0  0
    6.2789    3.3643   -5.3209 H   0  0  0  0  0  0  0  0  0  0  0  0
    1.2137   -0.8866    0.8615 H   0  0  0  0  0  0  0  0  0  0  0  0
   -0.2820   -1.8065    0.9666 H   0  0  0  0  0  0  0  0  0  0  0  0
    1.5406   -0.9751    3.3267 H   0  0  0  0  0  0  0  0  0  0  0  0
    1.1306   -2.6319    2.7421 H   0  0  0  0  0  0  0  0  0  0  0  0
   -0.1098   -1.6179    3.5684 H   0  0  0  0  0  0  0  0  0  0  0  0
    3.7808    0.6154    1.0246 H   0  0  0  0  0  0  0  0  0  0  0  0
    2.3085    0.6261    2.0397 H   0  0  0  0  0  0  0  0  0  0  0  0
    3.9780    3.1011    1.3606 H   0  0  0  0  0  0  0  0  0  0  0  0
    2.4059    3.1094    2.2517 H   0  0  0  0  0  0  0  0  0  0  0  0
    3.8410    2.2584    2.9440 H   0  0  0  0  0  0  0  0  0  0  0  0
   11.7413    5.5902   -3.3522 H   0  0  0  0  0  0  0  0  0  0  0  0
   12.8899    9.7087   -0.5221 H   0  0  0  0  0  0  0  0  0  0  0  0
   12.1973   11.5946    0.9330 H   0  0  0  0  0  0  0  0  0  0  0  0
   10.8975   12.4319    2.8580 H   0  0  0  0  0  0  0  0  0  0  0  0
    9.6924   10.8474    4.3399 H   0  0  0  0  0  0  0  0  0  0  0  0
    9.7596    8.4237    3.9028 H   0  0  0  0  0  0  0  0  0  0  0  0
   10.4418    6.5420    2.4687 H   0  0  0  0  0  0  0  0  0  0  0  0
  1  2  2  3
  2  3  1  0
  3  4  2  0
  3  5  1  0
  5  6  2  0
  6  7  1  0
  7  8  1  0
  7  9  2  0
  9 10  1  0
 10 11  2  0
 11 12  1  0
 12 13  2  3
 13 14  1  0
 14 15  3  0
 13 16  1  0
 16 17  3  0
  1 18  1  0
 18 19  2  0
 19 20  1  0
 20 21  2  0
 21 22  1  0
 22 23  2  0
 23 24  1  0
 24 25  1  0
 23 26  1  0
 26 27  2  0
 27 28  1  0
 28 29  1  0
 21 30  1  0
 30 31  1  0
 19 32  1  0
 32 33  2  0
 33 34  1  0
 33 35  1  0
 35 36  2  0
 36 37  1  0
 37 38  2  0
 38 39  1  0
 39 40  2  0
 40 41  1  0
 41 42  1  0
 42 43  1  0
 41 44  2  0
 36 45  1  0
 45 46  1  0
 46 47  1  0
 47 48  1  0
 48 49  1  0
 49 50  1  0
 50 51  2  0
 51 52  1  0
 52 53  1  0
 50 54  1  0
 54 55  1  0
 55 56  1  0
 56 57  1  0
 57 58  1  0
 58 59  1  0
 59 60  2  0
 60 61  1  0
 61 62  2  0
 62 63  1  0
 63 64  1  0
 64 65  1  0
 63 66  2  0
 58 67  2  0
 67 68  1  0
 68 69  1  0
 69 70  1  0
 70 71  1  0
 71 72  1  0
 72 73  1  0
 73 74  1  0
 74 75  1  0
 75 76  1  0
 76 77  1  0
 74 78  1  0
 78 79  1  0
 71 80  1  0
 80 81  1  0
 67 82  1  0
 82 83  2  0
 83 84  1  0
 84 85  1  0
 85 86  2  0
 86 87  2  0
 84 88  2  0
 88 89  1  0
 89 90  2  0
 90 91  1  0
 91 92  1  0
 92 93  2  0
 88 94  1  0
 94 95  2  3
 95 96  1  0
 96 97  2  0
 96 98  1  0
 98 99  2  0
 99100  1  0
100101  2  0
101102  1  0
102103  2  0
103104  1  0
104105  2  0
105106  1  0
106107  2  0
107108  1  0
108109  2  3
109110  1  0
110111  3  0
109112  1  0
112113  3  0
 12  2  1  0
 34 18  1  0
 77 35  1  0
 93 82  1  0
108 95  1  0
 11  5  1  0
 27 20  1  0
 44 37  1  0
 76 45  2  0
 87 83  1  0
 93 89  1  0
107 98  1  0
 75 47  2  0
105100  1  0
 73 48  2  0
 53 49  2  0
 72 54  2  0
 70 55  2  0
 69 57  2  0
 66 59  1  0
  1114  1  0
  6115  1  0
  8116  1  0
  8117  1  0
  8118  1  0
  9119  1  0
 10120  1  0
 22121  1  0
 24122  1  0
 24123  1  0
 25124  1  0
 25125  1  0
 25126  1  0
 26127  1  0
 28128  1  0
 28129  1  0
 29130  1  0
 29131  1  0
 29132  1  0
 30133  1  0
 30134  1  0
 31135  1  0
 31136  1  0
 31137  1  0
 32138  1  0
 38139  1  0
 39140  1  0
 40141  1  0
 42142  1  0
 42143  1  0
 43144  1  0
 43145  1  0
 43146  1  0
 44147  1  0
 60148  1  0
 61149  1  0
 62150  1  0
 64151  1  0
 64152  1  0
 65153  1  0
 65154  1  0
 65155  1  0
 66156  1  0
 78157  1  0
 78158  1  0
 79159  1  0
 79160  1  0
 79161  1  0
 80162  1  0
 80163  1  0
 81164  1  0
 81165  1  0
 81166  1  0
 94167  1  0
 99168  1  0
101169  1  0
102170  1  0
103171  1  0
104172  1  0
106173  1  0
M  END

