
     RDKit          3D

238258  0  0  0  0  0  0  0  0999 V2000
    3.8280  -11.6707   -3.7831 C   0  0  0  0  0  0  0  0  0  0  0  0
    4.7834  -11.8275   -2.8423 C   0  0  0  0  0  0  0  0  0  0  0  0
    4.8995  -11.0727   -1.5856 C   0  0  0  0  0  0  0  0  0  0  0  0
    4.4271   -9.9298   -1.3461 O   0  0  0  0  0  0  0  0  0  0  0  0
    5.7362  -11.8236   -0.6764 C   0  0  0  0  0  0  0  0  0  0  0  0
    5.9561  -11.5861    0.6794 C   0  0  0  0  0  0  0  0  0  0  0  0
    6.7053  -12.5216    1.4127 C   0  0  0  0  0  0  0  0  0  0  0  0
    6.9147  -12.3392    2.8851 C   0  0  0  0  0  0  0  0  0  0  0  0
    7.1866  -13.6863    0.7732 C   0  0  0  0  0  0  0  0  0  0  0  0
    6.9419  -13.9051   -0.5916 C   0  0  0  0  0  0  0  0  0  0  0  0
    6.2273  -12.9430   -1.3240 C   0  0  0  0  0  0  0  0  0  0  0  0
    5.7809  -12.9415   -2.7473 C   0  0  0  0  0  0  0  0  0  0  0  0
    6.3259  -13.6486   -3.7673 C   0  0  0  0  0  0  0  0  0  0  0  0
    5.9621  -13.4292   -5.1460 C   0  0  0  0  0  0  0  0  0  0  0  0
    5.6522  -13.2683   -6.2483 N   0  0  0  0  0  0  0  0  0  0  0  0
    7.3630  -14.6277   -3.5648 C   0  0  0  0  0  0  0  0  0  0  0  0
    8.1958  -15.4188   -3.4160 N   0  0  0  0  0  0  0  0  0  0  0  0
    2.7462  -10.6739   -3.7008 C   0  0  0  0  0  0  0  0  0  0  0  0
    2.4812   -9.6792   -4.6392 C   0  0  0  0  0  0  0  0  0  0  0  0
    3.2974   -9.4478   -5.8517 C   0  0  0  0  0  0  0  0  0  0  0  0
    4.5272   -8.7483   -5.7602 C   0  0  0  0  0  0  0  0  0  0  0  0
    5.3081   -8.5767   -6.9112 C   0  0  0  0  0  0  0  0  0  0  0  0
    4.8908   -9.0777   -8.1455 C   0  0  0  0  0  0  0  0  0  0  0  0
    5.7086   -8.8093   -9.3816 C   0  0  0  0  0  0  0  0  0  0  0  0
    5.2404   -7.5285  -10.0651 C   0  0  0  0  0  0  0  0  0  0  0  0
    3.6484   -9.7108   -8.2491 C   0  0  0  0  0  0  0  0  0  0  0  0
    2.8305   -9.8828   -7.1180 C   0  0  0  0  0  0  0  0  0  0  0  0
    1.4699  -10.5131   -7.3032 C   0  0  0  0  0  0  0  0  0  0  0  0
    1.5432  -12.0312   -7.1780 C   0  0  0  0  0  0  0  0  0  0  0  0
    4.9719   -8.0551   -4.4890 C   0  0  0  0  0  0  0  0  0  0  0  0
    4.5713   -6.5816   -4.5244 C   0  0  0  0  0  0  0  0  0  0  0  0
    1.5116   -8.7659   -4.2116 C   0  0  0  0  0  0  0  0  0  0  0  0
    0.9766   -9.0604   -2.9611 C   0  0  0  0  0  0  0  0  0  0  0  0
    1.7221  -10.4479   -2.3842 S   0  0  0  0  0  0  0  0  0  0  0  0
    0.4828   -8.0208   -2.0695 C   0  0  0  0  0  0  0  0  0  0  0  0
    1.3809   -6.6137   -1.7616 S   0  0  0  0  0  0  0  0  0  0  0  0
    0.1737   -5.9364   -0.8397 C   0  0  0  0  0  0  0  0  0  0  0  0
   -0.2439   -4.6540   -0.7113 C   0  0  0  0  0  0  0  0  0  0  0  0
    0.2582   -3.2776   -1.5347 S   0  0  0  0  0  0  0  0  0  0  0  0
   -1.3168   -2.6736   -1.5510 C   0  0  0  0  0  0  0  0  0  0  0  0
   -1.7472   -1.3155   -1.5151 C   0  0  0  0  0  0  0  0  0  0  0  0
   -1.0518   -0.1857   -1.9287 C   0  0  0  0  0  0  0  0  0  0  0  0
   -1.6081    1.0549   -1.6034 C   0  0  0  0  0  0  0  0  0  0  0  0
   -0.9280    2.4100   -1.6998 C   0  0  0  0  0  0  0  0  0  0  0  0
    0.1541    2.4129   -0.5841 C   0  0  0  0  0  0  0  0  0  0  0  0
    1.3430    1.6620   -0.7290 C   0  0  0  0  0  0  0  0  0  0  0  0
    2.2801    1.5844    0.3045 C   0  0  0  0  0  0  0  0  0  0  0  0
    2.0356    2.2123    1.5266 C   0  0  0  0  0  0  0  0  0  0  0  0
    0.8420    2.9015    1.7362 C   0  0  0  0  0  0  0  0  0  0  0  0
    0.6111    3.4811    2.9952 O   0  0  0  0  0  0  0  0  0  0  0  0
   -0.5614    4.2214    3.3344 C   0  0  0  0  0  0  0  0  0  0  0  0
   -0.4739    4.6980    4.7763 C   0  0  0  0  0  0  0  0  0  0  0  0
   -0.0923    2.9854    0.6892 C   0  0  0  0  0  0  0  0  0  0  0  0
   -0.4622    2.6752   -3.1410 C   0  0  0  0  0  0  0  0  0  0  0  0
   -1.3945    2.5376   -4.1926 C   0  0  0  0  0  0  0  0  0  0  0  0
   -1.0223    2.7541   -5.5189 C   0  0  0  0  0  0  0  0  0  0  0  0
    0.2933    3.0922   -5.8298 C   0  0  0  0  0  0  0  0  0  0  0  0
    1.2448    3.2368   -4.8168 C   0  0  0  0  0  0  0  0  0  0  0  0
    2.5606    3.5525   -5.1864 O   0  0  0  0  0  0  0  0  0  0  0  0
    3.6565    3.6595   -4.2838 C   0  0  0  0  0  0  0  0  0  0  0  0
    4.9336    3.9076   -5.0702 C   0  0  0  0  0  0  0  0  0  0  0  0
    0.8613    3.0572   -3.4751 C   0  0  0  0  0  0  0  0  0  0  0  0
   -2.1306    3.2897   -1.3528 C   0  0  0  0  0  0  0  0  0  0  0  0
   -3.1597    2.5293   -0.8349 C   0  0  0  0  0  0  0  0  0  0  0  0
   -2.8509    1.1329   -0.9754 C   0  0  0  0  0  0  0  0  0  0  0  0
   -3.5285   -0.0083   -0.5197 C   0  0  0  0  0  0  0  0  0  0  0  0
   -2.9141   -1.2499   -0.7665 C   0  0  0  0  0  0  0  0  0  0  0  0
   -3.1820   -2.5930   -0.0951 C   0  0  0  0  0  0  0  0  0  0  0  0
   -2.6919   -2.5836    1.3777 C   0  0  0  0  0  0  0  0  0  0  0  0
   -2.0398   -1.4706    1.9628 C   0  0  0  0  0  0  0  0  0  0  0  0
   -1.5449   -1.5264    3.2668 C   0  0  0  0  0  0  0  0  0  0  0  0
   -1.6365   -2.7077    3.9944 C   0  0  0  0  0  0  0  0  0  0  0  0
   -2.2287   -3.8452    3.4387 C   0  0  0  0  0  0  0  0  0  0  0  0
   -2.2274   -5.0190    4.2046 O   0  0  0  0  0  0  0  0  0  0  0  0
   -2.7496   -6.2843    3.7986 C   0  0  0  0  0  0  0  0  0  0  0  0
   -4.2575   -6.3258    3.9966 C   0  0  0  0  0  0  0  0  0  0  0  0
   -2.7787   -3.7704    2.1407 C   0  0  0  0  0  0  0  0  0  0  0  0
   -4.6603   -2.9617   -0.2758 C   0  0  0  0  0  0  0  0  0  0  0  0
   -5.1806   -3.1579   -1.5715 C   0  0  0  0  0  0  0  0  0  0  0  0
   -6.5286   -3.4695   -1.7622 C   0  0  0  0  0  0  0  0  0  0  0  0
   -7.3886   -3.5682   -0.6652 C   0  0  0  0  0  0  0  0  0  0  0  0
   -6.9101   -3.3453    0.6288 C   0  0  0  0  0  0  0  0  0  0  0  0
   -7.8078   -3.4713    1.7026 O   0  0  0  0  0  0  0  0  0  0  0  0
   -7.4246   -3.4457    3.0727 C   0  0  0  0  0  0  0  0  0  0  0  0
   -8.6300   -3.7481    3.9498 C   0  0  0  0  0  0  0  0  0  0  0  0
   -5.5566   -3.0162    0.8177 C   0  0  0  0  0  0  0  0  0  0  0  0
   -2.2297   -3.4889   -0.9073 C   0  0  0  0  0  0  0  0  0  0  0  0
   -1.6051   -4.6857   -0.5158 C   0  0  0  0  0  0  0  0  0  0  0  0
   -2.0731   -5.9656   -0.6456 N   0  0  0  0  0  0  0  0  0  0  0  0
   -0.9490   -6.7128   -0.8322 C   0  0  0  0  0  0  0  0  0  0  0  0
   -0.8012   -7.9288   -1.5158 C   0  0  0  0  0  0  0  0  0  0  0  0
   -3.4238   -6.3685   -1.0518 C   0  0  0  0  0  0  0  0  0  0  0  0
   -4.1135   -7.1633    0.0506 C   0  0  0  0  0  0  0  0  0  0  0  0
   -4.1894    3.4040    0.2019 S   0  0  0  0  0  0  0  0  0  0  0  0
   -3.3824    4.8382   -0.1979 C   0  0  0  0  0  0  0  0  0  0  0  0
   -3.1682    6.0492    0.4104 C   0  0  0  0  0  0  0  0  0  0  0  0
   -3.4996    6.7670    1.8923 S   0  0  0  0  0  0  0  0  0  0  0  0
   -2.1588    7.8369    1.8007 C   0  0  0  0  0  0  0  0  0  0  0  0
   -1.4389    7.5649    0.6250 C   0  0  0  0  0  0  0  0  0  0  0  0
   -2.0095    6.5314   -0.0997 C   0  0  0  0  0  0  0  0  0  0  0  0
   -1.4279    5.6793   -0.9795 N   0  0  0  0  0  0  0  0  0  0  0  0
   -0.0842    5.7900   -1.5486 C   0  0  0  0  0  0  0  0  0  0  0  0
   -0.1614    6.2099   -3.0089 C   0  0  0  0  0  0  0  0  0  0  0  0
   -2.3002    4.6355   -1.0241 C   0  0  0  0  0  0  0  0  0  0  0  0
   -1.7344    8.7523    2.8913 C   0  0  0  0  0  0  0  0  0  0  0  0
   -0.5559    9.5189    2.9701 C   0  0  0  0  0  0  0  0  0  0  0  0
    0.4863    9.5916    1.9243 C   0  0  0  0  0  0  0  0  0  0  0  0
    0.3581   10.5322    0.8709 C   0  0  0  0  0  0  0  0  0  0  0  0
    1.2747   10.5097   -0.1889 C   0  0  0  0  0  0  0  0  0  0  0  0
    2.3124    9.5732   -0.2195 C   0  0  0  0  0  0  0  0  0  0  0  0
    3.2356    9.5053   -1.4061 C   0  0  0  0  0  0  0  0  0  0  0  0
    2.7347    8.4797   -2.4200 C   0  0  0  0  0  0  0  0  0  0  0  0
    2.4479    8.6553    0.8268 C   0  0  0  0  0  0  0  0  0  0  0  0
    1.5350    8.6311    1.9004 C   0  0  0  0  0  0  0  0  0  0  0  0
    1.6704    7.6147    3.0278 C   0  0  0  0  0  0  0  0  0  0  0  0
    2.4968    6.3711    2.6961 C   0  0  0  0  0  0  0  0  0  0  0  0
   -0.7313   11.5813    0.8569 C   0  0  0  0  0  0  0  0  0  0  0  0
   -0.2624   12.8549    1.5506 C   0  0  0  0  0  0  0  0  0  0  0  0
   -0.4053   10.1969    4.1860 C   0  0  0  0  0  0  0  0  0  0  0  0
   -1.4655   10.0199    5.0572 C   0  0  0  0  0  0  0  0  0  0  0  0
   -2.5605    8.9475    4.3541 S   0  0  0  0  0  0  0  0  0  0  0  0
   -1.4392   10.4644    6.4555 C   0  0  0  0  0  0  0  0  0  0  0  0
   -2.3624   11.2597    7.0287 C   0  0  0  0  0  0  0  0  0  0  0  0
   -3.6627   11.6288    6.4575 C   0  0  0  0  0  0  0  0  0  0  0  0
   -4.0311   11.4752    5.2636 O   0  0  0  0  0  0  0  0  0  0  0  0
   -4.4645   12.2230    7.5082 C   0  0  0  0  0  0  0  0  0  0  0  0
   -5.7910   12.6536    7.4401 C   0  0  0  0  0  0  0  0  0  0  0  0
   -6.3924   13.1779    8.5966 C   0  0  0  0  0  0  0  0  0  0  0  0
   -7.8036   13.6874    8.5575 C   0  0  0  0  0  0  0  0  0  0  0  0
   -5.6449   13.2734    9.7897 C   0  0  0  0  0  0  0  0  0  0  0  0
   -4.3147   12.8273    9.8380 C   0  0  0  0  0  0  0  0  0  0  0  0
   -3.7222   12.3061    8.6758 C   0  0  0  0  0  0  0  0  0  0  0  0
   -2.3397   11.8042    8.4242 C   0  0  0  0  0  0  0  0  0  0  0  0
   -1.2399   12.0316    9.1948 C   0  0  0  0  0  0  0  0  0  0  0  0
    0.0997   11.8301    8.7080 C   0  0  0  0  0  0  0  0  0  0  0  0
    1.1823   11.6781    8.3251 N   0  0  0  0  0  0  0  0  0  0  0  0
   -1.3094   12.6003   10.5141 C   0  0  0  0  0  0  0  0  0  0  0  0
   -1.3480   13.0532   11.5787 N   0  0  0  0  0  0  0  0  0  0  0  0
    3.7937  -12.3130   -4.6453 H   0  0  0  0  0  0  0  0  0  0  0  0
    5.5275  -10.7130    1.1585 H   0  0  0  0  0  0  0  0  0  0  0  0
    6.7632  -11.2767    3.1843 H   0  0  0  0  0  0  0  0  0  0  0  0
    7.9467  -12.6329    3.1645 H   0  0  0  0  0  0  0  0  0  0  0  0
    6.1921  -12.9731    3.4389 H   0  0  0  0  0  0  0  0  0  0  0  0
    7.7250  -14.4314    1.3418 H   0  0  0  0  0  0  0  0  0  0  0  0
    7.2726  -14.8309   -1.0298 H   0  0  0  0  0  0  0  0  0  0  0  0
    6.2394   -8.0240   -6.8474 H   0  0  0  0  0  0  0  0  0  0  0  0
    5.6200   -9.6615  -10.0888 H   0  0  0  0  0  0  0  0  0  0  0  0
    6.7842   -8.7086   -9.1157 H   0  0  0  0  0  0  0  0  0  0  0  0
    5.2761   -6.6736   -9.3566 H   0  0  0  0  0  0  0  0  0  0  0  0
    5.9012   -7.3030  -10.9280 H   0  0  0  0  0  0  0  0  0  0  0  0
    4.2009   -7.6503  -10.4357 H   0  0  0  0  0  0  0  0  0  0  0  0
    3.3038  -10.0520   -9.2180 H   0  0  0  0  0  0  0  0  0  0  0  0
    0.7402  -10.1150   -6.5673 H   0  0  0  0  0  0  0  0  0  0  0  0
    1.0651  -10.2565   -8.3079 H   0  0  0  0  0  0  0  0  0  0  0  0
    2.2280  -12.4482   -7.9460 H   0  0  0  0  0  0  0  0  0  0  0  0
    0.5314  -12.4603   -7.3314 H   0  0  0  0  0  0  0  0  0  0  0  0
    1.8972  -12.3209   -6.1674 H   0  0  0  0  0  0  0  0  0  0  0  0
    6.0764   -8.1274   -4.3845 H   0  0  0  0  0  0  0  0  0  0  0  0
    4.5373   -8.5253   -3.5861 H   0  0  0  0  0  0  0  0  0  0  0  0
    5.1299   -6.0568   -5.3280 H   0  0  0  0  0  0  0  0  0  0  0  0
    3.4810   -6.4750   -4.7099 H   0  0  0  0  0  0  0  0  0  0  0  0
    4.8175   -6.1029   -3.5533 H   0  0  0  0  0  0  0  0  0  0  0  0
    1.2941   -7.8493   -4.7441 H   0  0  0  0  0  0  0  0  0  0  0  0
   -0.0994   -0.2695   -2.4273 H   0  0  0  0  0  0  0  0  0  0  0  0
    1.5565    1.1352   -1.6493 H   0  0  0  0  0  0  0  0  0  0  0  0
    3.1964    1.0265    0.1581 H   0  0  0  0  0  0  0  0  0  0  0  0
    2.7693    2.1374    2.3188 H   0  0  0  0  0  0  0  0  0  0  0  0
   -0.6593    5.1025    2.6632 H   0  0  0  0  0  0  0  0  0  0  0  0
   -1.4609    3.5755    3.2273 H   0  0  0  0  0  0  0  0  0  0  0  0
   -0.3756    3.8265    5.4589 H   0  0  0  0  0  0  0  0  0  0  0  0
   -1.3953    5.2619    5.0384 H   0  0  0  0  0  0  0  0  0  0  0  0
    0.4023    5.3673    4.9084 H   0  0  0  0  0  0  0  0  0  0  0  0
   -1.0232    3.4775    0.8908 H   0  0  0  0  0  0  0  0  0  0  0  0
   -2.4243    2.2649   -3.9849 H   0  0  0  0  0  0  0  0  0  0  0  0
   -1.7525    2.6453   -6.3088 H   0  0  0  0  0  0  0  0  0  0  0  0
    0.5791    3.2400   -6.8639 H   0  0  0  0  0  0  0  0  0  0  0  0
    3.4844    4.5056   -3.5851 H   0  0  0  0  0  0  0  0  0  0  0  0
    3.7663    2.7157   -3.7076 H   0  0  0  0  0  0  0  0  0  0  0  0
    5.7886    4.0278   -4.3706 H   0  0  0  0  0  0  0  0  0  0  0  0
    4.8335    4.8293   -5.6816 H   0  0  0  0  0  0  0  0  0  0  0  0
    5.1365    3.0449   -5.7398 H   0  0  0  0  0  0  0  0  0  0  0  0
    1.5886    3.2385   -2.7048 H   0  0  0  0  0  0  0  0  0  0  0  0
   -4.4330    0.0705    0.0658 H   0  0  0  0  0  0  0  0  0  0  0  0
   -1.8863   -0.5476    1.4277 H   0  0  0  0  0  0  0  0  0  0  0  0
   -1.0653   -0.6564    3.7008 H   0  0  0  0  0  0  0  0  0  0  0  0
   -1.2195   -2.7497    4.9941 H   0  0  0  0  0  0  0  0  0  0  0  0
   -2.4670   -6.5202    2.7546 H   0  0  0  0  0  0  0  0  0  0  0  0
   -2.2961   -7.0668    4.4411 H   0  0  0  0  0  0  0  0  0  0  0  0
   -4.6570   -7.3069    3.6686 H   0  0  0  0  0  0  0  0  0  0  0  0
   -4.7678   -5.5091    3.4387 H   0  0  0  0  0  0  0  0  0  0  0  0
   -4.4906   -6.2041    5.0778 H   0  0  0  0  0  0  0  0  0  0  0  0
   -3.2699   -4.6264    1.7054 H   0  0  0  0  0  0  0  0  0  0  0  0
   -4.5346   -3.0793   -2.4399 H   0  0  0  0  0  0  0  0  0  0  0  0
   -6.9067   -3.6383   -2.7625 H   0  0  0  0  0  0  0  0  0  0  0  0
   -8.4301   -3.8164   -0.8256 H   0  0  0  0  0  0  0  0  0  0  0  0
   -6.6470   -4.2164    3.2594 H   0  0  0  0  0  0  0  0  0  0  0  0
   -7.0230   -2.4419    3.3368 H   0  0  0  0  0  0  0  0  0  0  0  0
   -9.3864   -2.9430    3.8494 H   0  0  0  0  0  0  0  0  0  0  0  0
   -8.3121   -3.8151    5.0116 H   0  0  0  0  0  0  0  0  0  0  0  0
   -9.0809   -4.7173    3.6528 H   0  0  0  0  0  0  0  0  0  0  0  0
   -5.2157   -2.7885    1.8137 H   0  0  0  0  0  0  0  0  0  0  0  0
   -1.6003   -8.6329   -1.7113 H   0  0  0  0  0  0  0  0  0  0  0  0
   -4.0405   -5.4845   -1.2939 H   0  0  0  0  0  0  0  0  0  0  0  0
   -3.3789   -6.9850   -1.9769 H   0  0  0  0  0  0  0  0  0  0  0  0
   -4.2865   -6.5156    0.9328 H   0  0  0  0  0  0  0  0  0  0  0  0
   -5.0953   -7.5229   -0.3126 H   0  0  0  0  0  0  0  0  0  0  0  0
   -3.4884   -8.0335    0.3500 H   0  0  0  0  0  0  0  0  0  0  0  0
   -0.5053    8.0002    0.3331 H   0  0  0  0  0  0  0  0  0  0  0  0
    0.5230    6.5348   -0.9947 H   0  0  0  0  0  0  0  0  0  0  0  0
    0.4541    4.8363   -1.4507 H   0  0  0  0  0  0  0  0  0  0  0  0
    0.8509    6.1678   -3.4631 H   0  0  0  0  0  0  0  0  0  0  0  0
   -0.5428    7.2499   -3.0794 H   0  0  0  0  0  0  0  0  0  0  0  0
   -0.8387    5.5339   -3.5730 H   0  0  0  0  0  0  0  0  0  0  0  0
    1.1702   11.2163   -1.0045 H   0  0  0  0  0  0  0  0  0  0  0  0
    4.2601    9.2228   -1.0768 H   0  0  0  0  0  0  0  0  0  0  0  0
    3.3076   10.5001   -1.8984 H   0  0  0  0  0  0  0  0  0  0  0  0
    1.7227    8.7602   -2.7855 H   0  0  0  0  0  0  0  0  0  0  0  0
    2.6879    7.4697   -1.9588 H   0  0  0  0  0  0  0  0  0  0  0  0
    3.4295    8.4402   -3.2849 H   0  0  0  0  0  0  0  0  0  0  0  0
    3.2593    7.9457    0.7734 H   0  0  0  0  0  0  0  0  0  0  0  0
    2.1089    8.1186    3.9160 H   0  0  0  0  0  0  0  0  0  0  0  0
    0.6614    7.2512    3.3152 H   0  0  0  0  0  0  0  0  0  0  0  0
    3.5723    6.6310    2.5981 H   0  0  0  0  0  0  0  0  0  0  0  0
    2.4084    5.6341    3.5207 H   0  0  0  0  0  0  0  0  0  0  0  0
    2.1281    5.8952    1.7611 H   0  0  0  0  0  0  0  0  0  0  0  0
   -1.6579   11.2135    1.3459 H   0  0  0  0  0  0  0  0  0  0  0  0
   -1.0115   11.8255   -0.1928 H   0  0  0  0  0  0  0  0  0  0  0  0
    0.6279   13.2706    1.0313 H   0  0  0  0  0  0  0  0  0  0  0  0
   -1.0753   13.6106    1.5287 H   0  0  0  0  0  0  0  0  0  0  0  0
    0.0019   12.6461    2.6095 H   0  0  0  0  0  0  0  0  0  0  0  0
    0.4692   10.7870    4.4306 H   0  0  0  0  0  0  0  0  0  0  0  0
   -0.5732   10.1535    7.0130 H   0  0  0  0  0  0  0  0  0  0  0  0
   -6.3434   12.5740    6.5111 H   0  0  0  0  0  0  0  0  0  0  0  0
   -8.3738   13.2119    7.7299 H   0  0  0  0  0  0  0  0  0  0  0  0
   -8.3256   13.4573    9.5092 H   0  0  0  0  0  0  0  0  0  0  0  0
   -7.7986   14.7868    8.4061 H   0  0  0  0  0  0  0  0  0  0  0  0
   -6.0932   13.6912   10.6806 H   0  0  0  0  0  0  0  0  0  0  0  0
   -3.7942   12.8847   10.7759 H   0  0  0  0  0  0  0  0  0  0  0  0
  1  2  2  3
  2  3  1  0
  3  4  2  0
  3  5  1  0
  5  6  2  0
  6  7  1  0
  7  8  1  0
  7  9  2  0
  9 10  1  0
 10 11  2  0
 11 12  1  0
 12 13  2  3
 13 14  1  0
 14 15  3  0
 13 16  1  0
 16 17  3  0
  1 18  1  0
 18 19  2  0
 19 20  1  0
 20 21  2  0
 21 22  1  0
 22 23  2  0
 23 24  1  0
 24 25  1  0
 23 26  1  0
 26 27  2  0
 27 28  1  0
 28 29  1  0
 21 30  1  0
 30 31  1  0
 19 32  1  0
 32 33  2  0
 33 34  1  0
 33 35  1  0
 35 36  1  0
 36 37  1  0
 37 38  1  0
 38 39  1  0
 39 40  1  0
 40 41  1  0
 41 42  2  0
 42 43  1  0
 43 44  1  0
 44 45  1  0
 45 46  2  0
 46 47  1  0
 47 48  2  0
 48 49  1  0
 49 50  1  0
 50 51  1  0
 51 52  1  0
 49 53  2  0
 44 54  1  0
 54 55  2  0
 55 56  1  0
 56 57  2  0
 57 58  1  0
 58 59  1  0
 59 60  1  0
 60 61  1  0
 58 62  2  0
 44 63  1  0
 63 64  2  0
 64 65  1  0
 65 66  1  0
 66 67  2  0
 67 68  1  0
 68 69  1  0
 69 70  2  0
 70 71  1  0
 71 72  2  0
 72 73  1  0
 73 74  1  0
 74 75  1  0
 75 76  1  0
 73 77  2  0
 68 78  1  0
 78 79  2  0
 79 80  1  0
 80 81  2  0
 81 82  1  0
 82 83  1  0
 83 84  1  0
 84 85  1  0
 82 86  2  0
 68 87  1  0
 87 88  1  0
 88 89  1  0
 89 90  1  0
 90 91  1  0
 89 92  1  0
 92 93  1  0
 64 94  1  0
 94 95  1  0
 95 96  1  0
 96 97  1  0
 97 98  1  0
 98 99  2  0
 99100  1  0
100101  1  0
101102  1  0
102103  1  0
101104  1  0
 98105  1  0
105106  2  0
106107  1  0
107108  2  0
108109  1  0
109110  2  0
110111  1  0
111112  1  0
110113  1  0
113114  2  0
114115  1  0
115116  1  0
108117  1  0
117118  1  0
106119  1  0
119120  2  0
120121  1  0
120122  1  0
122123  2  3
123124  1  0
124125  2  0
124126  1  0
126127  2  0
127128  1  0
128129  1  0
128130  2  0
130131  1  0
131132  2  0
132133  1  0
133134  2  3
134135  1  0
135136  3  0
134137  1  0
137138  3  0
 12  2  1  0
 34 18  1  0
 91 35  2  0
104 95  2  0
121105  1  0
133123  1  0
 11  5  1  0
 27 20  1  0
 90 37  2  0
100 96  2  0
114107  1  0
132126  1  0
 88 38  2  0
 87 40  2  0
 67 41  1  0
 77 69  1  0
 86 78  1  0
 65 43  2  0
 53 45  1  0
 62 54  1  0
104 63  1  0
  1139  1  0
  6140  1  0
  8141  1  0
  8142  1  0
  8143  1  0
  9144  1  0
 10145  1  0
 22146  1  0
 24147  1  0
 24148  1  0
 25149  1  0
 25150  1  0
 25151  1  0
 26152  1  0
 28153  1  0
 28154  1  0
 29155  1  0
 29156  1  0
 29157  1  0
 30158  1  0
 30159  1  0
 31160  1  0
 31161  1  0
 31162  1  0
 32163  1  0
 42164  1  0
 46165  1  0
 47166  1  0
 48167  1  0
 51168  1  0
 51169  1  0
 52170  1  0
 52171  1  0
 52172  1  0
 53173  1  0
 55174  1  0
 56175  1  0
 57176  1  0
 60177  1  0
 60178  1  0
 61179  1  0
 61180  1  0
 61181  1  0
 62182  1  0
 66183  1  0
 70184  1  0
 71185  1  0
 72186  1  0
 75187  1  0
 75188  1  0
 76189  1  0
 76190  1  0
 76191  1  0
 77192  1  0
 79193  1  0
 80194  1  0
 81195  1  0
 84196  1  0
 84197  1  0
 85198  1  0
 85199  1  0
 85200  1  0
 86201  1  0
 91202  1  0
 92203  1  0
 92204  1  0
 93205  1  0
 93206  1  0
 93207  1  0
 99208  1  0
102209  1  0
102210  1  0
103211  1  0
103212  1  0
103213  1  0
109214  1  0
111215  1  0
111216  1  0
112217  1  0
112218  1  0
112219  1  0
113220  1  0
115221  1  0
115222  1  0
116223  1  0
116224  1  0
116225  1  0
117226  1  0
117227  1  0
118228  1  0
118229  1  0
118230  1  0
119231  1  0
122232  1  0
127233  1  0
129234  1  0
129235  1  0
129236  1  0
130237  1  0
131238  1  0
M  END

