
     RDKit          3D

175191  0  0  0  0  0  0  0  0999 V2000
    5.3057    6.1856    2.5806 C   0  0  0  0  0  0  0  0  0  0  0  0
    4.0904    6.3709    3.1329 C   0  0  0  0  0  0  0  0  0  0  0  0
    3.2716    7.5364    2.7812 C   0  0  0  0  0  0  0  0  0  0  0  0
    3.7041    8.6679    2.4332 O   0  0  0  0  0  0  0  0  0  0  0  0
    1.8771    7.1271    2.7762 C   0  0  0  0  0  0  0  0  0  0  0  0
    0.7513    7.8324    2.3425 C   0  0  0  0  0  0  0  0  0  0  0  0
   -0.4870    7.1635    2.3010 C   0  0  0  0  0  0  0  0  0  0  0  0
   -1.7290    7.8698    1.8390 C   0  0  0  0  0  0  0  0  0  0  0  0
   -0.5583    5.8030    2.6591 C   0  0  0  0  0  0  0  0  0  0  0  0
    0.5903    5.1156    3.0925 C   0  0  0  0  0  0  0  0  0  0  0  0
    1.7970    5.8125    3.1851 C   0  0  0  0  0  0  0  0  0  0  0  0
    3.1302    5.3523    3.6334 C   0  0  0  0  0  0  0  0  0  0  0  0
    3.3205    4.6100    4.7506 C   0  0  0  0  0  0  0  0  0  0  0  0
    4.5258    4.7395    5.5308 C   0  0  0  0  0  0  0  0  0  0  0  0
    5.4893    4.8418    6.1719 N   0  0  0  0  0  0  0  0  0  0  0  0
    2.2527    3.8494    5.3536 C   0  0  0  0  0  0  0  0  0  0  0  0
    1.3964    3.2451    5.8446 N   0  0  0  0  0  0  0  0  0  0  0  0
    5.8956    4.8775    2.1928 C   0  0  0  0  0  0  0  0  0  0  0  0
    6.6010    4.6479    1.0086 C   0  0  0  0  0  0  0  0  0  0  0  0
    6.7151    5.6539   -0.0712 C   0  0  0  0  0  0  0  0  0  0  0  0
    5.7642    5.6724   -1.1272 C   0  0  0  0  0  0  0  0  0  0  0  0
    5.8697    6.6452   -2.1322 C   0  0  0  0  0  0  0  0  0  0  0  0
    6.8863    7.6061   -2.1023 C   0  0  0  0  0  0  0  0  0  0  0  0
    6.9425    8.6728   -3.1642 C   0  0  0  0  0  0  0  0  0  0  0  0
    5.9095    9.7635   -2.8924 C   0  0  0  0  0  0  0  0  0  0  0  0
    7.8116    7.5996   -1.0530 C   0  0  0  0  0  0  0  0  0  0  0  0
    7.7407    6.6323   -0.0349 C   0  0  0  0  0  0  0  0  0  0  0  0
    8.8091    6.6230    1.0345 C   0  0  0  0  0  0  0  0  0  0  0  0
    9.9463    5.6832    0.6468 C   0  0  0  0  0  0  0  0  0  0  0  0
    4.6358    4.6626   -1.2308 C   0  0  0  0  0  0  0  0  0  0  0  0
    4.9704    3.5644   -2.2386 C   0  0  0  0  0  0  0  0  0  0  0  0
    6.9243    3.2974    0.7908 C   0  0  0  0  0  0  0  0  0  0  0  0
    6.4572    2.4394    1.7818 C   0  0  0  0  0  0  0  0  0  0  0  0
    5.6656    3.3815    2.9239 S   0  0  0  0  0  0  0  0  0  0  0  0
    6.1920    0.9993    1.5985 C   0  0  0  0  0  0  0  0  0  0  0  0
    6.7898    0.1444    0.6416 C   0  0  0  0  0  0  0  0  0  0  0  0
    8.0904    0.3607   -0.0089 C   0  0  0  0  0  0  0  0  0  0  0  0
    8.1728    0.5610   -1.3920 C   0  0  0  0  0  0  0  0  0  0  0  0
    9.4193    0.6489   -2.0132 C   0  0  0  0  0  0  0  0  0  0  0  0
   10.5924    0.5263   -1.2595 C   0  0  0  0  0  0  0  0  0  0  0  0
   10.5232    0.3350    0.1280 C   0  0  0  0  0  0  0  0  0  0  0  0
   11.7759    0.0893    0.9281 C   0  0  0  0  0  0  0  0  0  0  0  0
   12.0801   -1.4035    1.0087 C   0  0  0  0  0  0  0  0  0  0  0  0
    9.2668    0.2491    0.7499 C   0  0  0  0  0  0  0  0  0  0  0  0
    6.0114   -0.9952    0.4315 C   0  0  0  0  0  0  0  0  0  0  0  0
    6.0045   -2.2099   -0.7837 S   0  0  0  0  0  0  0  0  0  0  0  0
    4.4960   -2.7736   -0.2397 C   0  0  0  0  0  0  0  0  0  0  0  0
    3.4972   -3.6466   -0.5896 C   0  0  0  0  0  0  0  0  0  0  0  0
    3.3774   -4.6111   -1.5982 C   0  0  0  0  0  0  0  0  0  0  0  0
    2.1484   -5.3440   -1.7053 C   0  0  0  0  0  0  0  0  0  0  0  0
    2.0546   -6.2385   -2.7156 N   0  0  0  0  0  0  0  0  0  0  0  0
    3.5591   -6.0498   -3.3896 S   0  0  0  0  0  0  0  0  0  0  0  0
    4.3457   -4.8926   -2.5024 N   0  0  0  0  0  0  0  0  0  0  0  0
    1.0989   -5.0366   -0.8244 C   0  0  0  0  0  0  0  0  0  0  0  0
   -0.2310   -5.3652   -0.8500 C   0  0  0  0  0  0  0  0  0  0  0  0
   -1.3027   -6.1901   -1.8840 S   0  0  0  0  0  0  0  0  0  0  0  0
   -2.6426   -5.4006   -1.1705 C   0  0  0  0  0  0  0  0  0  0  0  0
   -4.0176   -5.4086   -1.4132 C   0  0  0  0  0  0  0  0  0  0  0  0
   -4.6852   -6.3309   -2.3451 C   0  0  0  0  0  0  0  0  0  0  0  0
   -4.8805   -7.6697   -1.9809 C   0  0  0  0  0  0  0  0  0  0  0  0
   -5.5556   -8.5368   -2.8452 C   0  0  0  0  0  0  0  0  0  0  0  0
   -6.0509   -8.0689   -4.0672 C   0  0  0  0  0  0  0  0  0  0  0  0
   -5.8624   -6.7276   -4.4379 C   0  0  0  0  0  0  0  0  0  0  0  0
   -6.4042   -6.2090   -5.7426 C   0  0  0  0  0  0  0  0  0  0  0  0
   -5.3110   -6.1531   -6.8063 C   0  0  0  0  0  0  0  0  0  0  0  0
   -5.1460   -5.8736   -3.5876 C   0  0  0  0  0  0  0  0  0  0  0  0
   -4.6785   -4.4833   -0.5799 C   0  0  0  0  0  0  0  0  0  0  0  0
   -3.5534   -3.6803    0.4136 S   0  0  0  0  0  0  0  0  0  0  0  0
   -2.2416   -4.5066   -0.2163 C   0  0  0  0  0  0  0  0  0  0  0  0
   -0.8703   -4.4905   -0.0295 C   0  0  0  0  0  0  0  0  0  0  0  0
   -0.0388   -3.5749    0.5249 N   0  0  0  0  0  0  0  0  0  0  0  0
    1.1989   -3.9947    0.1127 C   0  0  0  0  0  0  0  0  0  0  0  0
    2.4456   -3.3667    0.2983 C   0  0  0  0  0  0  0  0  0  0  0  0
    2.8089   -2.4381    1.2344 N   0  0  0  0  0  0  0  0  0  0  0  0
    4.0413   -2.0686    0.8268 C   0  0  0  0  0  0  0  0  0  0  0  0
    4.8932   -1.0669    1.2143 C   0  0  0  0  0  0  0  0  0  0  0  0
    4.7501    0.2856    2.1742 S   0  0  0  0  0  0  0  0  0  0  0  0
    2.3418   -2.3540    2.6259 C   0  0  0  0  0  0  0  0  0  0  0  0
    3.3072   -3.0726    3.5698 C   0  0  0  0  0  0  0  0  0  0  0  0
   -0.4398   -2.1713    0.7449 C   0  0  0  0  0  0  0  0  0  0  0  0
   -0.7156   -1.4625   -0.5850 C   0  0  0  0  0  0  0  0  0  0  0  0
   -6.1280   -4.2475   -0.4951 C   0  0  0  0  0  0  0  0  0  0  0  0
   -6.8408   -3.6278   -1.5225 C   0  0  0  0  0  0  0  0  0  0  0  0
   -6.3803   -3.1286   -2.6795 N   0  0  0  0  0  0  0  0  0  0  0  0
   -7.4317   -2.5387   -3.2418 N   0  0  0  0  0  0  0  0  0  0  0  0
   -7.3529   -1.7730   -4.4800 C   0  0  0  0  0  0  0  0  0  0  0  0
   -7.0326   -0.3175   -4.1724 C   0  0  0  0  0  0  0  0  0  0  0  0
   -8.5235   -2.5863   -2.4833 N   0  0  0  0  0  0  0  0  0  0  0  0
   -8.1544   -3.2839   -1.3972 C   0  0  0  0  0  0  0  0  0  0  0  0
   -8.8575   -3.4852   -0.2107 C   0  0  0  0  0  0  0  0  0  0  0  0
   -8.1806   -4.1328    0.8458 C   0  0  0  0  0  0  0  0  0  0  0  0
   -6.8254   -4.5060    0.7042 C   0  0  0  0  0  0  0  0  0  0  0  0
  -10.2382   -2.9993   -0.0494 C   0  0  0  0  0  0  0  0  0  0  0  0
  -10.6097   -2.0492    0.8430 C   0  0  0  0  0  0  0  0  0  0  0  0
  -12.0488   -1.8832    1.1538 C   0  0  0  0  0  0  0  0  0  0  0  0
  -12.9312   -2.3262    0.3636 O   0  0  0  0  0  0  0  0  0  0  0  0
  -12.4356   -1.2513    2.3876 N   0  0  0  0  0  0  0  0  0  0  0  0
  -13.8539   -1.0067    2.6857 C   0  0  0  0  0  0  0  0  0  0  0  0
  -14.3306    0.2574    1.9751 C   0  0  0  0  0  0  0  0  0  0  0  0
  -11.4050   -0.7754    3.2724 C   0  0  0  0  0  0  0  0  0  0  0  0
  -11.6995   -0.3846    4.4357 O   0  0  0  0  0  0  0  0  0  0  0  0
  -10.0045   -0.6821    2.8053 C   0  0  0  0  0  0  0  0  0  0  0  0
   -9.6382   -1.1910    1.6064 C   0  0  0  0  0  0  0  0  0  0  0  0
   -8.3089   -0.8066    0.9935 C   0  0  0  0  0  0  0  0  0  0  0  0
   -9.0561    0.0287    3.6391 C   0  0  0  0  0  0  0  0  0  0  0  0
   -8.2984    0.5943    4.3057 N   0  0  0  0  0  0  0  0  0  0  0  0
    5.7784    7.0482    2.1205 H   0  0  0  0  0  0  0  0  0  0  0  0
    0.8475    8.8627    2.0198 H   0  0  0  0  0  0  0  0  0  0  0  0
   -2.4965    7.8514    2.6421 H   0  0  0  0  0  0  0  0  0  0  0  0
   -1.5241    8.9325    1.5772 H   0  0  0  0  0  0  0  0  0  0  0  0
   -2.1465    7.3627    0.9391 H   0  0  0  0  0  0  0  0  0  0  0  0
   -1.4950    5.2669    2.5914 H   0  0  0  0  0  0  0  0  0  0  0  0
    0.5281    4.0680    3.3315 H   0  0  0  0  0  0  0  0  0  0  0  0
    5.1497    6.6602   -2.9413 H   0  0  0  0  0  0  0  0  0  0  0  0
    6.7470    8.2170   -4.1587 H   0  0  0  0  0  0  0  0  0  0  0  0
    7.9566    9.1321   -3.2046 H   0  0  0  0  0  0  0  0  0  0  0  0
    4.8841    9.3349   -2.9081 H   0  0  0  0  0  0  0  0  0  0  0  0
    6.0871   10.2348   -1.9007 H   0  0  0  0  0  0  0  0  0  0  0  0
    5.9749   10.5432   -3.6814 H   0  0  0  0  0  0  0  0  0  0  0  0
    8.5994    8.3475   -1.0275 H   0  0  0  0  0  0  0  0  0  0  0  0
    8.3857    6.3106    2.0117 H   0  0  0  0  0  0  0  0  0  0  0  0
    9.2215    7.6449    1.1789 H   0  0  0  0  0  0  0  0  0  0  0  0
   10.3968    6.0039   -0.3141 H   0  0  0  0  0  0  0  0  0  0  0  0
   10.7346    5.7067    1.4299 H   0  0  0  0  0  0  0  0  0  0  0  0
    9.5710    4.6458    0.5552 H   0  0  0  0  0  0  0  0  0  0  0  0
    3.7058    5.1775   -1.5564 H   0  0  0  0  0  0  0  0  0  0  0  0
    4.3971    4.2000   -0.2502 H   0  0  0  0  0  0  0  0  0  0  0  0
    5.9133    3.0499   -1.9562 H   0  0  0  0  0  0  0  0  0  0  0  0
    5.0874    3.9908   -3.2572 H   0  0  0  0  0  0  0  0  0  0  0  0
    4.1523    2.8095   -2.2604 H   0  0  0  0  0  0  0  0  0  0  0  0
    7.3659    2.9614   -0.1352 H   0  0  0  0  0  0  0  0  0  0  0  0
    7.2719    0.6379   -1.9915 H   0  0  0  0  0  0  0  0  0  0  0  0
    9.4793    0.8031   -3.0828 H   0  0  0  0  0  0  0  0  0  0  0  0
   11.5503    0.5779   -1.7585 H   0  0  0  0  0  0  0  0  0  0  0  0
   11.6562    0.4945    1.9569 H   0  0  0  0  0  0  0  0  0  0  0  0
   12.6356    0.6159    0.4607 H   0  0  0  0  0  0  0  0  0  0  0  0
   12.9910   -1.5678    1.6249 H   0  0  0  0  0  0  0  0  0  0  0  0
   12.2588   -1.8142   -0.0080 H   0  0  0  0  0  0  0  0  0  0  0  0
   11.2332   -1.9513    1.4759 H   0  0  0  0  0  0  0  0  0  0  0  0
    9.2003    0.0507    1.8170 H   0  0  0  0  0  0  0  0  0  0  0  0
   -4.5204   -8.0365   -1.0282 H   0  0  0  0  0  0  0  0  0  0  0  0
   -5.7085   -9.5698   -2.5603 H   0  0  0  0  0  0  0  0  0  0  0  0
   -6.5822   -8.7490   -4.7197 H   0  0  0  0  0  0  0  0  0  0  0  0
   -6.8291   -5.1914   -5.5974 H   0  0  0  0  0  0  0  0  0  0  0  0
   -7.2314   -6.8592   -6.1038 H   0  0  0  0  0  0  0  0  0  0  0  0
   -5.7477   -5.8033   -7.7645 H   0  0  0  0  0  0  0  0  0  0  0  0
   -4.5145   -5.4410   -6.5019 H   0  0  0  0  0  0  0  0  0  0  0  0
   -4.8694   -7.1589   -6.9604 H   0  0  0  0  0  0  0  0  0  0  0  0
   -4.9515   -4.8510   -3.8902 H   0  0  0  0  0  0  0  0  0  0  0  0
    1.3544   -2.8490    2.7440 H   0  0  0  0  0  0  0  0  0  0  0  0
    2.2455   -1.2871    2.9252 H   0  0  0  0  0  0  0  0  0  0  0  0
    2.8773   -3.1093    4.5907 H   0  0  0  0  0  0  0  0  0  0  0  0
    4.2812   -2.5450    3.6203 H   0  0  0  0  0  0  0  0  0  0  0  0
    3.4727   -4.1156    3.2235 H   0  0  0  0  0  0  0  0  0  0  0  0
    0.3470   -1.5918    1.2538 H   0  0  0  0  0  0  0  0  0  0  0  0
   -1.3445   -2.1320    1.3932 H   0  0  0  0  0  0  0  0  0  0  0  0
    0.1008   -1.6767   -1.3013 H   0  0  0  0  0  0  0  0  0  0  0  0
   -0.7746   -0.3725   -0.4342 H   0  0  0  0  0  0  0  0  0  0  0  0
   -1.6670   -1.8243   -1.0248 H   0  0  0  0  0  0  0  0  0  0  0  0
   -8.3202   -1.8366   -5.0247 H   0  0  0  0  0  0  0  0  0  0  0  0
   -6.5582   -2.2003   -5.1351 H   0  0  0  0  0  0  0  0  0  0  0  0
   -7.8252    0.1210   -3.5314 H   0  0  0  0  0  0  0  0  0  0  0  0
   -6.0571   -0.2412   -3.6460 H   0  0  0  0  0  0  0  0  0  0  0  0
   -6.9755    0.2632   -5.1170 H   0  0  0  0  0  0  0  0  0  0  0  0
   -8.6879   -4.3116    1.7873 H   0  0  0  0  0  0  0  0  0  0  0  0
   -6.3163   -4.9620    1.5435 H   0  0  0  0  0  0  0  0  0  0  0  0
  -10.9936   -3.5329   -0.6196 H   0  0  0  0  0  0  0  0  0  0  0  0
  -14.4739   -1.8703    2.3618 H   0  0  0  0  0  0  0  0  0  0  0  0
  -14.0126   -0.8906    3.7784 H   0  0  0  0  0  0  0  0  0  0  0  0
  -15.3604    0.5023    2.3012 H   0  0  0  0  0  0  0  0  0  0  0  0
  -13.6660    1.1114    2.2255 H   0  0  0  0  0  0  0  0  0  0  0  0
  -14.3262    0.1048    0.8757 H   0  0  0  0  0  0  0  0  0  0  0  0
   -7.5032   -1.4681    1.3746 H   0  0  0  0  0  0  0  0  0  0  0  0
   -8.0458    0.2466    1.2322 H   0  0  0  0  0  0  0  0  0  0  0  0
   -8.3571   -0.8521   -0.1135 H   0  0  0  0  0  0  0  0  0  0  0  0
  1  2  2  3
  2  3  1  0
  3  4  2  0
  3  5  1  0
  5  6  2  0
  6  7  1  0
  7  8  1  0
  7  9  2  0
  9 10  1  0
 10 11  2  0
 11 12  1  0
 12 13  2  3
 13 14  1  0
 14 15  3  0
 13 16  1  0
 16 17  3  0
  1 18  1  0
 18 19  2  0
 19 20  1  0
 20 21  2  0
 21 22  1  0
 22 23  2  0
 23 24  1  0
 24 25  1  0
 23 26  1  0
 26 27  2  0
 27 28  1  0
 28 29  1  0
 21 30  1  0
 30 31  1  0
 19 32  1  0
 32 33  2  0
 33 34  1  0
 33 35  1  0
 35 36  2  0
 36 37  1  0
 37 38  2  0
 38 39  1  0
 39 40  2  0
 40 41  1  0
 41 42  1  0
 42 43  1  0
 41 44  2  0
 36 45  1  0
 45 46  1  0
 46 47  1  0
 47 48  1  0
 48 49  1  0
 49 50  1  0
 50 51  2  0
 51 52  1  0
 52 53  1  0
 50 54  1  0
 54 55  1  0
 55 56  1  0
 56 57  1  0
 57 58  1  0
 58 59  1  0
 59 60  2  0
 60 61  1  0
 61 62  2  0
 62 63  1  0
 63 64  1  0
 64 65  1  0
 63 66  2  0
 58 67  2  0
 67 68  1  0
 68 69  1  0
 69 70  1  0
 70 71  1  0
 71 72  1  0
 72 73  1  0
 73 74  1  0
 74 75  1  0
 75 76  1  0
 76 77  1  0
 74 78  1  0
 78 79  1  0
 71 80  1  0
 80 81  1  0
 67 82  1  0
 82 83  1  0
 83 84  2  0
 84 85  1  0
 85 86  1  0
 86 87  1  0
 85 88  1  0
 88 89  2  0
 89 90  1  0
 90 91  2  0
 91 92  1  0
 90 93  1  0
 93 94  2  3
 94 95  1  0
 95 96  2  0
 95 97  1  0
 97 98  1  0
 98 99  1  0
 97100  1  0
100101  2  0
100102  1  0
102103  2  0
103104  1  0
102105  1  0
105106  3  0
 12  2  1  0
 34 18  1  0
 77 35  1  0
 92 82  2  0
103 94  1  0
 11  5  1  0
 27 20  1  0
 44 37  1  0
 76 45  2  0
 89 83  1  0
 75 47  2  0
 73 48  2  0
 53 49  2  0
 72 54  2  0
 70 55  2  0
 69 57  2  0
 66 59  1  0
  1107  1  0
  6108  1  0
  8109  1  0
  8110  1  0
  8111  1  0
  9112  1  0
 10113  1  0
 22114  1  0
 24115  1  0
 24116  1  0
 25117  1  0
 25118  1  0
 25119  1  0
 26120  1  0
 28121  1  0
 28122  1  0
 29123  1  0
 29124  1  0
 29125  1  0
 30126  1  0
 30127  1  0
 31128  1  0
 31129  1  0
 31130  1  0
 32131  1  0
 38132  1  0
 39133  1  0
 40134  1  0
 42135  1  0
 42136  1  0
 43137  1  0
 43138  1  0
 43139  1  0
 44140  1  0
 60141  1  0
 61142  1  0
 62143  1  0
 64144  1  0
 64145  1  0
 65146  1  0
 65147  1  0
 65148  1  0
 66149  1  0
 78150  1  0
 78151  1  0
 79152  1  0
 79153  1  0
 79154  1  0
 80155  1  0
 80156  1  0
 81157  1  0
 81158  1  0
 81159  1  0
 86160  1  0
 86161  1  0
 87162  1  0
 87163  1  0
 87164  1  0
 91165  1  0
 92166  1  0
 93167  1  0
 98168  1  0
 98169  1  0
 99170  1  0
 99171  1  0
 99172  1  0
104173  1  0
104174  1  0
104175  1  0
M  END

