
     RDKit          3D

176191  0  0  0  0  0  0  0  0999 V2000
    6.2619   -6.5294    0.5615 C   0  0  0  0  0  0  0  0  0  0  0  0
    6.8290   -5.3096    0.7980 C   0  0  0  0  0  0  0  0  0  0  0  0
    8.0535   -5.1259    1.5913 C   0  0  0  0  0  0  0  0  0  0  0  0
    8.8316   -6.0469    1.9562 O   0  0  0  0  0  0  0  0  0  0  0  0
    8.2033   -3.7151    1.8905 C   0  0  0  0  0  0  0  0  0  0  0  0
    9.3715   -3.0513    2.2686 C   0  0  0  0  0  0  0  0  0  0  0  0
    9.3888   -1.6513    2.1960 C   0  0  0  0  0  0  0  0  0  0  0  0
   10.6748   -0.8972    2.2603 C   0  0  0  0  0  0  0  0  0  0  0  0
    8.2109   -0.9299    1.9242 C   0  0  0  0  0  0  0  0  0  0  0  0
    7.0647   -1.6125    1.4977 C   0  0  0  0  0  0  0  0  0  0  0  0
    7.0956   -3.0153    1.4176 C   0  0  0  0  0  0  0  0  0  0  0  0
    6.2711   -3.9321    0.5840 C   0  0  0  0  0  0  0  0  0  0  0  0
    5.6172   -3.5047   -0.5206 C   0  0  0  0  0  0  0  0  0  0  0  0
    4.8819   -2.2413   -0.5772 C   0  0  0  0  0  0  0  0  0  0  0  0
    4.2734   -1.2651   -0.6385 N   0  0  0  0  0  0  0  0  0  0  0  0
    5.5933   -4.2608   -1.7251 C   0  0  0  0  0  0  0  0  0  0  0  0
    5.5894   -4.8675   -2.7097 N   0  0  0  0  0  0  0  0  0  0  0  0
    4.8740   -6.7328    0.0740 C   0  0  0  0  0  0  0  0  0  0  0  0
    4.4541   -7.6517   -0.9141 C   0  0  0  0  0  0  0  0  0  0  0  0
    5.1103   -8.9567   -1.2114 C   0  0  0  0  0  0  0  0  0  0  0  0
    5.6707   -9.1946   -2.4907 C   0  0  0  0  0  0  0  0  0  0  0  0
    6.0419  -10.5008   -2.8598 C   0  0  0  0  0  0  0  0  0  0  0  0
    5.8122  -11.5842   -2.0040 C   0  0  0  0  0  0  0  0  0  0  0  0
    6.0477  -12.9802   -2.4802 C   0  0  0  0  0  0  0  0  0  0  0  0
    4.8324  -13.4808   -3.2580 C   0  0  0  0  0  0  0  0  0  0  0  0
    5.2737  -11.3513   -0.7363 C   0  0  0  0  0  0  0  0  0  0  0  0
    4.9456  -10.0510   -0.3066 C   0  0  0  0  0  0  0  0  0  0  0  0
    4.3520   -9.8742    1.0688 C   0  0  0  0  0  0  0  0  0  0  0  0
    2.8375   -9.6247    1.0388 C   0  0  0  0  0  0  0  0  0  0  0  0
    5.9715   -8.0901   -3.4654 C   0  0  0  0  0  0  0  0  0  0  0  0
    7.3550   -7.5093   -3.1772 C   0  0  0  0  0  0  0  0  0  0  0  0
    3.1836   -7.3125   -1.4589 C   0  0  0  0  0  0  0  0  0  0  0  0
    2.6253   -6.1751   -0.8597 C   0  0  0  0  0  0  0  0  0  0  0  0
    3.5991   -5.6897    0.4079 S   0  0  0  0  0  0  0  0  0  0  0  0
    1.4488   -5.4208   -1.3047 C   0  0  0  0  0  0  0  0  0  0  0  0
    0.2878   -5.3308   -0.5101 C   0  0  0  0  0  0  0  0  0  0  0  0
   -0.0007   -6.2344    0.6583 C   0  0  0  0  0  0  0  0  0  0  0  0
   -0.4995   -7.6060    0.2001 C   0  0  0  0  0  0  0  0  0  0  0  0
   -0.4607   -4.1939   -0.8159 C   0  0  0  0  0  0  0  0  0  0  0  0
   -1.7239   -3.4158    0.0169 S   0  0  0  0  0  0  0  0  0  0  0  0
   -1.5379   -2.0218   -0.9558 C   0  0  0  0  0  0  0  0  0  0  0  0
   -1.7927   -0.6835   -0.7746 C   0  0  0  0  0  0  0  0  0  0  0  0
   -2.6044   -0.0726    0.1871 C   0  0  0  0  0  0  0  0  0  0  0  0
   -2.5557    1.3348    0.2906 C   0  0  0  0  0  0  0  0  0  0  0  0
   -3.5229    1.9596    1.0175 N   0  0  0  0  0  0  0  0  0  0  0  0
   -4.4632    1.2500    1.6987 C   0  0  0  0  0  0  0  0  0  0  0  0
   -5.7181    1.9212    2.0674 C   0  0  0  0  0  0  0  0  0  0  0  0
   -6.1256    2.0719    3.3942 C   0  0  0  0  0  0  0  0  0  0  0  0
   -7.3983    2.5596    3.6848 C   0  0  0  0  0  0  0  0  0  0  0  0
   -8.2873    2.8990    2.6322 C   0  0  0  0  0  0  0  0  0  0  0  0
   -9.6684    3.4044    2.9467 C   0  0  0  0  0  0  0  0  0  0  0  0
   -9.6086    4.3431    3.9617 F   0  0  0  0  0  0  0  0  0  0  0  0
  -10.2473    4.0183    1.8391 F   0  0  0  0  0  0  0  0  0  0  0  0
  -10.4665    2.3489    3.3506 F   0  0  0  0  0  0  0  0  0  0  0  0
   -7.8725    2.7220    1.3046 C   0  0  0  0  0  0  0  0  0  0  0  0
   -6.6061    2.2215    1.0171 C   0  0  0  0  0  0  0  0  0  0  0  0
   -4.3936   -0.1604    1.7031 C   0  0  0  0  0  0  0  0  0  0  0  0
   -5.2953   -0.9888    2.5071 C   0  0  0  0  0  0  0  0  0  0  0  0
   -6.6593   -1.1379    2.1702 C   0  0  0  0  0  0  0  0  0  0  0  0
   -7.5262   -1.8129    3.0410 C   0  0  0  0  0  0  0  0  0  0  0  0
   -7.0396   -2.3837    4.2363 C   0  0  0  0  0  0  0  0  0  0  0  0
   -7.9682   -3.0116    5.2264 C   0  0  0  0  0  0  0  0  0  0  0  0
   -9.0513   -3.5888    4.5923 F   0  0  0  0  0  0  0  0  0  0  0  0
   -7.3244   -3.9923    5.9625 F   0  0  0  0  0  0  0  0  0  0  0  0
   -8.4204   -2.0384    6.0912 F   0  0  0  0  0  0  0  0  0  0  0  0
   -5.6637   -2.2466    4.5422 C   0  0  0  0  0  0  0  0  0  0  0  0
   -4.8005   -1.5686    3.6903 C   0  0  0  0  0  0  0  0  0  0  0  0
   -3.4772   -0.7852    0.9227 N   0  0  0  0  0  0  0  0  0  0  0  0
   -1.6419    2.0411   -0.5106 C   0  0  0  0  0  0  0  0  0  0  0  0
   -1.4331    3.3953   -0.6575 C   0  0  0  0  0  0  0  0  0  0  0  0
   -1.8457    4.8716    0.0982 S   0  0  0  0  0  0  0  0  0  0  0  0
   -1.1574    5.7799   -1.1885 C   0  0  0  0  0  0  0  0  0  0  0  0
   -0.9690    7.1508   -1.4815 C   0  0  0  0  0  0  0  0  0  0  0  0
   -0.8335    8.2653   -0.4651 C   0  0  0  0  0  0  0  0  0  0  0  0
   -1.2202    7.9133    0.9631 C   0  0  0  0  0  0  0  0  0  0  0  0
   -0.5651    7.3098   -2.8237 C   0  0  0  0  0  0  0  0  0  0  0  0
   -0.2124    5.7883   -3.4934 S   0  0  0  0  0  0  0  0  0  0  0  0
   -0.7103    4.9199   -2.1684 C   0  0  0  0  0  0  0  0  0  0  0  0
   -0.7690    3.5778   -1.8211 C   0  0  0  0  0  0  0  0  0  0  0  0
   -0.4767    2.4039   -2.4339 N   0  0  0  0  0  0  0  0  0  0  0  0
   -0.9298    1.4299   -1.5630 C   0  0  0  0  0  0  0  0  0  0  0  0
   -0.9360    0.0048   -1.6316 C   0  0  0  0  0  0  0  0  0  0  0  0
   -0.0884   -0.8889   -2.2612 N   0  0  0  0  0  0  0  0  0  0  0  0
   -0.5142   -2.1154   -1.8457 C   0  0  0  0  0  0  0  0  0  0  0  0
    0.1040   -3.3716   -1.7698 C   0  0  0  0  0  0  0  0  0  0  0  0
    1.5574   -4.0228   -2.2800 S   0  0  0  0  0  0  0  0  0  0  0  0
    1.1989   -0.6524   -2.9085 C   0  0  0  0  0  0  0  0  0  0  0  0
    1.0946   -0.9641   -4.4023 C   0  0  0  0  0  0  0  0  0  0  0  0
   -0.1962    2.3361   -3.8796 C   0  0  0  0  0  0  0  0  0  0  0  0
   -1.4859    2.1300   -4.6665 C   0  0  0  0  0  0  0  0  0  0  0  0
   -0.0920    8.5375   -3.5391 C   0  0  0  0  0  0  0  0  0  0  0  0
   -0.4705    9.8351   -3.6605 C   0  0  0  0  0  0  0  0  0  0  0  0
   -1.5699   10.6483   -2.9614 C   0  0  0  0  0  0  0  0  0  0  0  0
   -2.5567   11.3733   -2.3324 C   0  0  0  0  0  0  0  0  0  0  0  0
   -3.5099   11.0455   -1.2371 C   0  0  0  0  0  0  0  0  0  0  0  0
   -3.9585    9.8786   -0.8120 C   0  0  0  0  0  0  0  0  0  0  0  0
   -3.9689    8.5800   -1.5061 C   0  0  0  0  0  0  0  0  0  0  0  0
   -3.5099    8.3487   -2.6645 O   0  0  0  0  0  0  0  0  0  0  0  0
   -4.7005    7.6196   -0.6647 C   0  0  0  0  0  0  0  0  0  0  0  0
   -4.7600    6.2333   -0.7748 C   0  0  0  0  0  0  0  0  0  0  0  0
   -5.2589    5.4905    0.3185 C   0  0  0  0  0  0  0  0  0  0  0  0
   -5.6966    6.1425    1.4948 C   0  0  0  0  0  0  0  0  0  0  0  0
   -6.1048    5.3712    2.5872 O   0  0  0  0  0  0  0  0  0  0  0  0
   -6.4615    5.8878    3.8702 C   0  0  0  0  0  0  0  0  0  0  0  0
   -5.6850    7.5448    1.5586 C   0  0  0  0  0  0  0  0  0  0  0  0
   -5.1838    8.2793    0.4617 C   0  0  0  0  0  0  0  0  0  0  0  0
   -4.8083    9.7051    0.4034 C   0  0  0  0  0  0  0  0  0  0  0  0
   -5.1012   10.6089    1.3737 C   0  0  0  0  0  0  0  0  0  0  0  0
   -4.2530   11.7265    1.7194 C   0  0  0  0  0  0  0  0  0  0  0  0
   -3.5711   12.6358    1.9702 N   0  0  0  0  0  0  0  0  0  0  0  0
   -6.3837   10.5801    2.0358 C   0  0  0  0  0  0  0  0  0  0  0  0
   -7.4593   10.5821    2.4704 N   0  0  0  0  0  0  0  0  0  0  0  0
    6.8545   -7.4294    0.7730 H   0  0  0  0  0  0  0  0  0  0  0  0
   10.2659   -3.6190    2.4879 H   0  0  0  0  0  0  0  0  0  0  0  0
   11.5292   -1.5914    2.1389 H   0  0  0  0  0  0  0  0  0  0  0  0
   10.7330   -0.3653    3.2390 H   0  0  0  0  0  0  0  0  0  0  0  0
   10.7221   -0.1434    1.4332 H   0  0  0  0  0  0  0  0  0  0  0  0
    8.1907    0.1420    1.8641 H   0  0  0  0  0  0  0  0  0  0  0  0
    6.2353   -1.0092    1.1712 H   0  0  0  0  0  0  0  0  0  0  0  0
    6.4778  -10.6745   -3.8395 H   0  0  0  0  0  0  0  0  0  0  0  0
    6.9473  -13.0239   -3.1316 H   0  0  0  0  0  0  0  0  0  0  0  0
    6.2432  -13.6620   -1.6191 H   0  0  0  0  0  0  0  0  0  0  0  0
    4.6384  -12.8251   -4.1332 H   0  0  0  0  0  0  0  0  0  0  0  0
    3.9361  -13.5086   -2.5993 H   0  0  0  0  0  0  0  0  0  0  0  0
    5.0269  -14.5107   -3.6337 H   0  0  0  0  0  0  0  0  0  0  0  0
    5.0732  -12.1998   -0.0752 H   0  0  0  0  0  0  0  0  0  0  0  0
    4.5517  -10.7731    1.6891 H   0  0  0  0  0  0  0  0  0  0  0  0
    4.8731   -9.0426    1.5940 H   0  0  0  0  0  0  0  0  0  0  0  0
    2.6325   -8.5351    1.0690 H   0  0  0  0  0  0  0  0  0  0  0  0
    2.3745  -10.0597    0.1297 H   0  0  0  0  0  0  0  0  0  0  0  0
    2.3711  -10.0787    1.9374 H   0  0  0  0  0  0  0  0  0  0  0  0
    5.9495   -8.4727   -4.5148 H   0  0  0  0  0  0  0  0  0  0  0  0
    5.1992   -7.2902   -3.4212 H   0  0  0  0  0  0  0  0  0  0  0  0
    7.5565   -6.6677   -3.8684 H   0  0  0  0  0  0  0  0  0  0  0  0
    8.1320   -8.2955   -3.3137 H   0  0  0  0  0  0  0  0  0  0  0  0
    7.4125   -7.1269   -2.1391 H   0  0  0  0  0  0  0  0  0  0  0  0
    2.6923   -7.9277   -2.2052 H   0  0  0  0  0  0  0  0  0  0  0  0
   -0.7467   -5.7850    1.3631 H   0  0  0  0  0  0  0  0  0  0  0  0
    0.9261   -6.3854    1.2647 H   0  0  0  0  0  0  0  0  0  0  0  0
    0.2062   -8.0530   -0.5444 H   0  0  0  0  0  0  0  0  0  0  0  0
   -0.5755   -8.2958    1.0664 H   0  0  0  0  0  0  0  0  0  0  0  0
   -1.4989   -7.5207   -0.2604 H   0  0  0  0  0  0  0  0  0  0  0  0
   -5.4463    1.7940    4.2059 H   0  0  0  0  0  0  0  0  0  0  0  0
   -7.7037    2.6603    4.7196 H   0  0  0  0  0  0  0  0  0  0  0  0
   -8.5555    2.9147    0.4643 H   0  0  0  0  0  0  0  0  0  0  0  0
   -6.3377    2.0291   -0.0209 H   0  0  0  0  0  0  0  0  0  0  0  0
   -7.0388   -0.7001    1.2613 H   0  0  0  0  0  0  0  0  0  0  0  0
   -8.5845   -1.8729    2.7871 H   0  0  0  0  0  0  0  0  0  0  0  0
   -5.2571   -2.6474    5.4631 H   0  0  0  0  0  0  0  0  0  0  0  0
   -3.7451   -1.4499    3.9556 H   0  0  0  0  0  0  0  0  0  0  0  0
   -1.4381    9.1409   -0.7823 H   0  0  0  0  0  0  0  0  0  0  0  0
    0.2260    8.6069   -0.4470 H   0  0  0  0  0  0  0  0  0  0  0  0
   -0.5504    7.1021    1.3332 H   0  0  0  0  0  0  0  0  0  0  0  0
   -1.0723    8.7959    1.6205 H   0  0  0  0  0  0  0  0  0  0  0  0
   -2.2891    7.6087    1.0238 H   0  0  0  0  0  0  0  0  0  0  0  0
    1.5662    0.3646   -2.6954 H   0  0  0  0  0  0  0  0  0  0  0  0
    1.9820   -1.3042   -2.4540 H   0  0  0  0  0  0  0  0  0  0  0  0
    0.1798   -0.5295   -4.8565 H   0  0  0  0  0  0  0  0  0  0  0  0
    1.0666   -2.0604   -4.5582 H   0  0  0  0  0  0  0  0  0  0  0  0
    1.9688   -0.5388   -4.9493 H   0  0  0  0  0  0  0  0  0  0  0  0
    0.3283    3.2588   -4.2214 H   0  0  0  0  0  0  0  0  0  0  0  0
    0.5183    1.5737   -4.1169 H   0  0  0  0  0  0  0  0  0  0  0  0
   -2.1362    3.0381   -4.5678 H   0  0  0  0  0  0  0  0  0  0  0  0
   -1.2310    1.9781   -5.7436 H   0  0  0  0  0  0  0  0  0  0  0  0
   -2.0219    1.2294   -4.2888 H   0  0  0  0  0  0  0  0  0  0  0  0
    0.7185    8.2613   -4.2440 H   0  0  0  0  0  0  0  0  0  0  0  0
    0.1553   10.3626   -4.4168 H   0  0  0  0  0  0  0  0  0  0  0  0
   -1.1247   11.5081   -3.4619 H   0  0  0  0  0  0  0  0  0  0  0  0
   -2.5948   12.4750   -2.4866 H   0  0  0  0  0  0  0  0  0  0  0  0
   -3.8726   11.9532   -0.7385 H   0  0  0  0  0  0  0  0  0  0  0  0
   -4.3842    5.7150   -1.6482 H   0  0  0  0  0  0  0  0  0  0  0  0
   -5.2230    4.4191    0.2972 H   0  0  0  0  0  0  0  0  0  0  0  0
   -7.3799    6.5015    3.7838 H   0  0  0  0  0  0  0  0  0  0  0  0
   -5.6294    6.4818    4.2987 H   0  0  0  0  0  0  0  0  0  0  0  0
   -6.6592    5.0373    4.5587 H   0  0  0  0  0  0  0  0  0  0  0  0
   -6.0070    8.0562    2.4431 H   0  0  0  0  0  0  0  0  0  0  0  0
  1  2  2  3
  2  3  1  0
  3  4  2  0
  3  5  1  0
  5  6  2  0
  6  7  1  0
  7  8  1  0
  7  9  2  0
  9 10  1  0
 10 11  2  0
 11 12  1  0
 12 13  2  3
 13 14  1  0
 14 15  3  0
 13 16  1  0
 16 17  3  0
  1 18  1  0
 18 19  2  0
 19 20  1  0
 20 21  2  0
 21 22  1  0
 22 23  2  0
 23 24  1  0
 24 25  1  0
 23 26  1  0
 26 27  2  0
 27 28  1  0
 28 29  1  0
 21 30  1  0
 30 31  1  0
 19 32  1  0
 32 33  2  0
 33 34  1  0
 33 35  1  0
 35 36  2  0
 36 37  1  0
 37 38  1  0
 36 39  1  0
 39 40  1  0
 40 41  1  0
 41 42  1  0
 42 43  2  0
 43 44  1  0
 44 45  1  0
 45 46  2  0
 46 47  1  0
 47 48  2  0
 48 49  1  0
 49 50  2  0
 50 51  1  0
 51 52  1  0
 51 53  1  0
 51 54  1  0
 50 55  1  0
 55 56  2  0
 46 57  1  0
 57 58  1  0
 58 59  2  0
 59 60  1  0
 60 61  2  0
 61 62  1  0
 62 63  1  0
 62 64  1  0
 62 65  1  0
 61 66  1  0
 66 67  2  0
 57 68  2  0
 44 69  2  0
 69 70  1  0
 70 71  1  0
 71 72  1  0
 72 73  1  0
 73 74  1  0
 74 75  1  0
 73 76  2  0
 76 77  1  0
 77 78  1  0
 78 79  1  0
 79 80  1  0
 80 81  1  0
 81 82  2  0
 82 83  1  0
 83 84  1  0
 84 85  1  0
 85 86  1  0
 83 87  1  0
 87 88  1  0
 80 89  1  0
 89 90  1  0
 76 91  1  0
 91 92  2  3
 92 93  1  0
 93 94  2  3
 94 95  1  0
 95 96  2  3
 96 97  1  0
 97 98  2  0
 97 99  1  0
 99100  2  0
100101  1  0
101102  2  0
102103  1  0
103104  1  0
102105  1  0
105106  2  0
106107  1  0
107108  2  3
108109  1  0
109110  3  0
108111  1  0
111112  3  0
 12  2  1  0
 34 18  1  0
 86 35  1  0
107 96  1  0
 11  5  1  0
 27 20  1  0
 85 39  2  0
106 99  1  0
 84 41  2  0
 82 42  1  0
 68 43  1  0
 81 69  1  0
 56 47  1  0
 67 58  1  0
 79 70  2  0
 78 72  2  0
  1113  1  0
  6114  1  0
  8115  1  0
  8116  1  0
  8117  1  0
  9118  1  0
 10119  1  0
 22120  1  0
 24121  1  0
 24122  1  0
 25123  1  0
 25124  1  0
 25125  1  0
 26126  1  0
 28127  1  0
 28128  1  0
 29129  1  0
 29130  1  0
 29131  1  0
 30132  1  0
 30133  1  0
 31134  1  0
 31135  1  0
 31136  1  0
 32137  1  0
 37138  1  0
 37139  1  0
 38140  1  0
 38141  1  0
 38142  1  0
 48143  1  0
 49144  1  0
 55145  1  0
 56146  1  0
 59147  1  0
 60148  1  0
 66149  1  0
 67150  1  0
 74151  1  0
 74152  1  0
 75153  1  0
 75154  1  0
 75155  1  0
 87156  1  0
 87157  1  0
 88158  1  0
 88159  1  0
 88160  1  0
 89161  1  0
 89162  1  0
 90163  1  0
 90164  1  0
 90165  1  0
 91166  1  0
 92167  1  0
 93168  1  0
 94169  1  0
 95170  1  0
100171  1  0
101172  1  0
104173  1  0
104174  1  0
104175  1  0
105176  1  0
M  END

