
     RDKit          3D

202219  0  0  0  0  0  0  0  0999 V2000
   -6.1039   -5.6229    2.1209 C   0  0  0  0  0  0  0  0  0  0  0  0
   -6.6188   -6.0946    0.9701 C   0  0  0  0  0  0  0  0  0  0  0  0
   -7.3180   -5.3292   -0.0693 C   0  0  0  0  0  0  0  0  0  0  0  0
   -7.0977   -4.1346   -0.4002 O   0  0  0  0  0  0  0  0  0  0  0  0
   -8.1874   -6.2378   -0.7816 C   0  0  0  0  0  0  0  0  0  0  0  0
   -9.2134   -5.9228   -1.6686 C   0  0  0  0  0  0  0  0  0  0  0  0
  -10.0468   -6.9572   -2.1273 C   0  0  0  0  0  0  0  0  0  0  0  0
  -11.2003   -6.6270   -3.0278 C   0  0  0  0  0  0  0  0  0  0  0  0
   -9.8255   -8.2817   -1.6855 C   0  0  0  0  0  0  0  0  0  0  0  0
   -8.7843   -8.5741   -0.7923 C   0  0  0  0  0  0  0  0  0  0  0  0
   -7.9541   -7.5346   -0.3542 C   0  0  0  0  0  0  0  0  0  0  0  0
   -6.8584   -7.5319    0.6480 C   0  0  0  0  0  0  0  0  0  0  0  0
   -6.0507   -8.5754    0.9669 C   0  0  0  0  0  0  0  0  0  0  0  0
   -4.8399   -8.3914    1.7293 C   0  0  0  0  0  0  0  0  0  0  0  0
   -3.8695   -8.2455    2.3374 N   0  0  0  0  0  0  0  0  0  0  0  0
   -6.2608   -9.9028    0.4450 C   0  0  0  0  0  0  0  0  0  0  0  0
   -6.4156  -10.9721    0.0239 N   0  0  0  0  0  0  0  0  0  0  0  0
   -6.0134   -4.2018    2.5170 C   0  0  0  0  0  0  0  0  0  0  0  0
   -4.9280   -3.6216    3.1747 C   0  0  0  0  0  0  0  0  0  0  0  0
   -3.6625   -4.3423    3.4406 C   0  0  0  0  0  0  0  0  0  0  0  0
   -3.5990   -5.2940    4.4916 C   0  0  0  0  0  0  0  0  0  0  0  0
   -2.4331   -6.0612    4.6587 C   0  0  0  0  0  0  0  0  0  0  0  0
   -1.3375   -5.9012    3.8047 C   0  0  0  0  0  0  0  0  0  0  0  0
   -0.1257   -6.7875    3.9393 C   0  0  0  0  0  0  0  0  0  0  0  0
   -0.2026   -7.9490    2.9543 C   0  0  0  0  0  0  0  0  0  0  0  0
   -1.3949   -4.9499    2.7819 C   0  0  0  0  0  0  0  0  0  0  0  0
   -2.5383   -4.1615    2.5892 C   0  0  0  0  0  0  0  0  0  0  0  0
   -2.5021   -3.1409    1.4684 C   0  0  0  0  0  0  0  0  0  0  0  0
   -1.6765   -1.9174    1.8729 C   0  0  0  0  0  0  0  0  0  0  0  0
   -4.7150   -5.4537    5.5030 C   0  0  0  0  0  0  0  0  0  0  0  0
   -4.5287   -4.4837    6.6637 C   0  0  0  0  0  0  0  0  0  0  0  0
   -5.0712   -2.2415    3.3784 C   0  0  0  0  0  0  0  0  0  0  0  0
   -6.2753   -1.7203    2.9113 C   0  0  0  0  0  0  0  0  0  0  0  0
   -7.1572   -2.9963    2.2523 S   0  0  0  0  0  0  0  0  0  0  0  0
   -6.3598   -0.3638    2.3694 C   0  0  0  0  0  0  0  0  0  0  0  0
   -6.1837    0.8456    3.0691 C   0  0  0  0  0  0  0  0  0  0  0  0
   -6.2511    0.9903    4.5663 C   0  0  0  0  0  0  0  0  0  0  0  0
   -4.8708    1.0831    5.2133 C   0  0  0  0  0  0  0  0  0  0  0  0
   -5.8330    1.8834    2.1890 C   0  0  0  0  0  0  0  0  0  0  0  0
   -5.0409    3.3571    2.4652 S   0  0  0  0  0  0  0  0  0  0  0  0
   -4.5546    3.4900    0.8387 C   0  0  0  0  0  0  0  0  0  0  0  0
   -3.3732    3.9276    0.2988 C   0  0  0  0  0  0  0  0  0  0  0  0
   -2.3949    4.7273    0.9164 C   0  0  0  0  0  0  0  0  0  0  0  0
   -1.0868    4.6992    0.4078 C   0  0  0  0  0  0  0  0  0  0  0  0
   -0.1014    5.3852    1.0388 N   0  0  0  0  0  0  0  0  0  0  0  0
   -0.3538    6.1242    2.1497 C   0  0  0  0  0  0  0  0  0  0  0  0
    0.7584    6.8648    2.7732 C   0  0  0  0  0  0  0  0  0  0  0  0
    0.7205    8.2624    2.8711 C   0  0  0  0  0  0  0  0  0  0  0  0
    1.7804    8.9592    3.4533 C   0  0  0  0  0  0  0  0  0  0  0  0
    2.8860    8.2651    3.9772 C   0  0  0  0  0  0  0  0  0  0  0  0
    4.0501    9.0066    4.5836 C   0  0  0  0  0  0  0  0  0  0  0  0
    5.0164    9.2047    3.6170 F   0  0  0  0  0  0  0  0  0  0  0  0
    4.5957    8.2834    5.6293 F   0  0  0  0  0  0  0  0  0  0  0  0
    3.6486   10.2387    5.0767 F   0  0  0  0  0  0  0  0  0  0  0  0
    2.9361    6.8648    3.8523 C   0  0  0  0  0  0  0  0  0  0  0  0
    1.8792    6.1692    3.2502 C   0  0  0  0  0  0  0  0  0  0  0  0
   -1.6714    6.1658    2.6593 C   0  0  0  0  0  0  0  0  0  0  0  0
   -1.9940    6.9042    3.8895 C   0  0  0  0  0  0  0  0  0  0  0  0
   -2.6933    8.1146    3.8200 C   0  0  0  0  0  0  0  0  0  0  0  0
   -2.9362    8.8510    4.9847 C   0  0  0  0  0  0  0  0  0  0  0  0
   -2.4778    8.3913    6.2303 C   0  0  0  0  0  0  0  0  0  0  0  0
   -2.7658    9.1868    7.4747 C   0  0  0  0  0  0  0  0  0  0  0  0
   -4.0959    9.0353    7.8149 F   0  0  0  0  0  0  0  0  0  0  0  0
   -1.9800    8.7683    8.5352 F   0  0  0  0  0  0  0  0  0  0  0  0
   -2.5078   10.5258    7.2505 F   0  0  0  0  0  0  0  0  0  0  0  0
   -1.8089    7.1545    6.2969 C   0  0  0  0  0  0  0  0  0  0  0  0
   -1.5578    6.4218    5.1328 C   0  0  0  0  0  0  0  0  0  0  0  0
   -2.6530    5.4580    2.0337 N   0  0  0  0  0  0  0  0  0  0  0  0
   -0.8257    3.9213   -0.7152 C   0  0  0  0  0  0  0  0  0  0  0  0
    0.3642    3.6236   -1.2932 C   0  0  0  0  0  0  0  0  0  0  0  0
    2.0079    3.7972   -0.9302 S   0  0  0  0  0  0  0  0  0  0  0  0
    2.4033    2.6503   -2.1327 C   0  0  0  0  0  0  0  0  0  0  0  0
    3.5848    1.9763   -2.4235 C   0  0  0  0  0  0  0  0  0  0  0  0
    4.8662    2.2351   -1.6924 C   0  0  0  0  0  0  0  0  0  0  0  0
    5.0587    1.2393   -0.5513 C   0  0  0  0  0  0  0  0  0  0  0  0
    3.3401    0.8966   -3.2938 C   0  0  0  0  0  0  0  0  0  0  0  0
    1.6669    0.7786   -3.6217 S   0  0  0  0  0  0  0  0  0  0  0  0
    1.2836    2.1512   -2.7442 C   0  0  0  0  0  0  0  0  0  0  0  0
    0.1206    2.7260   -2.2633 C   0  0  0  0  0  0  0  0  0  0  0  0
   -1.1938    2.4355   -2.4094 N   0  0  0  0  0  0  0  0  0  0  0  0
   -1.7935    3.1492   -1.3864 C   0  0  0  0  0  0  0  0  0  0  0  0
   -3.1077    3.1004   -0.8170 C   0  0  0  0  0  0  0  0  0  0  0  0
   -4.0990    2.1510   -0.9272 N   0  0  0  0  0  0  0  0  0  0  0  0
   -4.9480    2.4073    0.1042 C   0  0  0  0  0  0  0  0  0  0  0  0
   -5.7105    1.5180    0.8664 C   0  0  0  0  0  0  0  0  0  0  0  0
   -6.0543   -0.1091    0.7238 S   0  0  0  0  0  0  0  0  0  0  0  0
   -4.1687    0.9459   -1.7565 C   0  0  0  0  0  0  0  0  0  0  0  0
   -3.1764   -0.1215   -1.2940 C   0  0  0  0  0  0  0  0  0  0  0  0
   -1.7298    1.9512   -3.6905 C   0  0  0  0  0  0  0  0  0  0  0  0
   -2.6597    2.9832   -4.3342 C   0  0  0  0  0  0  0  0  0  0  0  0
    4.3152   -0.1260   -3.7068 C   0  0  0  0  0  0  0  0  0  0  0  0
    5.4739    0.0490   -4.4832 C   0  0  0  0  0  0  0  0  0  0  0  0
    5.9271    1.3604   -5.0328 C   0  0  0  0  0  0  0  0  0  0  0  0
    5.0592    2.1250   -5.8703 C   0  0  0  0  0  0  0  0  0  0  0  0
    5.4304    3.4323   -6.2374 C   0  0  0  0  0  0  0  0  0  0  0  0
    6.6190    4.0048   -5.7848 C   0  0  0  0  0  0  0  0  0  0  0  0
    6.9419    5.4332   -6.1323 C   0  0  0  0  0  0  0  0  0  0  0  0
    6.3475    6.3914   -5.1020 C   0  0  0  0  0  0  0  0  0  0  0  0
    7.4975    3.2402   -5.0147 C   0  0  0  0  0  0  0  0  0  0  0  0
    7.2059    1.9045   -4.6800 C   0  0  0  0  0  0  0  0  0  0  0  0
    8.3123    1.1108   -4.0028 C   0  0  0  0  0  0  0  0  0  0  0  0
    8.0833    0.8961   -2.5120 C   0  0  0  0  0  0  0  0  0  0  0  0
    3.8181    1.5303   -6.5315 C   0  0  0  0  0  0  0  0  0  0  0  0
    2.5925    2.4483   -6.4399 C   0  0  0  0  0  0  0  0  0  0  0  0
    6.1480   -1.1651   -4.7120 C   0  0  0  0  0  0  0  0  0  0  0  0
    5.5842   -2.2524   -4.0567 C   0  0  0  0  0  0  0  0  0  0  0  0
    4.1462   -1.7536   -3.3367 S   0  0  0  0  0  0  0  0  0  0  0  0
    6.1344   -3.6254   -4.0899 C   0  0  0  0  0  0  0  0  0  0  0  0
    6.1677   -4.4805   -3.0419 C   0  0  0  0  0  0  0  0  0  0  0  0
    5.8952   -4.1415   -1.6328 C   0  0  0  0  0  0  0  0  0  0  0  0
    5.4941   -3.0365   -1.1826 O   0  0  0  0  0  0  0  0  0  0  0  0
    6.2971   -5.2466   -0.7973 C   0  0  0  0  0  0  0  0  0  0  0  0
    6.1655   -5.3629    0.5858 C   0  0  0  0  0  0  0  0  0  0  0  0
    6.5837   -6.5550    1.2002 C   0  0  0  0  0  0  0  0  0  0  0  0
    6.4964   -6.6944    2.6905 C   0  0  0  0  0  0  0  0  0  0  0  0
    7.1208   -7.5992    0.4135 C   0  0  0  0  0  0  0  0  0  0  0  0
    7.2276   -7.4591   -0.9787 C   0  0  0  0  0  0  0  0  0  0  0  0
    6.8363   -6.2489   -1.5788 C   0  0  0  0  0  0  0  0  0  0  0  0
    6.7897   -5.8476   -3.0153 C   0  0  0  0  0  0  0  0  0  0  0  0
    7.2521   -6.5746   -4.0671 C   0  0  0  0  0  0  0  0  0  0  0  0
    6.8896   -6.2951   -5.4287 C   0  0  0  0  0  0  0  0  0  0  0  0
    6.6232   -6.0987   -6.5406 N   0  0  0  0  0  0  0  0  0  0  0  0
    8.1978   -7.6490   -3.8939 C   0  0  0  0  0  0  0  0  0  0  0  0
    8.9759   -8.4991   -3.7610 N   0  0  0  0  0  0  0  0  0  0  0  0
   -5.7188   -6.3247    2.8439 H   0  0  0  0  0  0  0  0  0  0  0  0
   -9.3878   -4.8924   -1.9595 H   0  0  0  0  0  0  0  0  0  0  0  0
  -10.8436   -6.0396   -3.9001 H   0  0  0  0  0  0  0  0  0  0  0  0
  -11.9450   -6.0293   -2.4621 H   0  0  0  0  0  0  0  0  0  0  0  0
  -11.6960   -7.5504   -3.4031 H   0  0  0  0  0  0  0  0  0  0  0  0
  -10.4832   -9.0799   -2.0101 H   0  0  0  0  0  0  0  0  0  0  0  0
   -8.6750   -9.5854   -0.4274 H   0  0  0  0  0  0  0  0  0  0  0  0
   -2.3825   -6.7931    5.4555 H   0  0  0  0  0  0  0  0  0  0  0  0
    0.7954   -6.2012    3.7450 H   0  0  0  0  0  0  0  0  0  0  0  0
   -0.0535   -7.1916    4.9720 H   0  0  0  0  0  0  0  0  0  0  0  0
   -0.2636   -7.5708    1.9096 H   0  0  0  0  0  0  0  0  0  0  0  0
    0.7056   -8.5796    3.0508 H   0  0  0  0  0  0  0  0  0  0  0  0
   -1.0951   -8.5760    3.1667 H   0  0  0  0  0  0  0  0  0  0  0  0
   -0.5412   -4.8270    2.1241 H   0  0  0  0  0  0  0  0  0  0  0  0
   -3.5168   -2.8163    1.1558 H   0  0  0  0  0  0  0  0  0  0  0  0
   -2.0331   -3.6019    0.5715 H   0  0  0  0  0  0  0  0  0  0  0  0
   -2.1990   -1.3360    2.6621 H   0  0  0  0  0  0  0  0  0  0  0  0
   -1.5259   -1.2556    0.9966 H   0  0  0  0  0  0  0  0  0  0  0  0
   -0.6754   -2.2160    2.2533 H   0  0  0  0  0  0  0  0  0  0  0  0
   -4.7333   -6.4943    5.8939 H   0  0  0  0  0  0  0  0  0  0  0  0
   -5.7083   -5.2757    5.0454 H   0  0  0  0  0  0  0  0  0  0  0  0
   -5.3801   -4.5797    7.3690 H   0  0  0  0  0  0  0  0  0  0  0  0
   -4.4965   -3.4387    6.2891 H   0  0  0  0  0  0  0  0  0  0  0  0
   -3.5866   -4.7064    7.2081 H   0  0  0  0  0  0  0  0  0  0  0  0
   -4.2523   -1.6219    3.7109 H   0  0  0  0  0  0  0  0  0  0  0  0
   -6.8035    0.1316    5.0066 H   0  0  0  0  0  0  0  0  0  0  0  0
   -6.8212    1.9147    4.8095 H   0  0  0  0  0  0  0  0  0  0  0  0
   -4.2826    0.1637    5.0380 H   0  0  0  0  0  0  0  0  0  0  0  0
   -4.9854    1.2137    6.3099 H   0  0  0  0  0  0  0  0  0  0  0  0
   -4.3056    1.9532    4.8230 H   0  0  0  0  0  0  0  0  0  0  0  0
   -0.1207    8.8180    2.4713 H   0  0  0  0  0  0  0  0  0  0  0  0
    1.7435   10.0428    3.4901 H   0  0  0  0  0  0  0  0  0  0  0  0
    3.7923    6.3076    4.2098 H   0  0  0  0  0  0  0  0  0  0  0  0
    1.9314    5.0911    3.1653 H   0  0  0  0  0  0  0  0  0  0  0  0
   -3.0267    8.4973    2.8620 H   0  0  0  0  0  0  0  0  0  0  0  0
   -3.4781    9.7880    4.9086 H   0  0  0  0  0  0  0  0  0  0  0  0
   -1.4770    6.7513    7.2458 H   0  0  0  0  0  0  0  0  0  0  0  0
   -1.0240    5.4806    5.1991 H   0  0  0  0  0  0  0  0  0  0  0  0
    5.7065    2.1830   -2.3996 H   0  0  0  0  0  0  0  0  0  0  0  0
    4.8688    3.2604   -1.2698 H   0  0  0  0  0  0  0  0  0  0  0  0
    4.2087    1.2995    0.1635 H   0  0  0  0  0  0  0  0  0  0  0  0
    5.1279    0.1997   -0.9440 H   0  0  0  0  0  0  0  0  0  0  0  0
    5.9991    1.4741   -0.0082 H   0  0  0  0  0  0  0  0  0  0  0  0
   -4.0769    1.2070   -2.8148 H   0  0  0  0  0  0  0  0  0  0  0  0
   -5.1890    0.5164   -1.7288 H   0  0  0  0  0  0  0  0  0  0  0  0
   -2.1413    0.2756   -1.2473 H   0  0  0  0  0  0  0  0  0  0  0  0
   -3.4442   -0.4814   -0.2808 H   0  0  0  0  0  0  0  0  0  0  0  0
   -3.1986   -0.9842   -1.9930 H   0  0  0  0  0  0  0  0  0  0  0  0
   -0.9036    1.7935   -4.4158 H   0  0  0  0  0  0  0  0  0  0  0  0
   -2.1763    0.9490   -3.5927 H   0  0  0  0  0  0  0  0  0  0  0  0
   -2.0908    3.9144   -4.5511 H   0  0  0  0  0  0  0  0  0  0  0  0
   -3.0641    2.5808   -5.2890 H   0  0  0  0  0  0  0  0  0  0  0  0
   -3.5099    3.2416   -3.6681 H   0  0  0  0  0  0  0  0  0  0  0  0
    4.7916    4.0153   -6.8870 H   0  0  0  0  0  0  0  0  0  0  0  0
    8.0439    5.5818   -6.1798 H   0  0  0  0  0  0  0  0  0  0  0  0
    6.5311    5.6800   -7.1363 H   0  0  0  0  0  0  0  0  0  0  0  0
    5.2638    6.1910   -4.9623 H   0  0  0  0  0  0  0  0  0  0  0  0
    6.8677    6.2778   -4.1260 H   0  0  0  0  0  0  0  0  0  0  0  0
    6.4742    7.4377   -5.4538 H   0  0  0  0  0  0  0  0  0  0  0  0
    8.4367    3.6829   -4.7041 H   0  0  0  0  0  0  0  0  0  0  0  0
    8.4679    0.1386   -4.5027 H   0  0  0  0  0  0  0  0  0  0  0  0
    9.2815    1.6361   -4.1104 H   0  0  0  0  0  0  0  0  0  0  0  0
    7.1807    0.2770   -2.3349 H   0  0  0  0  0  0  0  0  0  0  0  0
    7.9884    1.8751   -1.9932 H   0  0  0  0  0  0  0  0  0  0  0  0
    8.9519    0.3579   -2.0777 H   0  0  0  0  0  0  0  0  0  0  0  0
    3.5397    0.5526   -6.0967 H   0  0  0  0  0  0  0  0  0  0  0  0
    4.0412    1.3313   -7.5980 H   0  0  0  0  0  0  0  0  0  0  0  0
    2.6716    3.2793   -7.1656 H   0  0  0  0  0  0  0  0  0  0  0  0
    2.4979    2.8930   -5.4231 H   0  0  0  0  0  0  0  0  0  0  0  0
    1.6696    1.8741   -6.6662 H   0  0  0  0  0  0  0  0  0  0  0  0
    7.0167   -1.2633   -5.3469 H   0  0  0  0  0  0  0  0  0  0  0  0
    6.6503   -3.8766   -5.0007 H   0  0  0  0  0  0  0  0  0  0  0  0
    5.7507   -4.5468    1.1657 H   0  0  0  0  0  0  0  0  0  0  0  0
    7.3156   -6.1125    3.1654 H   0  0  0  0  0  0  0  0  0  0  0  0
    5.5152   -6.3104    3.0537 H   0  0  0  0  0  0  0  0  0  0  0  0
    6.5863   -7.7580    2.9992 H   0  0  0  0  0  0  0  0  0  0  0  0
    7.4354   -8.5244    0.8822 H   0  0  0  0  0  0  0  0  0  0  0  0
    7.5887   -8.2993   -1.5430 H   0  0  0  0  0  0  0  0  0  0  0  0
  1  2  2  3
  2  3  1  0
  3  4  2  0
  3  5  1  0
  5  6  2  0
  6  7  1  0
  7  8  1  0
  7  9  2  0
  9 10  1  0
 10 11  2  0
 11 12  1  0
 12 13  2  3
 13 14  1  0
 14 15  3  0
 13 16  1  0
 16 17  3  0
  1 18  1  0
 18 19  2  0
 19 20  1  0
 20 21  2  0
 21 22  1  0
 22 23  2  0
 23 24  1  0
 24 25  1  0
 23 26  1  0
 26 27  2  0
 27 28  1  0
 28 29  1  0
 21 30  1  0
 30 31  1  0
 19 32  1  0
 32 33  2  0
 33 34  1  0
 33 35  1  0
 35 36  2  0
 36 37  1  0
 37 38  1  0
 36 39  1  0
 39 40  1  0
 40 41  1  0
 41 42  1  0
 42 43  2  0
 43 44  1  0
 44 45  1  0
 45 46  2  0
 46 47  1  0
 47 48  2  0
 48 49  1  0
 49 50  2  0
 50 51  1  0
 51 52  1  0
 51 53  1  0
 51 54  1  0
 50 55  1  0
 55 56  2  0
 46 57  1  0
 57 58  1  0
 58 59  2  0
 59 60  1  0
 60 61  2  0
 61 62  1  0
 62 63  1  0
 62 64  1  0
 62 65  1  0
 61 66  1  0
 66 67  2  0
 57 68  2  0
 44 69  2  0
 69 70  1  0
 70 71  1  0
 71 72  1  0
 72 73  1  0
 73 74  1  0
 74 75  1  0
 73 76  2  0
 76 77  1  0
 77 78  1  0
 78 79  1  0
 79 80  1  0
 80 81  1  0
 81 82  2  0
 82 83  1  0
 83 84  1  0
 84 85  1  0
 85 86  1  0
 83 87  1  0
 87 88  1  0
 80 89  1  0
 89 90  1  0
 76 91  1  0
 91 92  2  0
 92 93  1  0
 93 94  2  0
 94 95  1  0
 95 96  2  0
 96 97  1  0
 97 98  1  0
 96 99  1  0
 99100  2  0
100101  1  0
101102  1  0
 94103  1  0
103104  1  0
 92105  1  0
105106  2  0
106107  1  0
106108  1  0
108109  2  3
109110  1  0
110111  2  0
110112  1  0
112113  2  0
113114  1  0
114115  1  0
114116  2  0
116117  1  0
117118  2  0
118119  1  0
119120  2  3
120121  1  0
121122  3  0
120123  1  0
123124  3  0
 12  2  1  0
 34 18  1  0
 86 35  1  0
107 91  1  0
119109  1  0
 11  5  1  0
 27 20  1  0
 85 39  2  0
100 93  1  0
118112  1  0
 84 41  2  0
 82 42  1  0
 68 43  1  0
 81 69  1  0
 56 47  1  0
 67 58  1  0
 79 70  2  0
 78 72  2  0
  1125  1  0
  6126  1  0
  8127  1  0
  8128  1  0
  8129  1  0
  9130  1  0
 10131  1  0
 22132  1  0
 24133  1  0
 24134  1  0
 25135  1  0
 25136  1  0
 25137  1  0
 26138  1  0
 28139  1  0
 28140  1  0
 29141  1  0
 29142  1  0
 29143  1  0
 30144  1  0
 30145  1  0
 31146  1  0
 31147  1  0
 31148  1  0
 32149  1  0
 37150  1  0
 37151  1  0
 38152  1  0
 38153  1  0
 38154  1  0
 48155  1  0
 49156  1  0
 55157  1  0
 56158  1  0
 59159  1  0
 60160  1  0
 66161  1  0
 67162  1  0
 74163  1  0
 74164  1  0
 75165  1  0
 75166  1  0
 75167  1  0
 87168  1  0
 87169  1  0
 88170  1  0
 88171  1  0
 88172  1  0
 89173  1  0
 89174  1  0
 90175  1  0
 90176  1  0
 90177  1  0
 95178  1  0
 97179  1  0
 97180  1  0
 98181  1  0
 98182  1  0
 98183  1  0
 99184  1  0
101185  1  0
101186  1  0
102187  1  0
102188  1  0
102189  1  0
103190  1  0
103191  1  0
104192  1  0
104193  1  0
104194  1  0
105195  1  0
108196  1  0
113197  1  0
115198  1  0
115199  1  0
115200  1  0
116201  1  0
117202  1  0
M  END

