
     RDKit          3D

182199  0  0  0  0  0  0  0  0999 V2000
    1.4974    6.1577   -5.0072 C   0  0  0  0  0  0  0  0  0  0  0  0
    0.7415    6.5553   -3.9719 C   0  0  0  0  0  0  0  0  0  0  0  0
   -0.2319    7.6450   -4.0598 C   0  0  0  0  0  0  0  0  0  0  0  0
   -0.2396    8.5672   -4.9146 O   0  0  0  0  0  0  0  0  0  0  0  0
   -1.2059    7.4604   -2.9972 C   0  0  0  0  0  0  0  0  0  0  0  0
   -2.3864    8.1711   -2.7604 C   0  0  0  0  0  0  0  0  0  0  0  0
   -3.2411    7.7303   -1.7320 C   0  0  0  0  0  0  0  0  0  0  0  0
   -4.4708    8.5156   -1.3889 C   0  0  0  0  0  0  0  0  0  0  0  0
   -2.8923    6.5880   -0.9777 C   0  0  0  0  0  0  0  0  0  0  0  0
   -1.7042    5.8863   -1.2435 C   0  0  0  0  0  0  0  0  0  0  0  0
   -0.8487    6.3637   -2.2409 C   0  0  0  0  0  0  0  0  0  0  0  0
    0.4773    5.8620   -2.6813 C   0  0  0  0  0  0  0  0  0  0  0  0
    1.4247    5.3672   -1.8467 C   0  0  0  0  0  0  0  0  0  0  0  0
    2.8227    5.3745   -2.1847 C   0  0  0  0  0  0  0  0  0  0  0  0
    3.9534    5.3868   -2.4299 N   0  0  0  0  0  0  0  0  0  0  0  0
    1.1256    4.9738   -0.4910 C   0  0  0  0  0  0  0  0  0  0  0  0
    0.8941    4.6593    0.5981 N   0  0  0  0  0  0  0  0  0  0  0  0
    2.0598    4.8061   -5.1541 C   0  0  0  0  0  0  0  0  0  0  0  0
    1.3806    3.5784   -5.1061 C   0  0  0  0  0  0  0  0  0  0  0  0
   -0.0626    3.4124   -4.7945 C   0  0  0  0  0  0  0  0  0  0  0  0
   -1.0506    3.8271   -5.7263 C   0  0  0  0  0  0  0  0  0  0  0  0
   -2.4113    3.6839   -5.4005 C   0  0  0  0  0  0  0  0  0  0  0  0
   -2.8082    3.1405   -4.1748 C   0  0  0  0  0  0  0  0  0  0  0  0
   -4.2684    3.0205   -3.8278 C   0  0  0  0  0  0  0  0  0  0  0  0
   -4.7331    4.2427   -3.0499 C   0  0  0  0  0  0  0  0  0  0  0  0
   -1.8340    2.7279   -3.2615 C   0  0  0  0  0  0  0  0  0  0  0  0
   -0.4680    2.8343   -3.5591 C   0  0  0  0  0  0  0  0  0  0  0  0
    0.5145    2.2939   -2.5375 C   0  0  0  0  0  0  0  0  0  0  0  0
    0.5596    0.7664   -2.5467 C   0  0  0  0  0  0  0  0  0  0  0  0
   -0.6957    4.2833   -7.1277 C   0  0  0  0  0  0  0  0  0  0  0  0
   -0.4666    3.0878   -8.0468 C   0  0  0  0  0  0  0  0  0  0  0  0
    2.2335    2.4799   -5.2743 C   0  0  0  0  0  0  0  0  0  0  0  0
    3.5704    2.8192   -5.4317 C   0  0  0  0  0  0  0  0  0  0  0  0
    3.6870    4.4966   -5.4241 S   0  0  0  0  0  0  0  0  0  0  0  0
    4.6307    1.9378   -4.9479 C   0  0  0  0  0  0  0  0  0  0  0  0
    4.9777    0.6964   -5.5171 C   0  0  0  0  0  0  0  0  0  0  0  0
    4.6132    0.3080   -6.8896 C   0  0  0  0  0  0  0  0  0  0  0  0
    5.3671    0.7978   -7.9653 C   0  0  0  0  0  0  0  0  0  0  0  0
    4.9744    0.5258   -9.2756 C   0  0  0  0  0  0  0  0  0  0  0  0
    3.8135   -0.2105   -9.5230 C   0  0  0  0  0  0  0  0  0  0  0  0
    3.0424   -0.6963   -8.4562 C   0  0  0  0  0  0  0  0  0  0  0  0
    1.7997   -1.4992   -8.7277 C   0  0  0  0  0  0  0  0  0  0  0  0
    2.1537   -2.9584   -8.9951 C   0  0  0  0  0  0  0  0  0  0  0  0
    3.4558   -0.4466   -7.1351 C   0  0  0  0  0  0  0  0  0  0  0  0
    5.5853   -0.1423   -4.5758 C   0  0  0  0  0  0  0  0  0  0  0  0
    5.8645   -1.8309   -4.5181 S   0  0  0  0  0  0  0  0  0  0  0  0
    6.1530   -1.7587   -2.8383 C   0  0  0  0  0  0  0  0  0  0  0  0
    6.1291   -2.6046   -1.7648 C   0  0  0  0  0  0  0  0  0  0  0  0
    6.2269   -3.9940   -1.6890 C   0  0  0  0  0  0  0  0  0  0  0  0
    6.0920   -4.6215   -0.4194 C   0  0  0  0  0  0  0  0  0  0  0  0
    6.1645   -5.9754   -0.3962 N   0  0  0  0  0  0  0  0  0  0  0  0
    6.4247   -6.2730   -2.0048 S   0  0  0  0  0  0  0  0  0  0  0  0
    6.4375   -4.7982   -2.7569 N   0  0  0  0  0  0  0  0  0  0  0  0
    5.7882   -3.8345    0.7004 C   0  0  0  0  0  0  0  0  0  0  0  0
    5.2150   -4.2261    1.8807 C   0  0  0  0  0  0  0  0  0  0  0  0
    4.5264   -5.6791    2.4304 S   0  0  0  0  0  0  0  0  0  0  0  0
    3.3791   -4.8544    3.3798 C   0  0  0  0  0  0  0  0  0  0  0  0
    2.2160   -5.2633    4.0612 C   0  0  0  0  0  0  0  0  0  0  0  0
    1.9033   -6.6686    4.4130 C   0  0  0  0  0  0  0  0  0  0  0  0
    1.4279   -6.9775    5.6984 C   0  0  0  0  0  0  0  0  0  0  0  0
    1.1375   -8.2986    6.0449 C   0  0  0  0  0  0  0  0  0  0  0  0
    1.3317   -9.3263    5.1225 C   0  0  0  0  0  0  0  0  0  0  0  0
    1.7958   -9.0382    3.8278 C   0  0  0  0  0  0  0  0  0  0  0  0
    2.0558  -10.1470    2.8446 C   0  0  0  0  0  0  0  0  0  0  0  0
    3.5524  -10.3898    2.6897 C   0  0  0  0  0  0  0  0  0  0  0  0
    2.0747   -7.7048    3.4818 C   0  0  0  0  0  0  0  0  0  0  0  0
    1.4146   -4.1463    4.3991 C   0  0  0  0  0  0  0  0  0  0  0  0
    2.1776   -2.7281    3.8524 S   0  0  0  0  0  0  0  0  0  0  0  0
    3.5223   -3.4963    3.2228 C   0  0  0  0  0  0  0  0  0  0  0  0
    4.5798   -3.1331    2.3860 C   0  0  0  0  0  0  0  0  0  0  0  0
    4.7937   -2.0136    1.6520 N   0  0  0  0  0  0  0  0  0  0  0  0
    5.5839   -2.4377    0.6044 C   0  0  0  0  0  0  0  0  0  0  0  0
    5.8891   -1.7933   -0.6366 C   0  0  0  0  0  0  0  0  0  0  0  0
    5.8898   -0.4657   -1.0054 N   0  0  0  0  0  0  0  0  0  0  0  0
    6.0098   -0.5059   -2.3517 C   0  0  0  0  0  0  0  0  0  0  0  0
    5.7165    0.4212   -3.3312 C   0  0  0  0  0  0  0  0  0  0  0  0
    5.0527    1.9540   -3.3020 S   0  0  0  0  0  0  0  0  0  0  0  0
    6.0983    0.7684   -0.2315 C   0  0  0  0  0  0  0  0  0  0  0  0
    7.1516    0.5952    0.8638 C   0  0  0  0  0  0  0  0  0  0  0  0
    3.9959   -0.7923    1.7942 C   0  0  0  0  0  0  0  0  0  0  0  0
    2.8718   -0.7463    0.7602 C   0  0  0  0  0  0  0  0  0  0  0  0
    0.0185   -4.1524    4.9081 C   0  0  0  0  0  0  0  0  0  0  0  0
   -0.9371   -5.0337    4.3587 C   0  0  0  0  0  0  0  0  0  0  0  0
   -0.5952   -5.9055    3.3774 F   0  0  0  0  0  0  0  0  0  0  0  0
   -2.2782   -4.9639    4.7444 C   0  0  0  0  0  0  0  0  0  0  0  0
   -3.1788   -5.8153    4.1876 F   0  0  0  0  0  0  0  0  0  0  0  0
   -2.7087   -3.9695    5.6290 C   0  0  0  0  0  0  0  0  0  0  0  0
   -1.7761   -3.0717    6.1688 C   0  0  0  0  0  0  0  0  0  0  0  0
   -2.1833   -2.0553    6.9759 N   0  0  0  0  0  0  0  0  0  0  0  0
   -1.3112   -1.1405    7.4793 C   0  0  0  0  0  0  0  0  0  0  0  0
   -1.7670   -0.0734    8.2612 O   0  0  0  0  0  0  0  0  0  0  0  0
   -3.1471    0.2208    8.4684 C   0  0  0  0  0  0  0  0  0  0  0  0
   -3.7438   -0.6965    9.5304 C   0  0  0  0  0  0  0  0  0  0  0  0
    0.0552   -1.2702    7.1834 C   0  0  0  0  0  0  0  0  0  0  0  0
    0.4643   -2.2741    6.3579 N   0  0  0  0  0  0  0  0  0  0  0  0
   -0.4127   -3.1715    5.8265 C   0  0  0  0  0  0  0  0  0  0  0  0
    1.0498   -0.2812    7.6976 C   0  0  0  0  0  0  0  0  0  0  0  0
   -4.1446   -3.8044    5.9195 C   0  0  0  0  0  0  0  0  0  0  0  0
   -4.8811   -2.8250    5.3586 C   0  0  0  0  0  0  0  0  0  0  0  0
   -4.3710   -1.8541    4.3809 C   0  0  0  0  0  0  0  0  0  0  0  0
   -3.2735   -1.9108    3.7648 O   0  0  0  0  0  0  0  0  0  0  0  0
   -5.3474   -0.8086    4.2158 C   0  0  0  0  0  0  0  0  0  0  0  0
   -5.2390    0.3422    3.4359 C   0  0  0  0  0  0  0  0  0  0  0  0
   -6.3033    1.2565    3.4340 C   0  0  0  0  0  0  0  0  0  0  0  0
   -6.2059    2.5254    2.6376 C   0  0  0  0  0  0  0  0  0  0  0  0
   -7.4300    1.0136    4.2458 C   0  0  0  0  0  0  0  0  0  0  0  0
   -7.5130   -0.1481    5.0285 C   0  0  0  0  0  0  0  0  0  0  0  0
   -6.4595   -1.0784    4.9937 C   0  0  0  0  0  0  0  0  0  0  0  0
   -6.2768   -2.3871    5.7005 C   0  0  0  0  0  0  0  0  0  0  0  0
   -7.2144   -3.0782    6.4050 C   0  0  0  0  0  0  0  0  0  0  0  0
   -8.5442   -2.5793    6.6274 C   0  0  0  0  0  0  0  0  0  0  0  0
   -9.6210   -2.1914    6.8173 N   0  0  0  0  0  0  0  0  0  0  0  0
   -6.9953   -4.4040    6.9186 C   0  0  0  0  0  0  0  0  0  0  0  0
   -6.8353   -5.4696    7.3387 N   0  0  0  0  0  0  0  0  0  0  0  0
    1.6095    6.8259   -5.8525 H   0  0  0  0  0  0  0  0  0  0  0  0
   -2.6373    9.0378   -3.3566 H   0  0  0  0  0  0  0  0  0  0  0  0
   -4.1920    9.3921   -0.7688 H   0  0  0  0  0  0  0  0  0  0  0  0
   -5.1946    7.8906   -0.8233 H   0  0  0  0  0  0  0  0  0  0  0  0
   -4.9668    8.8672   -2.3171 H   0  0  0  0  0  0  0  0  0  0  0  0
   -3.5315    6.2519   -0.1677 H   0  0  0  0  0  0  0  0  0  0  0  0
   -1.4864    4.9910   -0.6839 H   0  0  0  0  0  0  0  0  0  0  0  0
   -3.1712    3.9928   -6.1118 H   0  0  0  0  0  0  0  0  0  0  0  0
   -4.4431    2.1061   -3.2185 H   0  0  0  0  0  0  0  0  0  0  0  0
   -4.8814    2.9211   -4.7513 H   0  0  0  0  0  0  0  0  0  0  0  0
   -4.5993    5.1637   -3.6596 H   0  0  0  0  0  0  0  0  0  0  0  0
   -5.8081    4.1370   -2.7912 H   0  0  0  0  0  0  0  0  0  0  0  0
   -4.1537    4.3383   -2.1078 H   0  0  0  0  0  0  0  0  0  0  0  0
   -2.1429    2.3140   -2.3077 H   0  0  0  0  0  0  0  0  0  0  0  0
    0.2094    2.6283   -1.5241 H   0  0  0  0  0  0  0  0  0  0  0  0
    1.5380    2.6898   -2.6987 H   0  0  0  0  0  0  0  0  0  0  0  0
    0.5596    0.3731   -3.5846 H   0  0  0  0  0  0  0  0  0  0  0  0
   -0.3223    0.3584   -2.0071 H   0  0  0  0  0  0  0  0  0  0  0  0
    1.4797    0.4184   -2.0332 H   0  0  0  0  0  0  0  0  0  0  0  0
    0.2080    4.9247   -7.1263 H   0  0  0  0  0  0  0  0  0  0  0  0
   -1.5128    4.9089   -7.5517 H   0  0  0  0  0  0  0  0  0  0  0  0
   -0.1388    3.4428   -9.0475 H   0  0  0  0  0  0  0  0  0  0  0  0
   -1.4110    2.5146   -8.1665 H   0  0  0  0  0  0  0  0  0  0  0  0
    0.3198    2.4173   -7.6359 H   0  0  0  0  0  0  0  0  0  0  0  0
    1.9062    1.4581   -5.1601 H   0  0  0  0  0  0  0  0  0  0  0  0
    6.2501    1.3961   -7.7862 H   0  0  0  0  0  0  0  0  0  0  0  0
    5.5602    0.9062  -10.1026 H   0  0  0  0  0  0  0  0  0  0  0  0
    3.5155   -0.4003  -10.5430 H   0  0  0  0  0  0  0  0  0  0  0  0
    1.1024   -1.4411   -7.8601 H   0  0  0  0  0  0  0  0  0  0  0  0
    1.2621   -1.0796   -9.6097 H   0  0  0  0  0  0  0  0  0  0  0  0
    1.2193   -3.5504   -9.1041 H   0  0  0  0  0  0  0  0  0  0  0  0
    2.7319   -3.0412   -9.9362 H   0  0  0  0  0  0  0  0  0  0  0  0
    2.7491   -3.3766   -8.1587 H   0  0  0  0  0  0  0  0  0  0  0  0
    2.8620   -0.8105   -6.3053 H   0  0  0  0  0  0  0  0  0  0  0  0
    1.2874   -6.2022    6.4356 H   0  0  0  0  0  0  0  0  0  0  0  0
    0.7683   -8.5288    7.0364 H   0  0  0  0  0  0  0  0  0  0  0  0
    1.1220  -10.3456    5.4089 H   0  0  0  0  0  0  0  0  0  0  0  0
    1.5665  -11.0864    3.1795 H   0  0  0  0  0  0  0  0  0  0  0  0
    1.6184   -9.8784    1.8567 H   0  0  0  0  0  0  0  0  0  0  0  0
    4.0167  -10.5961    3.6760 H   0  0  0  0  0  0  0  0  0  0  0  0
    3.7240  -11.2582    2.0244 H   0  0  0  0  0  0  0  0  0  0  0  0
    4.0411   -9.4992    2.2409 H   0  0  0  0  0  0  0  0  0  0  0  0
    2.3994   -7.4808    2.4730 H   0  0  0  0  0  0  0  0  0  0  0  0
    6.4967    1.5579   -0.8979 H   0  0  0  0  0  0  0  0  0  0  0  0
    5.1369    1.1832    0.1193 H   0  0  0  0  0  0  0  0  0  0  0  0
    6.8771   -0.2028    1.5812 H   0  0  0  0  0  0  0  0  0  0  0  0
    8.1305    0.3360    0.4082 H   0  0  0  0  0  0  0  0  0  0  0  0
    7.2596    1.5453    1.4258 H   0  0  0  0  0  0  0  0  0  0  0  0
    4.6255    0.0954    1.7785 H   0  0  0  0  0  0  0  0  0  0  0  0
    3.5542   -0.7337    2.8030 H   0  0  0  0  0  0  0  0  0  0  0  0
    3.2849   -0.6835   -0.2666 H   0  0  0  0  0  0  0  0  0  0  0  0
    2.2429   -1.6581    0.8440 H   0  0  0  0  0  0  0  0  0  0  0  0
    2.2350    0.1421    0.9401 H   0  0  0  0  0  0  0  0  0  0  0  0
   -3.2401    1.2698    8.8140 H   0  0  0  0  0  0  0  0  0  0  0  0
   -3.7111    0.1273    7.5130 H   0  0  0  0  0  0  0  0  0  0  0  0
   -3.7250   -1.7533    9.1941 H   0  0  0  0  0  0  0  0  0  0  0  0
   -3.1706   -0.6066   10.4739 H   0  0  0  0  0  0  0  0  0  0  0  0
   -4.7982   -0.4049    9.7267 H   0  0  0  0  0  0  0  0  0  0  0  0
    1.0098   -0.2393    8.8049 H   0  0  0  0  0  0  0  0  0  0  0  0
    2.0760   -0.5646    7.3900 H   0  0  0  0  0  0  0  0  0  0  0  0
    0.8232    0.7233    7.2875 H   0  0  0  0  0  0  0  0  0  0  0  0
   -4.5389   -4.4431    6.6874 H   0  0  0  0  0  0  0  0  0  0  0  0
   -4.3434    0.5255    2.8534 H   0  0  0  0  0  0  0  0  0  0  0  0
   -5.5264    2.3967    1.7677 H   0  0  0  0  0  0  0  0  0  0  0  0
   -7.2046    2.8200    2.2497 H   0  0  0  0  0  0  0  0  0  0  0  0
   -5.8128    3.3370    3.2847 H   0  0  0  0  0  0  0  0  0  0  0  0
   -8.2405    1.7319    4.2771 H   0  0  0  0  0  0  0  0  0  0  0  0
   -8.3785   -0.2718    5.6537 H   0  0  0  0  0  0  0  0  0  0  0  0
  1  2  2  3
  2  3  1  0
  3  4  2  0
  3  5  1  0
  5  6  2  0
  6  7  1  0
  7  8  1  0
  7  9  2  0
  9 10  1  0
 10 11  2  0
 11 12  1  0
 12 13  2  3
 13 14  1  0
 14 15  3  0
 13 16  1  0
 16 17  3  0
  1 18  1  0
 18 19  2  0
 19 20  1  0
 20 21  2  0
 21 22  1  0
 22 23  2  0
 23 24  1  0
 24 25  1  0
 23 26  1  0
 26 27  2  0
 27 28  1  0
 28 29  1  0
 21 30  1  0
 30 31  1  0
 19 32  1  0
 32 33  2  0
 33 34  1  0
 33 35  1  0
 35 36  2  0
 36 37  1  0
 37 38  2  0
 38 39  1  0
 39 40  2  0
 40 41  1  0
 41 42  1  0
 42 43  1  0
 41 44  2  0
 36 45  1  0
 45 46  1  0
 46 47  1  0
 47 48  1  0
 48 49  1  0
 49 50  1  0
 50 51  2  0
 51 52  1  0
 52 53  1  0
 50 54  1  0
 54 55  1  0
 55 56  1  0
 56 57  1  0
 57 58  1  0
 58 59  1  0
 59 60  2  0
 60 61  1  0
 61 62  2  0
 62 63  1  0
 63 64  1  0
 64 65  1  0
 63 66  2  0
 58 67  2  0
 67 68  1  0
 68 69  1  0
 69 70  1  0
 70 71  1  0
 71 72  1  0
 72 73  1  0
 73 74  1  0
 74 75  1  0
 75 76  1  0
 76 77  1  0
 74 78  1  0
 78 79  1  0
 71 80  1  0
 80 81  1  0
 67 82  1  0
 82 83  2  0
 83 84  1  0
 83 85  1  0
 85 86  1  0
 85 87  2  0
 87 88  1  0
 88 89  2  0
 89 90  1  0
 90 91  1  0
 91 92  1  0
 92 93  1  0
 90 94  2  0
 94 95  1  0
 95 96  2  0
 94 97  1  0
 87 98  1  0
 98 99  2  3
 99100  1  0
100101  2  0
100102  1  0
102103  2  0
103104  1  0
104105  1  0
104106  2  0
106107  1  0
107108  2  0
108109  1  0
109110  2  3
110111  1  0
111112  3  0
110113  1  0
113114  3  0
 12  2  1  0
 34 18  1  0
 77 35  1  0
 96 82  1  0
109 99  1  0
 11  5  1  0
 27 20  1  0
 44 37  1  0
 76 45  2  0
 96 88  1  0
108102  1  0
 75 47  2  0
 73 48  2  0
 53 49  2  0
 72 54  2  0
 70 55  2  0
 69 57  2  0
 66 59  1  0
  1115  1  0
  6116  1  0
  8117  1  0
  8118  1  0
  8119  1  0
  9120  1  0
 10121  1  0
 22122  1  0
 24123  1  0
 24124  1  0
 25125  1  0
 25126  1  0
 25127  1  0
 26128  1  0
 28129  1  0
 28130  1  0
 29131  1  0
 29132  1  0
 29133  1  0
 30134  1  0
 30135  1  0
 31136  1  0
 31137  1  0
 31138  1  0
 32139  1  0
 38140  1  0
 39141  1  0
 40142  1  0
 42143  1  0
 42144  1  0
 43145  1  0
 43146  1  0
 43147  1  0
 44148  1  0
 60149  1  0
 61150  1  0
 62151  1  0
 64152  1  0
 64153  1  0
 65154  1  0
 65155  1  0
 65156  1  0
 66157  1  0
 78158  1  0
 78159  1  0
 79160  1  0
 79161  1  0
 79162  1  0
 80163  1  0
 80164  1  0
 81165  1  0
 81166  1  0
 81167  1  0
 92168  1  0
 92169  1  0
 93170  1  0
 93171  1  0
 93172  1  0
 97173  1  0
 97174  1  0
 97175  1  0
 98176  1  0
103177  1  0
105178  1  0
105179  1  0
105180  1  0
106181  1  0
107182  1  0
M  END

