
     RDKit          3D

233257  0  0  0  0  0  0  0  0999 V2000
    3.0532   11.2302    2.4380 C   0  0  0  0  0  0  0  0  0  0  0  0
    2.1778   10.9030    1.4569 C   0  0  0  0  0  0  0  0  0  0  0  0
    1.7875    9.5232    1.1122 C   0  0  0  0  0  0  0  0  0  0  0  0
    2.4095    8.4663    1.4015 O   0  0  0  0  0  0  0  0  0  0  0  0
    0.5889    9.5664    0.3164 C   0  0  0  0  0  0  0  0  0  0  0  0
   -0.1944    8.4916   -0.0984 C   0  0  0  0  0  0  0  0  0  0  0  0
   -1.3830    8.7552   -0.7967 C   0  0  0  0  0  0  0  0  0  0  0  0
   -2.2240    7.6171   -1.3030 C   0  0  0  0  0  0  0  0  0  0  0  0
   -1.7533   10.0909   -1.0601 C   0  0  0  0  0  0  0  0  0  0  0  0
   -0.9600   11.1575   -0.6090 C   0  0  0  0  0  0  0  0  0  0  0  0
    0.2419   10.8810    0.0670 C   0  0  0  0  0  0  0  0  0  0  0  0
    1.2459   11.8015    0.6901 C   0  0  0  0  0  0  0  0  0  0  0  0
    1.3047   13.1581    0.5652 C   0  0  0  0  0  0  0  0  0  0  0  0
    2.2994   13.9637    1.2146 C   0  0  0  0  0  0  0  0  0  0  0  0
    3.0939   14.6391    1.7211 N   0  0  0  0  0  0  0  0  0  0  0  0
    0.4259   13.9004   -0.3016 C   0  0  0  0  0  0  0  0  0  0  0  0
   -0.2587   14.5071   -1.0081 N   0  0  0  0  0  0  0  0  0  0  0  0
    3.5562   10.2106    3.3796 C   0  0  0  0  0  0  0  0  0  0  0  0
    2.7207    9.3791    4.1608 C   0  0  0  0  0  0  0  0  0  0  0  0
    1.3271    9.6717    4.4578 N   0  0  0  0  0  0  0  0  0  0  0  0
    0.8118   11.0142    4.3922 C   0  0  0  0  0  0  0  0  0  0  0  0
   -0.3270   11.2946    3.6205 C   0  0  0  0  0  0  0  0  0  0  0  0
   -0.7568   12.6131    3.4505 C   0  0  0  0  0  0  0  0  0  0  0  0
   -0.0646   13.6659    4.0655 C   0  0  0  0  0  0  0  0  0  0  0  0
   -0.4683   15.0862    3.7966 C   0  0  0  0  0  0  0  0  0  0  0  0
    1.0473   13.3840    4.8726 C   0  0  0  0  0  0  0  0  0  0  0  0
    1.4783   12.0641    5.0406 C   0  0  0  0  0  0  0  0  0  0  0  0
    0.4596    8.6671    4.9983 C   0  0  0  0  0  0  0  0  0  0  0  0
   -0.2902    7.8482    4.1455 C   0  0  0  0  0  0  0  0  0  0  0  0
   -1.0935    6.8350    4.6760 C   0  0  0  0  0  0  0  0  0  0  0  0
   -1.1470    6.6302    6.0650 C   0  0  0  0  0  0  0  0  0  0  0  0
   -2.0105    5.5525    6.6428 C   0  0  0  0  0  0  0  0  0  0  0  0
   -0.4096    7.4670    6.9167 C   0  0  0  0  0  0  0  0  0  0  0  0
    0.3937    8.4793    6.3853 C   0  0  0  0  0  0  0  0  0  0  0  0
    3.3627    8.1595    4.4267 C   0  0  0  0  0  0  0  0  0  0  0  0
    2.7697    6.6216    4.6650 S   0  0  0  0  0  0  0  0  0  0  0  0
    4.1665    5.7739    4.1810 C   0  0  0  0  0  0  0  0  0  0  0  0
    5.1601    6.7399    3.8791 C   0  0  0  0  0  0  0  0  0  0  0  0
    6.5818    6.5019    3.9636 N   0  0  0  0  0  0  0  0  0  0  0  0
    7.4393    7.2089    3.0357 C   0  0  0  0  0  0  0  0  0  0  0  0
    7.1458    7.2145    1.6624 C   0  0  0  0  0  0  0  0  0  0  0  0
    7.9262    7.9658    0.7739 C   0  0  0  0  0  0  0  0  0  0  0  0
    9.0121    8.7162    1.2465 C   0  0  0  0  0  0  0  0  0  0  0  0
    9.8324    9.5480    0.3044 C   0  0  0  0  0  0  0  0  0  0  0  0
    9.3006    8.7277    2.6151 C   0  0  0  0  0  0  0  0  0  0  0  0
    8.5104    7.9922    3.5066 C   0  0  0  0  0  0  0  0  0  0  0  0
    7.1376    5.9252    5.1797 C   0  0  0  0  0  0  0  0  0  0  0  0
    6.4044    5.9031    6.3879 C   0  0  0  0  0  0  0  0  0  0  0  0
    6.9339    5.3090    7.5373 C   0  0  0  0  0  0  0  0  0  0  0  0
    8.2149    4.7524    7.5227 C   0  0  0  0  0  0  0  0  0  0  0  0
    8.7679    4.1322    8.7722 C   0  0  0  0  0  0  0  0  0  0  0  0
    8.9772    4.8139    6.3469 C   0  0  0  0  0  0  0  0  0  0  0  0
    8.4416    5.3836    5.1875 C   0  0  0  0  0  0  0  0  0  0  0  0
    4.6434    8.0459    3.9790 C   0  0  0  0  0  0  0  0  0  0  0  0
    5.0578    9.4497    3.1515 S   0  0  0  0  0  0  0  0  0  0  0  0
    3.9811    4.4255    3.5728 C   0  0  0  0  0  0  0  0  0  0  0  0
    4.8262    3.2824    3.5448 C   0  0  0  0  0  0  0  0  0  0  0  0
    6.2897    3.2243    3.6649 C   0  0  0  0  0  0  0  0  0  0  0  0
    7.0641    3.7493    2.6227 C   0  0  0  0  0  0  0  0  0  0  0  0
    8.4077    3.3926    2.4905 C   0  0  0  0  0  0  0  0  0  0  0  0
    8.9774    2.4692    3.3740 C   0  0  0  0  0  0  0  0  0  0  0  0
    8.2114    1.9128    4.4102 C   0  0  0  0  0  0  0  0  0  0  0  0
    8.7685    0.7814    5.2384 C   0  0  0  0  0  0  0  0  0  0  0  0
    9.9856    1.2049    6.0561 C   0  0  0  0  0  0  0  0  0  0  0  0
    6.8702    2.3132    4.5636 C   0  0  0  0  0  0  0  0  0  0  0  0
    4.1411    2.1700    3.0359 C   0  0  0  0  0  0  0  0  0  0  0  0
    4.5727    0.5294    2.8081 S   0  0  0  0  0  0  0  0  0  0  0  0
    3.0641    0.2091    2.1059 C   0  0  0  0  0  0  0  0  0  0  0  0
    2.3078   -0.8589    1.7280 C   0  0  0  0  0  0  0  0  0  0  0  0
    2.5000   -2.2390    1.8791 C   0  0  0  0  0  0  0  0  0  0  0  0
    1.4097   -3.1174    1.5932 C   0  0  0  0  0  0  0  0  0  0  0  0
    1.6364   -4.4451    1.7464 N   0  0  0  0  0  0  0  0  0  0  0  0
    3.2084   -4.4020    2.2662 S   0  0  0  0  0  0  0  0  0  0  0  0
    3.6521   -2.8074    2.3095 N   0  0  0  0  0  0  0  0  0  0  0  0
    0.2035   -2.5661    1.1328 C   0  0  0  0  0  0  0  0  0  0  0  0
   -0.8723   -3.1527    0.5312 C   0  0  0  0  0  0  0  0  0  0  0  0
   -1.2497   -4.7196   -0.0013 S   0  0  0  0  0  0  0  0  0  0  0  0
   -2.3374   -4.0846   -1.1521 C   0  0  0  0  0  0  0  0  0  0  0  0
   -3.0424   -4.6753   -2.1921 C   0  0  0  0  0  0  0  0  0  0  0  0
   -3.1356   -6.1349   -2.4155 C   0  0  0  0  0  0  0  0  0  0  0  0
   -4.3936   -6.7536   -2.4973 C   0  0  0  0  0  0  0  0  0  0  0  0
   -4.4914   -8.1241   -2.7389 C   0  0  0  0  0  0  0  0  0  0  0  0
   -3.3356   -8.8948   -2.8856 C   0  0  0  0  0  0  0  0  0  0  0  0
   -2.0689   -8.2954   -2.8035 C   0  0  0  0  0  0  0  0  0  0  0  0
   -0.8274   -9.1363   -2.9214 C   0  0  0  0  0  0  0  0  0  0  0  0
   -0.3241   -9.5622   -1.5487 C   0  0  0  0  0  0  0  0  0  0  0  0
   -1.9744   -6.9140   -2.5622 C   0  0  0  0  0  0  0  0  0  0  0  0
   -3.6115   -3.6934   -3.0242 C   0  0  0  0  0  0  0  0  0  0  0  0
   -3.2387   -2.1337   -2.4520 S   0  0  0  0  0  0  0  0  0  0  0  0
   -2.3568   -2.7141   -1.1384 C   0  0  0  0  0  0  0  0  0  0  0  0
   -1.5278   -2.1760   -0.1630 C   0  0  0  0  0  0  0  0  0  0  0  0
   -0.9433   -0.9578   -0.0177 N   0  0  0  0  0  0  0  0  0  0  0  0
    0.0612   -1.1953    0.8847 C   0  0  0  0  0  0  0  0  0  0  0  0
    1.0794   -0.3199    1.3218 C   0  0  0  0  0  0  0  0  0  0  0  0
    1.0174    1.0253    1.5844 N   0  0  0  0  0  0  0  0  0  0  0  0
    2.2660    1.3021    2.0408 C   0  0  0  0  0  0  0  0  0  0  0  0
    2.8657    2.4077    2.6098 C   0  0  0  0  0  0  0  0  0  0  0  0
    2.4584    3.9877    2.9071 S   0  0  0  0  0  0  0  0  0  0  0  0
   -0.1813    1.8421    1.8492 C   0  0  0  0  0  0  0  0  0  0  0  0
   -0.5738    1.7776    3.3179 C   0  0  0  0  0  0  0  0  0  0  0  0
   -0.9347    0.0859   -1.0614 C   0  0  0  0  0  0  0  0  0  0  0  0
   -0.1275   -0.3625   -2.2805 C   0  0  0  0  0  0  0  0  0  0  0  0
   -4.2164   -3.9937   -4.3226 C   0  0  0  0  0  0  0  0  0  0  0  0
   -5.5587   -4.3589   -4.4371 C   0  0  0  0  0  0  0  0  0  0  0  0
   -5.7899   -5.3384   -5.4246 C   0  0  0  0  0  0  0  0  0  0  0  0
   -6.9791   -6.0914   -5.5721 C   0  0  0  0  0  0  0  0  0  0  0  0
   -8.2323   -5.6870   -4.9003 C   0  0  0  0  0  0  0  0  0  0  0  0
   -8.7545   -4.3937   -4.8871 C   0  0  0  0  0  0  0  0  0  0  0  0
   -9.9427   -4.2822   -4.1609 C   0  0  0  0  0  0  0  0  0  0  0  0
  -10.3629   -5.4866   -3.6178 C   0  0  0  0  0  0  0  0  0  0  0  0
  -11.8515   -5.7402   -2.6518 S   0  0  0  0  0  0  0  0  0  0  0  0
  -12.8914   -6.2109   -4.0795 C   0  0  0  0  0  0  0  0  0  0  0  0
  -13.5474   -4.9732   -4.6816 C   0  0  0  0  0  0  0  0  0  0  0  0
   -9.2569   -6.6872   -4.0121 S   0  0  0  0  0  0  0  0  0  0  0  0
   -6.8801   -7.2769   -6.3286 C   0  0  0  0  0  0  0  0  0  0  0  0
   -5.6956   -7.6584   -6.9747 C   0  0  0  0  0  0  0  0  0  0  0  0
   -4.5493   -6.8494   -6.9114 C   0  0  0  0  0  0  0  0  0  0  0  0
   -3.2734   -7.2779   -7.5040 C   0  0  0  0  0  0  0  0  0  0  0  0
   -2.1648   -7.7389   -6.8022 C   0  0  0  0  0  0  0  0  0  0  0  0
   -1.1046   -8.1032   -7.6380 C   0  0  0  0  0  0  0  0  0  0  0  0
   -1.3883   -7.9250   -8.9859 C   0  0  0  0  0  0  0  0  0  0  0  0
   -0.2670   -8.2233  -10.3530 S   0  0  0  0  0  0  0  0  0  0  0  0
   -0.8230   -9.9367  -10.6479 C   0  0  0  0  0  0  0  0  0  0  0  0
   -0.0235  -10.9115   -9.7919 C   0  0  0  0  0  0  0  0  0  0  0  0
   -2.9507   -7.3303   -9.1523 S   0  0  0  0  0  0  0  0  0  0  0  0
   -4.6240   -5.7077   -6.1007 C   0  0  0  0  0  0  0  0  0  0  0  0
   -3.3340   -4.8233   -5.4946 S   0  0  0  0  0  0  0  0  0  0  0  0
   -5.7457   -8.9569   -7.5068 C   0  0  0  0  0  0  0  0  0  0  0  0
   -6.9477   -9.6011   -7.2414 C   0  0  0  0  0  0  0  0  0  0  0  0
   -7.9826   -8.5481   -6.4315 S   0  0  0  0  0  0  0  0  0  0  0  0
   -7.1916  -11.0422   -7.4086 C   0  0  0  0  0  0  0  0  0  0  0  0
   -6.3836  -11.9813   -6.8704 C   0  0  0  0  0  0  0  0  0  0  0  0
   -5.3191  -11.7181   -5.8883 C   0  0  0  0  0  0  0  0  0  0  0  0
   -5.0908  -10.6247   -5.3086 O   0  0  0  0  0  0  0  0  0  0  0  0
   -4.6285  -12.9537   -5.6014 C   0  0  0  0  0  0  0  0  0  0  0  0
   -3.4708  -13.1246   -4.8390 C   0  0  0  0  0  0  0  0  0  0  0  0
   -2.8827  -14.3966   -4.7857 C   0  0  0  0  0  0  0  0  0  0  0  0
   -1.5964  -14.6016   -4.0395 C   0  0  0  0  0  0  0  0  0  0  0  0
   -3.4503  -15.4568   -5.5237 C   0  0  0  0  0  0  0  0  0  0  0  0
   -4.6115  -15.2556   -6.2882 C   0  0  0  0  0  0  0  0  0  0  0  0
   -5.2211  -13.9900   -6.2974 C   0  0  0  0  0  0  0  0  0  0  0  0
   -6.3835  -13.4681   -7.0865 C   0  0  0  0  0  0  0  0  0  0  0  0
   -7.2613  -14.2078   -7.8145 C   0  0  0  0  0  0  0  0  0  0  0  0
   -8.2716  -13.6352   -8.6639 C   0  0  0  0  0  0  0  0  0  0  0  0
   -9.0805  -13.1902   -9.3591 N   0  0  0  0  0  0  0  0  0  0  0  0
   -7.2819  -15.6453   -7.7791 C   0  0  0  0  0  0  0  0  0  0  0  0
   -7.3135  -16.8025   -7.7561 N   0  0  0  0  0  0  0  0  0  0  0  0
    3.3026   12.2433    2.6788 H   0  0  0  0  0  0  0  0  0  0  0  0
    0.1090    7.4753    0.1274 H   0  0  0  0  0  0  0  0  0  0  0  0
   -3.2881    7.9201   -1.3690 H   0  0  0  0  0  0  0  0  0  0  0  0
   -1.8700    7.3140   -2.3092 H   0  0  0  0  0  0  0  0  0  0  0  0
   -2.1579    6.7423   -0.6203 H   0  0  0  0  0  0  0  0  0  0  0  0
   -2.6725   10.3036   -1.5925 H   0  0  0  0  0  0  0  0  0  0  0  0
   -1.3133   12.1575   -0.7843 H   0  0  0  0  0  0  0  0  0  0  0  0
   -0.8493   10.5000    3.1022 H   0  0  0  0  0  0  0  0  0  0  0  0
   -1.6030   12.8149    2.8093 H   0  0  0  0  0  0  0  0  0  0  0  0
   -0.0127   15.7812    4.5334 H   0  0  0  0  0  0  0  0  0  0  0  0
   -1.5738   15.1870    3.8616 H   0  0  0  0  0  0  0  0  0  0  0  0
   -0.1392   15.3793    2.7762 H   0  0  0  0  0  0  0  0  0  0  0  0
    1.5973   14.1831    5.3522 H   0  0  0  0  0  0  0  0  0  0  0  0
    2.3577   11.8607    5.6418 H   0  0  0  0  0  0  0  0  0  0  0  0
   -0.2421    7.9884    3.0716 H   0  0  0  0  0  0  0  0  0  0  0  0
   -1.6681    6.2139    4.0043 H   0  0  0  0  0  0  0  0  0  0  0  0
   -1.4734    5.0361    7.4710 H   0  0  0  0  0  0  0  0  0  0  0  0
   -2.2781    4.7900    5.8766 H   0  0  0  0  0  0  0  0  0  0  0  0
   -2.9467    5.9995    7.0407 H   0  0  0  0  0  0  0  0  0  0  0  0
   -0.4473    7.3359    7.9919 H   0  0  0  0  0  0  0  0  0  0  0  0
    0.9765    9.1098    7.0475 H   0  0  0  0  0  0  0  0  0  0  0  0
    6.2933    6.6660    1.2858 H   0  0  0  0  0  0  0  0  0  0  0  0
    7.6750    7.9568   -0.2800 H   0  0  0  0  0  0  0  0  0  0  0  0
    9.5236   10.6110    0.3840 H   0  0  0  0  0  0  0  0  0  0  0  0
    9.7033    9.2113   -0.7463 H   0  0  0  0  0  0  0  0  0  0  0  0
   10.9106    9.4641    0.5616 H   0  0  0  0  0  0  0  0  0  0  0  0
   10.1209    9.3181    3.0006 H   0  0  0  0  0  0  0  0  0  0  0  0
    8.7226    8.0620    4.5648 H   0  0  0  0  0  0  0  0  0  0  0  0
    5.4276    6.3572    6.4589 H   0  0  0  0  0  0  0  0  0  0  0  0
    6.3436    5.2984    8.4441 H   0  0  0  0  0  0  0  0  0  0  0  0
    8.0842    3.3324    9.1269 H   0  0  0  0  0  0  0  0  0  0  0  0
    9.7691    3.6857    8.6024 H   0  0  0  0  0  0  0  0  0  0  0  0
    8.8551    4.9075    9.5613 H   0  0  0  0  0  0  0  0  0  0  0  0
    9.9853    4.4209    6.3200 H   0  0  0  0  0  0  0  0  0  0  0  0
    9.0454    5.4007    4.2926 H   0  0  0  0  0  0  0  0  0  0  0  0
    6.6086    4.3791    1.8670 H   0  0  0  0  0  0  0  0  0  0  0  0
    8.9959    3.7948    1.6752 H   0  0  0  0  0  0  0  0  0  0  0  0
   10.0005    2.1590    3.2175 H   0  0  0  0  0  0  0  0  0  0  0  0
    7.9963    0.3853    5.9309 H   0  0  0  0  0  0  0  0  0  0  0  0
    9.0626   -0.0537    4.5634 H   0  0  0  0  0  0  0  0  0  0  0  0
   10.8112    1.5426    5.3924 H   0  0  0  0  0  0  0  0  0  0  0  0
    9.7198    2.0258    6.7506 H   0  0  0  0  0  0  0  0  0  0  0  0
   10.3491    0.3362    6.6472 H   0  0  0  0  0  0  0  0  0  0  0  0
    6.2503    1.8461    5.3141 H   0  0  0  0  0  0  0  0  0  0  0  0
   -5.2959   -6.1778   -2.3613 H   0  0  0  0  0  0  0  0  0  0  0  0
   -5.4634   -8.5972   -2.8023 H   0  0  0  0  0  0  0  0  0  0  0  0
   -3.4293   -9.9609   -3.0607 H   0  0  0  0  0  0  0  0  0  0  0  0
   -0.0267   -8.5652   -3.4484 H   0  0  0  0  0  0  0  0  0  0  0  0
   -1.0379  -10.0431   -3.5278 H   0  0  0  0  0  0  0  0  0  0  0  0
    0.5450  -10.2444   -1.6610 H   0  0  0  0  0  0  0  0  0  0  0  0
   -0.0028   -8.6753   -0.9646 H   0  0  0  0  0  0  0  0  0  0  0  0
   -1.1242  -10.0904   -0.9853 H   0  0  0  0  0  0  0  0  0  0  0  0
   -1.0003   -6.4451   -2.5032 H   0  0  0  0  0  0  0  0  0  0  0  0
    0.0147    2.8952    1.5566 H   0  0  0  0  0  0  0  0  0  0  0  0
   -1.0497    1.4785    1.2753 H   0  0  0  0  0  0  0  0  0  0  0  0
   -1.4511    2.4354    3.4924 H   0  0  0  0  0  0  0  0  0  0  0  0
    0.2589    2.1218    3.9672 H   0  0  0  0  0  0  0  0  0  0  0  0
   -0.8456    0.7368    3.5946 H   0  0  0  0  0  0  0  0  0  0  0  0
   -0.4497    1.0083   -0.7094 H   0  0  0  0  0  0  0  0  0  0  0  0
   -1.9735    0.3395   -1.3527 H   0  0  0  0  0  0  0  0  0  0  0  0
    0.8833   -0.7042   -1.9696 H   0  0  0  0  0  0  0  0  0  0  0  0
   -0.0245    0.4869   -2.9953 H   0  0  0  0  0  0  0  0  0  0  0  0
   -0.6237   -1.1961   -2.8135 H   0  0  0  0  0  0  0  0  0  0  0  0
   -6.2935   -4.0849   -3.6946 H   0  0  0  0  0  0  0  0  0  0  0  0
   -8.2923   -3.5585   -5.3952 H   0  0  0  0  0  0  0  0  0  0  0  0
  -10.4851   -3.3522   -4.0419 H   0  0  0  0  0  0  0  0  0  0  0  0
  -12.2959   -6.7385   -4.8536 H   0  0  0  0  0  0  0  0  0  0  0  0
  -13.6851   -6.8975   -3.7186 H   0  0  0  0  0  0  0  0  0  0  0  0
  -14.2156   -5.2628   -5.5241 H   0  0  0  0  0  0  0  0  0  0  0  0
  -12.7742   -4.2773   -5.0721 H   0  0  0  0  0  0  0  0  0  0  0  0
  -14.1551   -4.4514   -3.9110 H   0  0  0  0  0  0  0  0  0  0  0  0
   -2.1320   -7.8198   -5.7251 H   0  0  0  0  0  0  0  0  0  0  0  0
   -0.1633   -8.4878   -7.2699 H   0  0  0  0  0  0  0  0  0  0  0  0
   -1.9110  -10.0507  -10.4414 H   0  0  0  0  0  0  0  0  0  0  0  0
   -0.6522  -10.1771  -11.7190 H   0  0  0  0  0  0  0  0  0  0  0  0
    1.0605  -10.8110  -10.0140 H   0  0  0  0  0  0  0  0  0  0  0  0
   -0.1956  -10.7082   -8.7166 H   0  0  0  0  0  0  0  0  0  0  0  0
   -0.3461  -11.9491  -10.0156 H   0  0  0  0  0  0  0  0  0  0  0  0
   -4.9045   -9.4558   -7.9740 H   0  0  0  0  0  0  0  0  0  0  0  0
   -8.0613  -11.2966   -7.9838 H   0  0  0  0  0  0  0  0  0  0  0  0
   -3.0182  -12.2778   -4.3344 H   0  0  0  0  0  0  0  0  0  0  0  0
   -1.5811  -15.5987   -3.5486 H   0  0  0  0  0  0  0  0  0  0  0  0
   -1.4697  -13.8291   -3.2503 H   0  0  0  0  0  0  0  0  0  0  0  0
   -0.7446  -14.5299   -4.7500 H   0  0  0  0  0  0  0  0  0  0  0  0
   -2.9754  -16.4297   -5.5310 H   0  0  0  0  0  0  0  0  0  0  0  0
   -4.9733  -16.0740   -6.8832 H   0  0  0  0  0  0  0  0  0  0  0  0
  1  2  2  3
  2  3  1  0
  3  4  2  0
  3  5  1  0
  5  6  2  0
  6  7  1  0
  7  8  1  0
  7  9  2  0
  9 10  1  0
 10 11  2  0
 11 12  1  0
 12 13  2  3
 13 14  1  0
 14 15  3  0
 13 16  1  0
 16 17  3  0
  1 18  1  0
 18 19  2  0
 19 20  1  0
 20 21  1  0
 21 22  2  0
 22 23  1  0
 23 24  2  0
 24 25  1  0
 24 26  1  0
 26 27  2  0
 20 28  1  0
 28 29  2  0
 29 30  1  0
 30 31  2  0
 31 32  1  0
 31 33  1  0
 33 34  2  0
 19 35  1  0
 35 36  1  0
 36 37  1  0
 37 38  2  0
 38 39  1  0
 39 40  1  0
 40 41  2  0
 41 42  1  0
 42 43  2  0
 43 44  1  0
 43 45  1  0
 45 46  2  0
 39 47  1  0
 47 48  2  0
 48 49  1  0
 49 50  2  0
 50 51  1  0
 50 52  1  0
 52 53  2  0
 38 54  1  0
 54 55  1  0
 37 56  1  0
 56 57  2  0
 57 58  1  0
 58 59  2  0
 59 60  1  0
 60 61  2  0
 61 62  1  0
 62 63  1  0
 63 64  1  0
 62 65  2  0
 57 66  1  0
 66 67  1  0
 67 68  1  0
 68 69  1  0
 69 70  1  0
 70 71  1  0
 71 72  2  0
 72 73  1  0
 73 74  1  0
 71 75  1  0
 75 76  1  0
 76 77  1  0
 77 78  1  0
 78 79  1  0
 79 80  1  0
 80 81  2  0
 81 82  1  0
 82 83  2  0
 83 84  1  0
 84 85  1  0
 85 86  1  0
 84 87  2  0
 79 88  2  0
 88 89  1  0
 89 90  1  0
 90 91  1  0
 91 92  1  0
 92 93  1  0
 93 94  1  0
 94 95  1  0
 95 96  1  0
 96 97  1  0
 97 98  1  0
 95 99  1  0
 99100  1  0
 92101  1  0
101102  1  0
 88103  1  0
103104  2  0
104105  1  0
105106  2  0
106107  1  0
107108  2  0
108109  1  0
109110  2  0
110111  1  0
111112  1  0
112113  1  0
110114  1  0
106115  1  0
115116  2  0
116117  1  0
117118  1  0
118119  2  0
119120  1  0
120121  2  0
121122  1  0
122123  1  0
123124  1  0
121125  1  0
117126  2  0
126127  1  0
116128  1  0
128129  2  0
129130  1  0
129131  1  0
131132  2  3
132133  1  0
133134  2  0
133135  1  0
135136  2  0
136137  1  0
137138  1  0
137139  2  0
139140  1  0
140141  2  0
141142  1  0
142143  2  3
143144  1  0
144145  3  0
143146  1  0
146147  3  0
 12  2  1  0
 55 18  1  0
 98 56  1  0
127103  1  0
142132  1  0
 11  5  1  0
 27 21  1  0
 34 28  1  0
 54 35  2  0
 65 58  1  0
 97 66  2  0
126105  1  0
141135  1  0
 46 40  1  0
 53 47  1  0
 96 68  2  0
114107  1  0
130115  1  0
 94 69  2  0
125118  1  0
 74 70  2  0
 93 75  2  0
 91 76  2  0
 90 78  2  0
 87 80  1  0
  1148  1  0
  6149  1  0
  8150  1  0
  8151  1  0
  8152  1  0
  9153  1  0
 10154  1  0
 22155  1  0
 23156  1  0
 25157  1  0
 25158  1  0
 25159  1  0
 26160  1  0
 27161  1  0
 29162  1  0
 30163  1  0
 32164  1  0
 32165  1  0
 32166  1  0
 33167  1  0
 34168  1  0
 41169  1  0
 42170  1  0
 44171  1  0
 44172  1  0
 44173  1  0
 45174  1  0
 46175  1  0
 48176  1  0
 49177  1  0
 51178  1  0
 51179  1  0
 51180  1  0
 52181  1  0
 53182  1  0
 59183  1  0
 60184  1  0
 61185  1  0
 63186  1  0
 63187  1  0
 64188  1  0
 64189  1  0
 64190  1  0
 65191  1  0
 81192  1  0
 82193  1  0
 83194  1  0
 85195  1  0
 85196  1  0
 86197  1  0
 86198  1  0
 86199  1  0
 87200  1  0
 99201  1  0
 99202  1  0
100203  1  0
100204  1  0
100205  1  0
101206  1  0
101207  1  0
102208  1  0
102209  1  0
102210  1  0
104211  1  0
108212  1  0
109213  1  0
112214  1  0
112215  1  0
113216  1  0
113217  1  0
113218  1  0
119219  1  0
120220  1  0
123221  1  0
123222  1  0
124223  1  0
124224  1  0
124225  1  0
128226  1  0
131227  1  0
136228  1  0
138229  1  0
138230  1  0
138231  1  0
139232  1  0
140233  1  0
M  END

