
     RDKit          3D

143158  0  0  0  0  0  0  0  0999 V2000
    2.0267   -7.4945    3.1186 C   0  0  0  0  0  0  0  0  0  0  0  0
    2.7657   -6.4117    3.4424 C   0  0  0  0  0  0  0  0  0  0  0  0
    2.2488   -5.0336    3.5274 C   0  0  0  0  0  0  0  0  0  0  0  0
    1.2067   -4.5873    2.9766 O   0  0  0  0  0  0  0  0  0  0  0  0
    3.1506   -4.2491    4.3365 C   0  0  0  0  0  0  0  0  0  0  0  0
    3.0537   -2.8963    4.6669 C   0  0  0  0  0  0  0  0  0  0  0  0
    4.1015   -2.3001    5.3920 C   0  0  0  0  0  0  0  0  0  0  0  0
    4.0221   -0.8453    5.7577 C   0  0  0  0  0  0  0  0  0  0  0  0
    5.2142   -3.0841    5.7794 C   0  0  0  0  0  0  0  0  0  0  0  0
    5.2714   -4.4539    5.4569 C   0  0  0  0  0  0  0  0  0  0  0  0
    4.2142   -5.0322    4.7392 C   0  0  0  0  0  0  0  0  0  0  0  0
    4.0759   -6.4014    4.1744 C   0  0  0  0  0  0  0  0  0  0  0  0
    4.8898   -7.4543    4.4026 C   0  0  0  0  0  0  0  0  0  0  0  0
    5.6940   -7.5361    5.5898 C   0  0  0  0  0  0  0  0  0  0  0  0
    6.3238   -7.6277    6.5571 N   0  0  0  0  0  0  0  0  0  0  0  0
    4.9139   -8.5977    3.5331 C   0  0  0  0  0  0  0  0  0  0  0  0
    4.9690   -9.5144    2.8262 N   0  0  0  0  0  0  0  0  0  0  0  0
    0.6067   -7.3725    2.7479 C   0  0  0  0  0  0  0  0  0  0  0  0
   -0.3726   -7.4702    3.7523 C   0  0  0  0  0  0  0  0  0  0  0  0
   -0.0323   -7.8661    5.0054 F   0  0  0  0  0  0  0  0  0  0  0  0
   -1.6762   -7.0161    3.5062 C   0  0  0  0  0  0  0  0  0  0  0  0
   -2.5801   -6.9916    4.5229 F   0  0  0  0  0  0  0  0  0  0  0  0
   -2.0060   -6.4701    2.2522 C   0  0  0  0  0  0  0  0  0  0  0  0
   -1.0591   -6.4956    1.2144 C   0  0  0  0  0  0  0  0  0  0  0  0
   -1.3442   -5.9407    0.0093 F   0  0  0  0  0  0  0  0  0  0  0  0
    0.2423   -6.9542    1.4613 C   0  0  0  0  0  0  0  0  0  0  0  0
    1.1818   -6.8487    0.4843 F   0  0  0  0  0  0  0  0  0  0  0  0
   -3.1329   -5.5352    2.1518 C   0  0  0  0  0  0  0  0  0  0  0  0
   -4.3142   -5.6880    1.4082 C   0  0  0  0  0  0  0  0  0  0  0  0
   -4.7760   -6.9466    0.8106 C   0  0  0  0  0  0  0  0  0  0  0  0
   -4.3818   -7.2980   -0.4886 C   0  0  0  0  0  0  0  0  0  0  0  0
   -4.8685   -8.4712   -1.0692 C   0  0  0  0  0  0  0  0  0  0  0  0
   -5.7549   -9.2893   -0.3621 C   0  0  0  0  0  0  0  0  0  0  0  0
   -6.1599   -8.9435    0.9358 C   0  0  0  0  0  0  0  0  0  0  0  0
   -7.1541   -9.8042    1.6727 C   0  0  0  0  0  0  0  0  0  0  0  0
   -8.5822   -9.3675    1.3638 C   0  0  0  0  0  0  0  0  0  0  0  0
   -5.6701   -7.7626    1.5151 C   0  0  0  0  0  0  0  0  0  0  0  0
   -4.9665   -4.4609    1.2439 C   0  0  0  0  0  0  0  0  0  0  0  0
   -6.1633   -3.9482    0.1519 S   0  0  0  0  0  0  0  0  0  0  0  0
   -5.8650   -2.3110    0.5090 C   0  0  0  0  0  0  0  0  0  0  0  0
   -5.9210   -1.1630   -0.2322 C   0  0  0  0  0  0  0  0  0  0  0  0
   -6.4826   -0.9731   -1.5029 C   0  0  0  0  0  0  0  0  0  0  0  0
   -6.0768    0.1522   -2.2756 C   0  0  0  0  0  0  0  0  0  0  0  0
   -6.5943    0.2676   -3.5250 N   0  0  0  0  0  0  0  0  0  0  0  0
   -7.5366   -1.0941   -3.5555 S   0  0  0  0  0  0  0  0  0  0  0  0
   -7.3411   -1.8440   -2.0895 N   0  0  0  0  0  0  0  0  0  0  0  0
   -5.1692    1.0545   -1.7191 C   0  0  0  0  0  0  0  0  0  0  0  0
   -4.5143    2.1173   -2.2752 C   0  0  0  0  0  0  0  0  0  0  0  0
   -4.0584    2.5984   -3.8417 S   0  0  0  0  0  0  0  0  0  0  0  0
   -2.7579    3.5139   -3.2212 C   0  0  0  0  0  0  0  0  0  0  0  0
   -1.6153    4.0626   -3.8157 C   0  0  0  0  0  0  0  0  0  0  0  0
   -1.3538    4.0837   -5.2600 C   0  0  0  0  0  0  0  0  0  0  0  0
   -1.7682    5.1794   -6.0291 C   0  0  0  0  0  0  0  0  0  0  0  0
   -1.4023    5.2670   -7.3744 C   0  0  0  0  0  0  0  0  0  0  0  0
   -0.6383    4.2519   -7.9598 C   0  0  0  0  0  0  0  0  0  0  0  0
   -0.2512    3.1323   -7.2082 C   0  0  0  0  0  0  0  0  0  0  0  0
    0.5857    2.0477   -7.8327 C   0  0  0  0  0  0  0  0  0  0  0  0
    2.0556    2.2122   -7.4648 C   0  0  0  0  0  0  0  0  0  0  0  0
   -0.6002    3.0579   -5.8526 C   0  0  0  0  0  0  0  0  0  0  0  0
   -0.6351    4.3463   -2.8497 C   0  0  0  0  0  0  0  0  0  0  0  0
   -1.1833    3.8900   -1.2996 S   0  0  0  0  0  0  0  0  0  0  0  0
   -2.6842    3.3994   -1.8518 C   0  0  0  0  0  0  0  0  0  0  0  0
   -3.6808    2.5988   -1.3258 C   0  0  0  0  0  0  0  0  0  0  0  0
   -3.7639    1.9364   -0.1519 N   0  0  0  0  0  0  0  0  0  0  0  0
   -4.6388    0.9086   -0.4174 C   0  0  0  0  0  0  0  0  0  0  0  0
   -4.9506   -0.2869    0.3104 C   0  0  0  0  0  0  0  0  0  0  0  0
   -4.2509   -0.9344    1.3070 N   0  0  0  0  0  0  0  0  0  0  0  0
   -4.8438   -2.1557    1.3938 C   0  0  0  0  0  0  0  0  0  0  0  0
   -4.3365   -3.3847    1.8189 C   0  0  0  0  0  0  0  0  0  0  0  0
   -2.9212   -3.8989    2.5387 S   0  0  0  0  0  0  0  0  0  0  0  0
   -2.9328   -0.6285    1.8882 C   0  0  0  0  0  0  0  0  0  0  0  0
   -1.8187   -0.7770    0.8537 C   0  0  0  0  0  0  0  0  0  0  0  0
   -3.3344    2.5460    1.1164 C   0  0  0  0  0  0  0  0  0  0  0  0
   -4.4514    2.5533    2.1623 C   0  0  0  0  0  0  0  0  0  0  0  0
    0.7591    4.7292   -3.1288 C   0  0  0  0  0  0  0  0  0  0  0  0
    1.7941    3.8123   -2.8842 C   0  0  0  0  0  0  0  0  0  0  0  0
    1.5171    2.5608   -2.4408 F   0  0  0  0  0  0  0  0  0  0  0  0
    3.1239    4.1875   -3.0877 C   0  0  0  0  0  0  0  0  0  0  0  0
    4.1114    3.2918   -2.8283 F   0  0  0  0  0  0  0  0  0  0  0  0
    3.4326    5.4822   -3.5235 C   0  0  0  0  0  0  0  0  0  0  0  0
    2.4008    6.3936   -3.8036 C   0  0  0  0  0  0  0  0  0  0  0  0
    2.6926    7.6489   -4.2275 F   0  0  0  0  0  0  0  0  0  0  0  0
    1.0655    6.0130   -3.6131 C   0  0  0  0  0  0  0  0  0  0  0  0
    0.0724    6.9105   -3.8475 F   0  0  0  0  0  0  0  0  0  0  0  0
    4.8414    5.9032   -3.5979 C   0  0  0  0  0  0  0  0  0  0  0  0
    5.5467    6.2121   -2.4955 C   0  0  0  0  0  0  0  0  0  0  0  0
    5.0103    6.2179   -1.1266 C   0  0  0  0  0  0  0  0  0  0  0  0
    3.7957    6.3020   -0.7964 O   0  0  0  0  0  0  0  0  0  0  0  0
    6.1138    6.1103   -0.2027 C   0  0  0  0  0  0  0  0  0  0  0  0
    6.0592    5.9316    1.1811 C   0  0  0  0  0  0  0  0  0  0  0  0
    7.2609    5.7186    1.8802 C   0  0  0  0  0  0  0  0  0  0  0  0
    7.2292    5.4887    3.3618 C   0  0  0  0  0  0  0  0  0  0  0  0
    8.4793    5.6576    1.1688 C   0  0  0  0  0  0  0  0  0  0  0  0
    8.5090    5.8359   -0.2239 C   0  0  0  0  0  0  0  0  0  0  0  0
    7.3068    6.0897   -0.9055 C   0  0  0  0  0  0  0  0  0  0  0  0
    7.0337    6.2739   -2.3624 C   0  0  0  0  0  0  0  0  0  0  0  0
    7.9256    6.6167   -3.3289 C   0  0  0  0  0  0  0  0  0  0  0  0
    9.3411    6.6633   -3.0886 C   0  0  0  0  0  0  0  0  0  0  0  0
   10.4881    6.6693   -2.9017 N   0  0  0  0  0  0  0  0  0  0  0  0
    7.5106    7.0339   -4.6423 C   0  0  0  0  0  0  0  0  0  0  0  0
    7.1807    7.3750   -5.6995 N   0  0  0  0  0  0  0  0  0  0  0  0
    2.4072   -8.4949    3.2646 H   0  0  0  0  0  0  0  0  0  0  0  0
    2.1977   -2.3076    4.3439 H   0  0  0  0  0  0  0  0  0  0  0  0
    3.7559   -0.2445    4.8640 H   0  0  0  0  0  0  0  0  0  0  0  0
    4.9946   -0.4749    6.1491 H   0  0  0  0  0  0  0  0  0  0  0  0
    3.2468   -0.7064    6.5397 H   0  0  0  0  0  0  0  0  0  0  0  0
    6.0256   -2.6385    6.3381 H   0  0  0  0  0  0  0  0  0  0  0  0
    6.1456   -5.0116    5.7408 H   0  0  0  0  0  0  0  0  0  0  0  0
   -3.7084   -6.6599   -1.0496 H   0  0  0  0  0  0  0  0  0  0  0  0
   -4.5611   -8.7428   -2.0718 H   0  0  0  0  0  0  0  0  0  0  0  0
   -6.1399  -10.1873   -0.8338 H   0  0  0  0  0  0  0  0  0  0  0  0
   -7.0240  -10.8664    1.3753 H   0  0  0  0  0  0  0  0  0  0  0  0
   -6.9797   -9.7439    2.7689 H   0  0  0  0  0  0  0  0  0  0  0  0
   -9.2931  -10.1318    1.7354 H   0  0  0  0  0  0  0  0  0  0  0  0
   -8.8016   -8.3988    1.8584 H   0  0  0  0  0  0  0  0  0  0  0  0
   -8.7283   -9.2557    0.2691 H   0  0  0  0  0  0  0  0  0  0  0  0
   -5.9847   -7.4737    2.5127 H   0  0  0  0  0  0  0  0  0  0  0  0
   -2.3332    5.9898   -5.5772 H   0  0  0  0  0  0  0  0  0  0  0  0
   -1.6967    6.1274   -7.9593 H   0  0  0  0  0  0  0  0  0  0  0  0
   -0.3542    4.3356   -9.0051 H   0  0  0  0  0  0  0  0  0  0  0  0
    0.4865    2.0690   -8.9413 H   0  0  0  0  0  0  0  0  0  0  0  0
    0.2306    1.0532   -7.4888 H   0  0  0  0  0  0  0  0  0  0  0  0
    2.6596    1.4282   -7.9695 H   0  0  0  0  0  0  0  0  0  0  0  0
    2.4333    3.2050   -7.7912 H   0  0  0  0  0  0  0  0  0  0  0  0
    2.1947    2.1100   -6.3684 H   0  0  0  0  0  0  0  0  0  0  0  0
   -0.2722    2.2177   -5.2556 H   0  0  0  0  0  0  0  0  0  0  0  0
   -2.7231   -1.2968    2.7392 H   0  0  0  0  0  0  0  0  0  0  0  0
   -2.9315    0.3382    2.3855 H   0  0  0  0  0  0  0  0  0  0  0  0
   -1.8953    0.0105    0.0796 H   0  0  0  0  0  0  0  0  0  0  0  0
   -1.8873   -1.7677    0.3659 H   0  0  0  0  0  0  0  0  0  0  0  0
   -0.8351   -0.6916    1.3519 H   0  0  0  0  0  0  0  0  0  0  0  0
   -3.0882    3.6140    0.9425 H   0  0  0  0  0  0  0  0  0  0  0  0
   -2.3826    2.1073    1.4642 H   0  0  0  0  0  0  0  0  0  0  0  0
   -4.8346    1.5345    2.3811 H   0  0  0  0  0  0  0  0  0  0  0  0
   -5.3058    3.1665    1.7979 H   0  0  0  0  0  0  0  0  0  0  0  0
   -4.0726    2.9885    3.1153 H   0  0  0  0  0  0  0  0  0  0  0  0
    5.3334    5.7450   -4.5480 H   0  0  0  0  0  0  0  0  0  0  0  0
    5.1079    5.9334    1.6993 H   0  0  0  0  0  0  0  0  0  0  0  0
    8.2465    5.5786    3.8038 H   0  0  0  0  0  0  0  0  0  0  0  0
    6.8355    4.4715    3.5751 H   0  0  0  0  0  0  0  0  0  0  0  0
    6.5702    6.2390    3.8501 H   0  0  0  0  0  0  0  0  0  0  0  0
    9.4058    5.4590    1.6888 H   0  0  0  0  0  0  0  0  0  0  0  0
    9.4504    5.7405   -0.7287 H   0  0  0  0  0  0  0  0  0  0  0  0
  1  2  2  3
  2  3  1  0
  3  4  2  0
  3  5  1  0
  5  6  2  0
  6  7  1  0
  7  8  1  0
  7  9  2  0
  9 10  1  0
 10 11  2  0
 11 12  1  0
 12 13  2  3
 13 14  1  0
 14 15  3  0
 13 16  1  0
 16 17  3  0
  1 18  1  0
 18 19  2  0
 19 20  1  0
 19 21  1  0
 21 22  1  0
 21 23  2  0
 23 24  1  0
 24 25  1  0
 24 26  2  0
 26 27  1  0
 23 28  1  0
 28 29  2  0
 29 30  1  0
 30 31  2  0
 31 32  1  0
 32 33  2  0
 33 34  1  0
 34 35  1  0
 35 36  1  0
 34 37  2  0
 29 38  1  0
 38 39  1  0
 39 40  1  0
 40 41  1  0
 41 42  1  0
 42 43  1  0
 43 44  2  0
 44 45  1  0
 45 46  1  0
 43 47  1  0
 47 48  1  0
 48 49  1  0
 49 50  1  0
 50 51  1  0
 51 52  1  0
 52 53  2  0
 53 54  1  0
 54 55  2  0
 55 56  1  0
 56 57  1  0
 57 58  1  0
 56 59  2  0
 51 60  2  0
 60 61  1  0
 61 62  1  0
 62 63  1  0
 63 64  1  0
 64 65  1  0
 65 66  1  0
 66 67  1  0
 67 68  1  0
 68 69  1  0
 69 70  1  0
 67 71  1  0
 71 72  1  0
 64 73  1  0
 73 74  1  0
 60 75  1  0
 75 76  2  0
 76 77  1  0
 76 78  1  0
 78 79  1  0
 78 80  2  0
 80 81  1  0
 81 82  1  0
 81 83  2  0
 83 84  1  0
 80 85  1  0
 85 86  2  3
 86 87  1  0
 87 88  2  0
 87 89  1  0
 89 90  2  0
 90 91  1  0
 91 92  1  0
 91 93  2  0
 93 94  1  0
 94 95  2  0
 95 96  1  0
 96 97  2  3
 97 98  1  0
 98 99  3  0
 97100  1  0
100101  3  0
 12  2  1  0
 26 18  1  0
 70 28  1  0
 83 75  1  0
 96 86  1  0
 11  5  1  0
 37 30  1  0
 69 38  2  0
 95 89  1  0
 68 40  2  0
 66 41  2  0
 46 42  2  0
 65 47  2  0
 63 48  2  0
 62 50  2  0
 59 52  1  0
  1102  1  0
  6103  1  0
  8104  1  0
  8105  1  0
  8106  1  0
  9107  1  0
 10108  1  0
 31109  1  0
 32110  1  0
 33111  1  0
 35112  1  0
 35113  1  0
 36114  1  0
 36115  1  0
 36116  1  0
 37117  1  0
 53118  1  0
 54119  1  0
 55120  1  0
 57121  1  0
 57122  1  0
 58123  1  0
 58124  1  0
 58125  1  0
 59126  1  0
 71127  1  0
 71128  1  0
 72129  1  0
 72130  1  0
 72131  1  0
 73132  1  0
 73133  1  0
 74134  1  0
 74135  1  0
 74136  1  0
 85137  1  0
 90138  1  0
 92139  1  0
 92140  1  0
 92141  1  0
 93142  1  0
 94143  1  0
M  END

