
     RDKit          3D

137151  0  0  0  0  0  0  0  0999 V2000
    7.9139    3.8202   -6.0483 C   0  0  0  0  0  0  0  0  0  0  0  0
    7.1113    2.9515   -6.7050 C   0  0  0  0  0  0  0  0  0  0  0  0
    5.7483    2.5795   -6.2874 C   0  0  0  0  0  0  0  0  0  0  0  0
    5.0098    3.2102   -5.4846 O   0  0  0  0  0  0  0  0  0  0  0  0
    5.3781    1.3580   -6.9666 C   0  0  0  0  0  0  0  0  0  0  0  0
    4.2384    0.5824   -6.7656 C   0  0  0  0  0  0  0  0  0  0  0  0
    4.1347   -0.6455   -7.4431 C   0  0  0  0  0  0  0  0  0  0  0  0
    2.9498   -1.5293   -7.2080 C   0  0  0  0  0  0  0  0  0  0  0  0
    5.1903   -1.0716   -8.2809 C   0  0  0  0  0  0  0  0  0  0  0  0
    6.3275   -0.2672   -8.4656 C   0  0  0  0  0  0  0  0  0  0  0  0
    6.3994    0.9765   -7.8200 C   0  0  0  0  0  0  0  0  0  0  0  0
    7.4858    2.0004   -7.7975 C   0  0  0  0  0  0  0  0  0  0  0  0
    8.4508    2.1705   -8.7345 C   0  0  0  0  0  0  0  0  0  0  0  0
    9.3310    3.3120   -8.7433 C   0  0  0  0  0  0  0  0  0  0  0  0
   10.0447    4.2234   -8.7626 N   0  0  0  0  0  0  0  0  0  0  0  0
    8.5899    1.2883   -9.8636 C   0  0  0  0  0  0  0  0  0  0  0  0
    8.7154    0.5930  -10.7820 N   0  0  0  0  0  0  0  0  0  0  0  0
    7.4676    4.5206   -4.8298 C   0  0  0  0  0  0  0  0  0  0  0  0
    7.4422    3.8248   -3.6105 C   0  0  0  0  0  0  0  0  0  0  0  0
    7.9967    2.5885   -3.5090 F   0  0  0  0  0  0  0  0  0  0  0  0
    6.7534    4.3575   -2.5196 C   0  0  0  0  0  0  0  0  0  0  0  0
    6.6354    3.6165   -1.3830 F   0  0  0  0  0  0  0  0  0  0  0  0
    6.0756    5.5843   -2.6420 C   0  0  0  0  0  0  0  0  0  0  0  0
    6.2174    6.3397   -3.8175 C   0  0  0  0  0  0  0  0  0  0  0  0
    5.6135    7.5487   -3.9316 F   0  0  0  0  0  0  0  0  0  0  0  0
    6.9129    5.8073   -4.9106 C   0  0  0  0  0  0  0  0  0  0  0  0
    6.9399    6.4905   -6.0823 F   0  0  0  0  0  0  0  0  0  0  0  0
    5.0142    5.9012   -1.6677 C   0  0  0  0  0  0  0  0  0  0  0  0
    5.3188    6.3483   -0.0584 S   0  0  0  0  0  0  0  0  0  0  0  0
    3.7521    6.0163    0.4351 C   0  0  0  0  0  0  0  0  0  0  0  0
    3.2193    5.6442    1.6309 C   0  0  0  0  0  0  0  0  0  0  0  0
    3.7859    5.6976    2.9088 C   0  0  0  0  0  0  0  0  0  0  0  0
    3.1987    4.9355    3.9546 C   0  0  0  0  0  0  0  0  0  0  0  0
    3.7954    4.9810    5.1728 N   0  0  0  0  0  0  0  0  0  0  0  0
    5.0509    6.0037    4.8233 S   0  0  0  0  0  0  0  0  0  0  0  0
    4.9020    6.3996    3.2186 N   0  0  0  0  0  0  0  0  0  0  0  0
    2.0803    4.1604    3.6632 C   0  0  0  0  0  0  0  0  0  0  0  0
    1.3462    3.3202    4.4420 C   0  0  0  0  0  0  0  0  0  0  0  0
    1.2789    2.7527    6.0409 S   0  0  0  0  0  0  0  0  0  0  0  0
   -0.0821    1.7897    5.6705 C   0  0  0  0  0  0  0  0  0  0  0  0
   -0.7929    0.8171    6.3877 C   0  0  0  0  0  0  0  0  0  0  0  0
   -0.5914    0.6052    7.8641 C   0  0  0  0  0  0  0  0  0  0  0  0
    0.7967    0.0293    8.1673 C   0  0  0  0  0  0  0  0  0  0  0  0
   -1.7306    0.1548    5.5495 C   0  0  0  0  0  0  0  0  0  0  0  0
   -1.6271    0.8279    3.9791 S   0  0  0  0  0  0  0  0  0  0  0  0
   -0.4501    1.9399    4.3596 C   0  0  0  0  0  0  0  0  0  0  0  0
    0.3607    2.8209    3.6654 C   0  0  0  0  0  0  0  0  0  0  0  0
    0.3529    3.3328    2.4105 N   0  0  0  0  0  0  0  0  0  0  0  0
    1.4805    4.1253    2.3898 C   0  0  0  0  0  0  0  0  0  0  0  0
    2.0968    4.8546    1.3219 C   0  0  0  0  0  0  0  0  0  0  0  0
    1.9823    4.7104   -0.0443 N   0  0  0  0  0  0  0  0  0  0  0  0
    3.0036    5.4669   -0.5582 C   0  0  0  0  0  0  0  0  0  0  0  0
    3.6936    5.4155   -1.7939 C   0  0  0  0  0  0  0  0  0  0  0  0
    3.0993    5.1003   -3.1488 C   0  0  0  0  0  0  0  0  0  0  0  0
    2.4052    6.3318   -3.7248 C   0  0  0  0  0  0  0  0  0  0  0  0
    1.3346    3.5930   -0.7545 C   0  0  0  0  0  0  0  0  0  0  0  0
    0.2151    4.0775   -1.6889 C   0  0  0  0  0  0  0  0  0  0  0  0
   -0.8960    3.5949    1.6870 C   0  0  0  0  0  0  0  0  0  0  0  0
   -1.4476    2.3408    1.0036 C   0  0  0  0  0  0  0  0  0  0  0  0
   -2.5875   -1.0374    5.8445 C   0  0  0  0  0  0  0  0  0  0  0  0
   -2.0909   -2.1381    6.5766 C   0  0  0  0  0  0  0  0  0  0  0  0
   -0.8360   -2.1392    7.0821 F   0  0  0  0  0  0  0  0  0  0  0  0
   -2.8352   -3.3157    6.7010 C   0  0  0  0  0  0  0  0  0  0  0  0
   -2.3177   -4.3539    7.4145 F   0  0  0  0  0  0  0  0  0  0  0  0
   -4.0085   -3.4896    5.9631 C   0  0  0  0  0  0  0  0  0  0  0  0
   -4.5544   -2.3942    5.2738 C   0  0  0  0  0  0  0  0  0  0  0  0
   -5.7622   -2.4963    4.6549 N   0  0  0  0  0  0  0  0  0  0  0  0
   -6.3247   -1.4439    3.9969 C   0  0  0  0  0  0  0  0  0  0  0  0
   -7.5786   -1.5594    3.3790 O   0  0  0  0  0  0  0  0  0  0  0  0
   -8.3348   -2.7705    3.3185 C   0  0  0  0  0  0  0  0  0  0  0  0
   -7.7001   -3.7446    2.3381 C   0  0  0  0  0  0  0  0  0  0  0  0
   -5.6345   -0.2257    3.9485 C   0  0  0  0  0  0  0  0  0  0  0  0
   -4.4321   -0.1210    4.5726 N   0  0  0  0  0  0  0  0  0  0  0  0
   -3.8615   -1.1642    5.2348 C   0  0  0  0  0  0  0  0  0  0  0  0
   -6.2132    0.9729    3.2580 C   0  0  0  0  0  0  0  0  0  0  0  0
   -4.6520   -4.8171    5.9330 C   0  0  0  0  0  0  0  0  0  0  0  0
   -4.8045   -5.5572    4.8199 C   0  0  0  0  0  0  0  0  0  0  0  0
   -5.7975   -6.6213    4.7124 C   0  0  0  0  0  0  0  0  0  0  0  0
   -6.4644   -7.1104    5.6650 O   0  0  0  0  0  0  0  0  0  0  0  0
   -5.9658   -6.9604    3.3176 C   0  0  0  0  0  0  0  0  0  0  0  0
   -6.7773   -7.9534    2.7670 C   0  0  0  0  0  0  0  0  0  0  0  0
   -6.6867   -8.2100    1.3882 C   0  0  0  0  0  0  0  0  0  0  0  0
   -7.4522   -9.2306    0.8025 C   0  0  0  0  0  0  0  0  0  0  0  0
   -7.2990   -9.5277   -0.5582 C   0  0  0  0  0  0  0  0  0  0  0  0
   -6.4190   -8.7878   -1.3509 C   0  0  0  0  0  0  0  0  0  0  0  0
   -6.2707   -9.0925   -2.6663 F   0  0  0  0  0  0  0  0  0  0  0  0
   -5.6666   -7.7540   -0.7839 C   0  0  0  0  0  0  0  0  0  0  0  0
   -5.7873   -7.4566    0.5829 C   0  0  0  0  0  0  0  0  0  0  0  0
   -4.9976   -6.4428    1.1639 C   0  0  0  0  0  0  0  0  0  0  0  0
   -5.1030   -6.1941    2.5464 C   0  0  0  0  0  0  0  0  0  0  0  0
   -4.2892   -5.3174    3.4345 C   0  0  0  0  0  0  0  0  0  0  0  0
   -3.1329   -4.7048    3.0922 C   0  0  0  0  0  0  0  0  0  0  0  0
   -2.0075   -4.6921    3.9876 C   0  0  0  0  0  0  0  0  0  0  0  0
   -1.0893   -4.7055    4.6969 N   0  0  0  0  0  0  0  0  0  0  0  0
   -2.8641   -4.2510    1.7521 C   0  0  0  0  0  0  0  0  0  0  0  0
   -2.6389   -3.8800    0.6803 N   0  0  0  0  0  0  0  0  0  0  0  0
    8.9494    3.9366   -6.3236 H   0  0  0  0  0  0  0  0  0  0  0  0
    3.4636    0.9112   -6.0815 H   0  0  0  0  0  0  0  0  0  0  0  0
    2.0319   -0.9177   -7.0910 H   0  0  0  0  0  0  0  0  0  0  0  0
    2.7999   -2.2216   -8.0608 H   0  0  0  0  0  0  0  0  0  0  0  0
    3.1083   -2.1215   -6.2825 H   0  0  0  0  0  0  0  0  0  0  0  0
    5.1410   -2.0344   -8.7733 H   0  0  0  0  0  0  0  0  0  0  0  0
    7.1335   -0.6437   -9.0677 H   0  0  0  0  0  0  0  0  0  0  0  0
   -1.3765   -0.0652    8.2746 H   0  0  0  0  0  0  0  0  0  0  0  0
   -0.7004    1.5789    8.3973 H   0  0  0  0  0  0  0  0  0  0  0  0
    0.7979   -0.4514    9.1675 H   0  0  0  0  0  0  0  0  0  0  0  0
    1.1042   -0.7145    7.4059 H   0  0  0  0  0  0  0  0  0  0  0  0
    1.5549    0.8393    8.1747 H   0  0  0  0  0  0  0  0  0  0  0  0
    2.4119    4.2463   -3.1330 H   0  0  0  0  0  0  0  0  0  0  0  0
    3.8919    4.7940   -3.8605 H   0  0  0  0  0  0  0  0  0  0  0  0
    3.1496    7.1271   -3.9452 H   0  0  0  0  0  0  0  0  0  0  0  0
    1.8869    6.0664   -4.6674 H   0  0  0  0  0  0  0  0  0  0  0  0
    1.6710    6.7509   -3.0086 H   0  0  0  0  0  0  0  0  0  0  0  0
    2.1034    3.0353   -1.3278 H   0  0  0  0  0  0  0  0  0  0  0  0
    0.9505    2.8389   -0.0512 H   0  0  0  0  0  0  0  0  0  0  0  0
   -0.7135    4.3158   -1.1523 H   0  0  0  0  0  0  0  0  0  0  0  0
    0.5017    4.9991   -2.2154 H   0  0  0  0  0  0  0  0  0  0  0  0
   -0.0139    3.2820   -2.4299 H   0  0  0  0  0  0  0  0  0  0  0  0
   -1.6591    3.9836    2.3989 H   0  0  0  0  0  0  0  0  0  0  0  0
   -0.7456    4.4158    0.9647 H   0  0  0  0  0  0  0  0  0  0  0  0
   -2.3467    1.9701    1.5448 H   0  0  0  0  0  0  0  0  0  0  0  0
   -0.6860    1.5195    0.9560 H   0  0  0  0  0  0  0  0  0  0  0  0
   -1.7737    2.5826   -0.0362 H   0  0  0  0  0  0  0  0  0  0  0  0
   -8.4052   -3.2244    4.3292 H   0  0  0  0  0  0  0  0  0  0  0  0
   -9.3625   -2.5327    2.9714 H   0  0  0  0  0  0  0  0  0  0  0  0
   -7.6122   -3.2715    1.3401 H   0  0  0  0  0  0  0  0  0  0  0  0
   -8.3293   -4.6590    2.2513 H   0  0  0  0  0  0  0  0  0  0  0  0
   -6.6943   -4.0255    2.6933 H   0  0  0  0  0  0  0  0  0  0  0  0
   -6.6306    0.6884    2.2719 H   0  0  0  0  0  0  0  0  0  0  0  0
   -5.4335    1.7544    3.1147 H   0  0  0  0  0  0  0  0  0  0  0  0
   -7.0266    1.3944    3.8848 H   0  0  0  0  0  0  0  0  0  0  0  0
   -5.1130   -5.1532    6.8538 H   0  0  0  0  0  0  0  0  0  0  0  0
   -7.4314   -8.5388    3.4017 H   0  0  0  0  0  0  0  0  0  0  0  0
   -8.1335   -9.8226    1.4005 H   0  0  0  0  0  0  0  0  0  0  0  0
   -7.8782  -10.3312   -1.0003 H   0  0  0  0  0  0  0  0  0  0  0  0
   -4.9915   -7.1907   -1.4157 H   0  0  0  0  0  0  0  0  0  0  0  0
   -4.3194   -5.8923    0.5376 H   0  0  0  0  0  0  0  0  0  0  0  0
  1  2  2  3
  2  3  1  0
  3  4  2  0
  3  5  1  0
  5  6  2  0
  6  7  1  0
  7  8  1  0
  7  9  2  0
  9 10  1  0
 10 11  2  0
 11 12  1  0
 12 13  2  3
 13 14  1  0
 14 15  3  0
 13 16  1  0
 16 17  3  0
  1 18  1  0
 18 19  2  0
 19 20  1  0
 19 21  1  0
 21 22  1  0
 21 23  2  0
 23 24  1  0
 24 25  1  0
 24 26  2  0
 26 27  1  0
 23 28  1  0
 28 29  1  0
 29 30  1  0
 30 31  1  0
 31 32  1  0
 32 33  1  0
 33 34  2  0
 34 35  1  0
 35 36  1  0
 33 37  1  0
 37 38  1  0
 38 39  1  0
 39 40  1  0
 40 41  1  0
 41 42  1  0
 42 43  1  0
 41 44  2  0
 44 45  1  0
 45 46  1  0
 46 47  1  0
 47 48  1  0
 48 49  1  0
 49 50  1  0
 50 51  1  0
 51 52  1  0
 52 53  1  0
 53 54  1  0
 54 55  1  0
 51 56  1  0
 56 57  1  0
 48 58  1  0
 58 59  1  0
 44 60  1  0
 60 61  2  0
 61 62  1  0
 61 63  1  0
 63 64  1  0
 63 65  2  0
 65 66  1  0
 66 67  2  0
 67 68  1  0
 68 69  1  0
 69 70  1  0
 70 71  1  0
 68 72  2  0
 72 73  1  0
 73 74  2  0
 72 75  1  0
 65 76  1  0
 76 77  2  3
 77 78  1  0
 78 79  2  0
 78 80  1  0
 80 81  2  0
 81 82  1  0
 82 83  2  0
 83 84  1  0
 84 85  2  0
 85 86  1  0
 85 87  1  0
 87 88  2  0
 88 89  1  0
 89 90  2  0
 90 91  1  0
 91 92  2  3
 92 93  1  0
 93 94  3  0
 92 95  1  0
 95 96  3  0
 12  2  1  0
 26 18  1  0
 53 28  2  0
 74 60  1  0
 91 77  1  0
 11  5  1  0
 52 30  2  0
 74 66  1  0
 90 80  1  0
 50 31  2  0
 88 82  1  0
 36 32  2  0
 49 37  2  0
 47 38  2  0
 46 40  2  0
  1 97  1  0
  6 98  1  0
  8 99  1  0
  8100  1  0
  8101  1  0
  9102  1  0
 10103  1  0
 42104  1  0
 42105  1  0
 43106  1  0
 43107  1  0
 43108  1  0
 54109  1  0
 54110  1  0
 55111  1  0
 55112  1  0
 55113  1  0
 56114  1  0
 56115  1  0
 57116  1  0
 57117  1  0
 57118  1  0
 58119  1  0
 58120  1  0
 59121  1  0
 59122  1  0
 59123  1  0
 70124  1  0
 70125  1  0
 71126  1  0
 71127  1  0
 71128  1  0
 75129  1  0
 75130  1  0
 75131  1  0
 76132  1  0
 81133  1  0
 83134  1  0
 84135  1  0
 87136  1  0
 89137  1  0
M  END

