
     RDKit          3D

150169  0  0  0  0  0  0  0  0999 V2000
   -2.2903   -0.8626  -12.8567 C   0  0  0  0  0  0  0  0  0  0  0  0
   -1.6554   -1.9897  -13.2251 C   0  0  0  0  0  0  0  0  0  0  0  0
   -1.4416   -3.1592  -12.3548 C   0  0  0  0  0  0  0  0  0  0  0  0
   -1.3926   -3.1579  -11.0910 O   0  0  0  0  0  0  0  0  0  0  0  0
   -1.3218   -4.3327  -13.1806 C   0  0  0  0  0  0  0  0  0  0  0  0
   -1.2395   -5.6572  -12.7635 C   0  0  0  0  0  0  0  0  0  0  0  0
   -1.2722   -6.6715  -13.7385 C   0  0  0  0  0  0  0  0  0  0  0  0
   -1.1655   -8.1074  -13.3286 C   0  0  0  0  0  0  0  0  0  0  0  0
   -1.3683   -6.3236  -15.1059 C   0  0  0  0  0  0  0  0  0  0  0  0
   -1.4413   -4.9770  -15.5023 C   0  0  0  0  0  0  0  0  0  0  0  0
   -1.3949   -3.9743  -14.5153 C   0  0  0  0  0  0  0  0  0  0  0  0
   -1.4755   -2.4863  -14.6274 C   0  0  0  0  0  0  0  0  0  0  0  0
   -1.2597   -1.7378  -15.7364 C   0  0  0  0  0  0  0  0  0  0  0  0
   -1.0556   -2.3176  -17.0367 C   0  0  0  0  0  0  0  0  0  0  0  0
   -0.8982   -2.7810  -18.0916 N   0  0  0  0  0  0  0  0  0  0  0  0
   -1.1065   -0.3071  -15.6716 C   0  0  0  0  0  0  0  0  0  0  0  0
   -0.9786    0.8432  -15.6222 N   0  0  0  0  0  0  0  0  0  0  0  0
   -2.9255   -0.7292  -11.5395 C   0  0  0  0  0  0  0  0  0  0  0  0
   -2.1055   -0.3546  -10.0745 S   0  0  0  0  0  0  0  0  0  0  0  0
   -3.4179   -0.8375   -9.1424 C   0  0  0  0  0  0  0  0  0  0  0  0
   -3.7285   -1.1904   -7.8581 C   0  0  0  0  0  0  0  0  0  0  0  0
   -4.9140   -1.8555   -7.9217 C   0  0  0  0  0  0  0  0  0  0  0  0
   -5.3794   -1.9455   -9.1917 N   0  0  0  0  0  0  0  0  0  0  0  0
   -6.5915   -2.6081   -9.6737 C   0  0  0  0  0  0  0  0  0  0  0  0
   -7.6700   -1.5692   -9.9655 C   0  0  0  0  0  0  0  0  0  0  0  0
   -4.4344   -1.3013   -9.9159 C   0  0  0  0  0  0  0  0  0  0  0  0
   -4.2041   -1.2525  -11.2820 C   0  0  0  0  0  0  0  0  0  0  0  0
   -5.3297   -2.4499   -6.7369 C   0  0  0  0  0  0  0  0  0  0  0  0
   -4.3914   -2.1981   -5.7182 C   0  0  0  0  0  0  0  0  0  0  0  0
   -3.0716   -1.2700   -6.3136 S   0  0  0  0  0  0  0  0  0  0  0  0
   -4.5438   -2.6434   -4.3305 C   0  0  0  0  0  0  0  0  0  0  0  0
   -4.8632   -4.2574   -3.8413 S   0  0  0  0  0  0  0  0  0  0  0  0
   -4.9846   -3.8277   -2.2252 C   0  0  0  0  0  0  0  0  0  0  0  0
   -4.9280   -4.4050   -0.9870 C   0  0  0  0  0  0  0  0  0  0  0  0
   -4.3246   -5.8857   -0.3816 S   0  0  0  0  0  0  0  0  0  0  0  0
   -4.0342   -5.1531    1.1328 C   0  0  0  0  0  0  0  0  0  0  0  0
   -3.4480   -5.4306    2.3415 C   0  0  0  0  0  0  0  0  0  0  0  0
   -2.6395   -6.5113    2.7129 C   0  0  0  0  0  0  0  0  0  0  0  0
   -1.8278   -6.3927    3.8788 C   0  0  0  0  0  0  0  0  0  0  0  0
   -0.9763   -7.4166    4.1493 N   0  0  0  0  0  0  0  0  0  0  0  0
   -1.3321   -8.4081    2.8670 S   0  0  0  0  0  0  0  0  0  0  0  0
   -2.4896   -7.6375    1.9670 N   0  0  0  0  0  0  0  0  0  0  0  0
   -1.9238   -5.2271    4.6482 C   0  0  0  0  0  0  0  0  0  0  0  0
   -1.1433   -4.7670    5.6730 C   0  0  0  0  0  0  0  0  0  0  0  0
    0.3789   -5.0831    6.3744 S   0  0  0  0  0  0  0  0  0  0  0  0
    0.3953   -3.5520    7.1431 C   0  0  0  0  0  0  0  0  0  0  0  0
    1.4233   -2.7742    7.7244 C   0  0  0  0  0  0  0  0  0  0  0  0
    2.8020   -3.3267    7.9697 C   0  0  0  0  0  0  0  0  0  0  0  0
    3.7448   -2.9993    6.8131 C   0  0  0  0  0  0  0  0  0  0  0  0
    1.0272   -1.4102    7.8317 C   0  0  0  0  0  0  0  0  0  0  0  0
   -0.5469   -1.2505    7.2107 S   0  0  0  0  0  0  0  0  0  0  0  0
   -0.7462   -2.8516    6.8303 C   0  0  0  0  0  0  0  0  0  0  0  0
   -1.5969   -3.5334    5.9829 C   0  0  0  0  0  0  0  0  0  0  0  0
   -2.6577   -3.1343    5.2350 N   0  0  0  0  0  0  0  0  0  0  0  0
   -2.8272   -4.1783    4.3523 C   0  0  0  0  0  0  0  0  0  0  0  0
   -3.5456   -4.2460    3.1078 C   0  0  0  0  0  0  0  0  0  0  0  0
   -4.1224   -3.2527    2.3499 N   0  0  0  0  0  0  0  0  0  0  0  0
   -4.3225   -3.8294    1.1414 C   0  0  0  0  0  0  0  0  0  0  0  0
   -4.7563   -3.3628   -0.0940 C   0  0  0  0  0  0  0  0  0  0  0  0
   -4.5619   -2.1715   -0.7426 N   0  0  0  0  0  0  0  0  0  0  0  0
   -4.7513   -2.5022   -2.0478 C   0  0  0  0  0  0  0  0  0  0  0  0
   -4.4481   -1.8002   -3.2152 C   0  0  0  0  0  0  0  0  0  0  0  0
   -3.7609   -1.0206   -0.3058 C   0  0  0  0  0  0  0  0  0  0  0  0
   -4.5989    0.2549   -0.3049 C   0  0  0  0  0  0  0  0  0  0  0  0
   -4.8836   -2.0820    2.7835 C   0  0  0  0  0  0  0  0  0  0  0  0
   -6.2595   -2.4953    3.3157 C   0  0  0  0  0  0  0  0  0  0  0  0
   -3.7108   -2.3105    5.8445 C   0  0  0  0  0  0  0  0  0  0  0  0
   -3.4159   -0.8080    5.7356 C   0  0  0  0  0  0  0  0  0  0  0  0
    1.8537   -0.2041    8.0708 C   0  0  0  0  0  0  0  0  0  0  0  0
    1.4677    1.2952    7.3159 S   0  0  0  0  0  0  0  0  0  0  0  0
    2.7458    2.0802    8.0141 C   0  0  0  0  0  0  0  0  0  0  0  0
    3.3779    3.2831    7.9956 C   0  0  0  0  0  0  0  0  0  0  0  0
    4.4786    3.1438    8.7750 C   0  0  0  0  0  0  0  0  0  0  0  0
    4.5897    1.8862    9.2811 N   0  0  0  0  0  0  0  0  0  0  0  0
    5.6414    1.3519   10.1436 C   0  0  0  0  0  0  0  0  0  0  0  0
    5.3224    1.6617   11.6009 C   0  0  0  0  0  0  0  0  0  0  0  0
    3.4823    1.2548    8.7988 C   0  0  0  0  0  0  0  0  0  0  0  0
    3.0157   -0.0602    8.8751 C   0  0  0  0  0  0  0  0  0  0  0  0
    5.3123    4.2574    8.8024 C   0  0  0  0  0  0  0  0  0  0  0  0
    4.7752    5.2647    7.9682 C   0  0  0  0  0  0  0  0  0  0  0  0
    3.3082    4.7590    7.2335 S   0  0  0  0  0  0  0  0  0  0  0  0
    5.4402    6.5214    7.6004 C   0  0  0  0  0  0  0  0  0  0  0  0
    5.9963    6.6800    6.3853 C   0  0  0  0  0  0  0  0  0  0  0  0
    6.2189    5.6127    5.4041 C   0  0  0  0  0  0  0  0  0  0  0  0
    6.2413    4.3753    5.6435 O   0  0  0  0  0  0  0  0  0  0  0  0
    6.4249    6.2040    4.0992 C   0  0  0  0  0  0  0  0  0  0  0  0
    6.8476    5.5798    2.9323 C   0  0  0  0  0  0  0  0  0  0  0  0
    7.2303    6.3881    1.8461 C   0  0  0  0  0  0  0  0  0  0  0  0
    7.7377    5.8092    0.6785 C   0  0  0  0  0  0  0  0  0  0  0  0
    8.1942    6.6130   -0.3688 C   0  0  0  0  0  0  0  0  0  0  0  0
    8.1586    8.0074   -0.2516 C   0  0  0  0  0  0  0  0  0  0  0  0
    8.6306    8.7746   -1.2643 F   0  0  0  0  0  0  0  0  0  0  0  0
    7.6412    8.6073    0.8978 C   0  0  0  0  0  0  0  0  0  0  0  0
    7.1700    7.8092    1.9555 C   0  0  0  0  0  0  0  0  0  0  0  0
    6.7043    8.4037    3.1426 C   0  0  0  0  0  0  0  0  0  0  0  0
    6.3367    7.5777    4.2113 C   0  0  0  0  0  0  0  0  0  0  0  0
    6.1097    7.9565    5.6220 C   0  0  0  0  0  0  0  0  0  0  0  0
    5.7105    9.1579    6.0702 C   0  0  0  0  0  0  0  0  0  0  0  0
    6.2506    9.6657    7.3092 C   0  0  0  0  0  0  0  0  0  0  0  0
    6.7158   10.0513    8.2936 N   0  0  0  0  0  0  0  0  0  0  0  0
    4.8647   10.0205    5.2793 C   0  0  0  0  0  0  0  0  0  0  0  0
    4.1869   10.6993    4.6272 N   0  0  0  0  0  0  0  0  0  0  0  0
   -2.6185   -0.1600  -13.6114 H   0  0  0  0  0  0  0  0  0  0  0  0
   -1.1792   -5.8979  -11.7084 H   0  0  0  0  0  0  0  0  0  0  0  0
   -0.0945   -8.4010  -13.2969 H   0  0  0  0  0  0  0  0  0  0  0  0
   -1.6997   -8.7609  -14.0486 H   0  0  0  0  0  0  0  0  0  0  0  0
   -1.6132   -8.2610  -12.3254 H   0  0  0  0  0  0  0  0  0  0  0  0
   -1.4072   -7.0960  -15.8637 H   0  0  0  0  0  0  0  0  0  0  0  0
   -1.5721   -4.7567  -16.5477 H   0  0  0  0  0  0  0  0  0  0  0  0
   -6.3646   -3.1761  -10.6021 H   0  0  0  0  0  0  0  0  0  0  0  0
   -6.9685   -3.3259   -8.9165 H   0  0  0  0  0  0  0  0  0  0  0  0
   -7.3229   -0.8754  -10.7598 H   0  0  0  0  0  0  0  0  0  0  0  0
   -7.8943   -0.9900   -9.0476 H   0  0  0  0  0  0  0  0  0  0  0  0
   -8.5952   -2.0799  -10.3067 H   0  0  0  0  0  0  0  0  0  0  0  0
   -4.8537   -1.6857  -12.0350 H   0  0  0  0  0  0  0  0  0  0  0  0
   -6.2345   -3.0319   -6.6156 H   0  0  0  0  0  0  0  0  0  0  0  0
    3.2104   -2.9330    8.9193 H   0  0  0  0  0  0  0  0  0  0  0  0
    2.7476   -4.4308    8.0880 H   0  0  0  0  0  0  0  0  0  0  0  0
    3.3590   -3.4396    5.8676 H   0  0  0  0  0  0  0  0  0  0  0  0
    3.8504   -1.8960    6.6891 H   0  0  0  0  0  0  0  0  0  0  0  0
    4.7470   -3.4244    7.0248 H   0  0  0  0  0  0  0  0  0  0  0  0
   -4.1710   -0.7511   -3.2574 H   0  0  0  0  0  0  0  0  0  0  0  0
   -2.8975   -0.8820   -0.9934 H   0  0  0  0  0  0  0  0  0  0  0  0
   -3.3139   -1.1967    0.6878 H   0  0  0  0  0  0  0  0  0  0  0  0
   -4.8622    0.5452   -1.3424 H   0  0  0  0  0  0  0  0  0  0  0  0
   -4.0174    1.0831    0.1528 H   0  0  0  0  0  0  0  0  0  0  0  0
   -5.5406    0.1061    0.2672 H   0  0  0  0  0  0  0  0  0  0  0  0
   -4.3000   -1.4760    3.4732 H   0  0  0  0  0  0  0  0  0  0  0  0
   -5.0953   -1.4153    1.9311 H   0  0  0  0  0  0  0  0  0  0  0  0
   -6.7411   -1.6419    3.8363 H   0  0  0  0  0  0  0  0  0  0  0  0
   -6.9047   -2.8110    2.4705 H   0  0  0  0  0  0  0  0  0  0  0  0
   -6.1882   -3.3595    4.0094 H   0  0  0  0  0  0  0  0  0  0  0  0
   -3.8084   -2.5731    6.9244 H   0  0  0  0  0  0  0  0  0  0  0  0
   -4.6937   -2.5516    5.4176 H   0  0  0  0  0  0  0  0  0  0  0  0
   -2.6278   -0.6033    4.9797 H   0  0  0  0  0  0  0  0  0  0  0  0
   -3.0983   -0.4050    6.7187 H   0  0  0  0  0  0  0  0  0  0  0  0
   -4.3423   -0.2651    5.4508 H   0  0  0  0  0  0  0  0  0  0  0  0
    5.7210    0.2495   10.0047 H   0  0  0  0  0  0  0  0  0  0  0  0
    6.6169    1.8083    9.8694 H   0  0  0  0  0  0  0  0  0  0  0  0
    5.2382    2.7578   11.7454 H   0  0  0  0  0  0  0  0  0  0  0  0
    4.3599    1.1830   11.8873 H   0  0  0  0  0  0  0  0  0  0  0  0
    6.1314    1.2709   12.2508 H   0  0  0  0  0  0  0  0  0  0  0  0
    3.4811   -0.8287    9.4656 H   0  0  0  0  0  0  0  0  0  0  0  0
    6.2624    4.3229    9.3212 H   0  0  0  0  0  0  0  0  0  0  0  0
    5.2144    7.3790    8.2152 H   0  0  0  0  0  0  0  0  0  0  0  0
    6.9431    4.4988    2.9009 H   0  0  0  0  0  0  0  0  0  0  0  0
    7.8002    4.7351    0.5814 H   0  0  0  0  0  0  0  0  0  0  0  0
    8.5904    6.1521   -1.2662 H   0  0  0  0  0  0  0  0  0  0  0  0
    7.6267    9.6929    0.9722 H   0  0  0  0  0  0  0  0  0  0  0  0
    6.7130    9.4804    3.2526 H   0  0  0  0  0  0  0  0  0  0  0  0
  1  2  2  3
  2  3  1  0
  3  4  2  0
  3  5  1  0
  5  6  2  0
  6  7  1  0
  7  8  1  0
  7  9  2  0
  9 10  1  0
 10 11  2  0
 11 12  1  0
 12 13  2  3
 13 14  1  0
 14 15  3  0
 13 16  1  0
 16 17  3  0
  1 18  1  0
 18 19  1  0
 19 20  1  0
 20 21  1  0
 21 22  2  0
 22 23  1  0
 23 24  1  0
 24 25  1  0
 23 26  1  0
 26 27  1  0
 22 28  1  0
 28 29  2  0
 29 30  1  0
 29 31  1  0
 31 32  1  0
 32 33  1  0
 33 34  1  0
 34 35  1  0
 35 36  1  0
 36 37  1  0
 37 38  1  0
 38 39  1  0
 39 40  2  0
 40 41  1  0
 41 42  1  0
 39 43  1  0
 43 44  1  0
 44 45  1  0
 45 46  1  0
 46 47  1  0
 47 48  1  0
 48 49  1  0
 47 50  2  0
 50 51  1  0
 51 52  1  0
 52 53  1  0
 53 54  1  0
 54 55  1  0
 55 56  1  0
 56 57  1  0
 57 58  1  0
 58 59  1  0
 59 60  1  0
 60 61  1  0
 61 62  1  0
 60 63  1  0
 63 64  1  0
 57 65  1  0
 65 66  1  0
 54 67  1  0
 67 68  1  0
 50 69  1  0
 69 70  1  0
 70 71  1  0
 71 72  1  0
 72 73  2  0
 73 74  1  0
 74 75  1  0
 75 76  1  0
 74 77  1  0
 77 78  1  0
 73 79  1  0
 79 80  2  0
 80 81  1  0
 80 82  1  0
 82 83  2  3
 83 84  1  0
 84 85  2  0
 84 86  1  0
 86 87  2  0
 87 88  1  0
 88 89  2  0
 89 90  1  0
 90 91  2  0
 91 92  1  0
 91 93  1  0
 93 94  2  0
 94 95  1  0
 95 96  2  0
 96 97  1  0
 97 98  2  3
 98 99  1  0
 99100  3  0
 98101  1  0
101102  3  0
 12  2  1  0
 27 18  2  0
 62 31  2  0
 78 69  2  0
 97 83  1  0
 11  5  1  0
 26 20  2  0
 61 33  2  0
 77 71  2  0
 96 86  1  0
 30 21  1  0
 59 34  2  0
 81 72  1  0
 94 88  1  0
 58 36  2  0
 56 37  2  0
 42 38  2  0
 55 43  2  0
 53 44  2  0
 52 46  2  0
  1103  1  0
  6104  1  0
  8105  1  0
  8106  1  0
  8107  1  0
  9108  1  0
 10109  1  0
 24110  1  0
 24111  1  0
 25112  1  0
 25113  1  0
 25114  1  0
 27115  1  0
 28116  1  0
 48117  1  0
 48118  1  0
 49119  1  0
 49120  1  0
 49121  1  0
 62122  1  0
 63123  1  0
 63124  1  0
 64125  1  0
 64126  1  0
 64127  1  0
 65128  1  0
 65129  1  0
 66130  1  0
 66131  1  0
 66132  1  0
 67133  1  0
 67134  1  0
 68135  1  0
 68136  1  0
 68137  1  0
 75138  1  0
 75139  1  0
 76140  1  0
 76141  1  0
 76142  1  0
 78143  1  0
 79144  1  0
 82145  1  0
 87146  1  0
 89147  1  0
 90148  1  0
 93149  1  0
 95150  1  0
M  END

