
     RDKit          3D

162183  0  0  0  0  0  0  0  0999 V2000
   -3.8812  -10.5146    1.4439 C   0  0  0  0  0  0  0  0  0  0  0  0
   -4.5019   -9.5589    0.7235 C   0  0  0  0  0  0  0  0  0  0  0  0
   -5.9438   -9.3297    0.7794 C   0  0  0  0  0  0  0  0  0  0  0  0
   -6.7283   -9.7427    1.6757 O   0  0  0  0  0  0  0  0  0  0  0  0
   -6.3355   -8.6239   -0.4257 C   0  0  0  0  0  0  0  0  0  0  0  0
   -7.6183   -8.2636   -0.8434 C   0  0  0  0  0  0  0  0  0  0  0  0
   -7.7669   -7.6113   -2.0818 C   0  0  0  0  0  0  0  0  0  0  0  0
   -9.1331   -7.2037   -2.5464 C   0  0  0  0  0  0  0  0  0  0  0  0
   -6.6314   -7.3779   -2.8877 C   0  0  0  0  0  0  0  0  0  0  0  0
   -5.3520   -7.7569   -2.4502 C   0  0  0  0  0  0  0  0  0  0  0  0
   -5.2135   -8.3637   -1.1935 C   0  0  0  0  0  0  0  0  0  0  0  0
   -3.9957   -8.7948   -0.4566 C   0  0  0  0  0  0  0  0  0  0  0  0
   -2.7609   -8.2429   -0.5793 C   0  0  0  0  0  0  0  0  0  0  0  0
   -1.8311   -8.2150    0.5192 C   0  0  0  0  0  0  0  0  0  0  0  0
   -1.0791   -8.1571    1.4003 N   0  0  0  0  0  0  0  0  0  0  0  0
   -2.3648   -7.4730   -1.7285 C   0  0  0  0  0  0  0  0  0  0  0  0
   -2.0283   -6.8508   -2.6431 N   0  0  0  0  0  0  0  0  0  0  0  0
   -2.5872  -11.1096    1.0725 C   0  0  0  0  0  0  0  0  0  0  0  0
   -1.2825  -11.2908    2.1536 S   0  0  0  0  0  0  0  0  0  0  0  0
   -0.2118  -11.7550    0.9481 C   0  0  0  0  0  0  0  0  0  0  0  0
    1.1155  -11.4938    0.7272 C   0  0  0  0  0  0  0  0  0  0  0  0
    1.2533  -11.3192   -0.6228 C   0  0  0  0  0  0  0  0  0  0  0  0
    0.0691  -11.4687   -1.2734 N   0  0  0  0  0  0  0  0  0  0  0  0
   -0.2351  -11.0629   -2.6513 C   0  0  0  0  0  0  0  0  0  0  0  0
    0.0340  -12.2181   -3.6048 C   0  0  0  0  0  0  0  0  0  0  0  0
   -0.8194  -11.7157   -0.2759 C   0  0  0  0  0  0  0  0  0  0  0  0
   -2.1777  -11.3964   -0.2368 C   0  0  0  0  0  0  0  0  0  0  0  0
    2.3357  -10.5193   -0.9948 C   0  0  0  0  0  0  0  0  0  0  0  0
    3.0094  -10.0164    0.1289 C   0  0  0  0  0  0  0  0  0  0  0  0
    2.2390  -10.5605    1.5491 S   0  0  0  0  0  0  0  0  0  0  0  0
    3.9466   -8.8812    0.0805 C   0  0  0  0  0  0  0  0  0  0  0  0
    4.2132   -7.9376   -1.3027 S   0  0  0  0  0  0  0  0  0  0  0  0
    5.0222   -6.7085   -0.5034 C   0  0  0  0  0  0  0  0  0  0  0  0
    5.3840   -5.4424   -0.9833 C   0  0  0  0  0  0  0  0  0  0  0  0
    5.0452   -4.8420   -2.5250 S   0  0  0  0  0  0  0  0  0  0  0  0
    5.5456   -3.2974   -2.1032 C   0  0  0  0  0  0  0  0  0  0  0  0
    5.1665   -2.0644   -2.5376 C   0  0  0  0  0  0  0  0  0  0  0  0
    4.2612   -1.7718   -3.5626 C   0  0  0  0  0  0  0  0  0  0  0  0
    3.6299   -0.5046   -3.5739 C   0  0  0  0  0  0  0  0  0  0  0  0
    2.7199   -0.2736   -4.5537 N   0  0  0  0  0  0  0  0  0  0  0  0
    2.7706   -1.7326   -5.3330 S   0  0  0  0  0  0  0  0  0  0  0  0
    3.8778   -2.6551   -4.5186 N   0  0  0  0  0  0  0  0  0  0  0  0
    3.9824    0.4222   -2.5958 C   0  0  0  0  0  0  0  0  0  0  0  0
    3.6138    1.7178   -2.4709 C   0  0  0  0  0  0  0  0  0  0  0  0
    2.5755    2.7699   -3.2622 S   0  0  0  0  0  0  0  0  0  0  0  0
    3.1489    4.0755   -2.3446 C   0  0  0  0  0  0  0  0  0  0  0  0
    2.6923    5.3996   -2.3940 C   0  0  0  0  0  0  0  0  0  0  0  0
    3.2442    6.3839   -1.5786 C   0  0  0  0  0  0  0  0  0  0  0  0
    4.3114    6.0264   -0.7530 C   0  0  0  0  0  0  0  0  0  0  0  0
    5.0613    6.8053    0.0420 N   0  0  0  0  0  0  0  0  0  0  0  0
    5.9652    5.9777    0.5600 N   0  0  0  0  0  0  0  0  0  0  0  0
    7.0390    6.4098    1.4462 C   0  0  0  0  0  0  0  0  0  0  0  0
    8.2973    6.7012    0.6402 C   0  0  0  0  0  0  0  0  0  0  0  0
    5.8392    4.7262    0.1262 N   0  0  0  0  0  0  0  0  0  0  0  0
    4.7818    4.7330   -0.6968 C   0  0  0  0  0  0  0  0  0  0  0  0
    4.1880    3.6952   -1.4550 C   0  0  0  0  0  0  0  0  0  0  0  0
    4.3953    2.2932   -1.5303 C   0  0  0  0  0  0  0  0  0  0  0  0
    5.2544    1.3822   -0.9682 N   0  0  0  0  0  0  0  0  0  0  0  0
    4.9541    0.1869   -1.6082 C   0  0  0  0  0  0  0  0  0  0  0  0
    5.4846   -1.1576   -1.5067 C   0  0  0  0  0  0  0  0  0  0  0  0
    5.9679   -1.8710   -0.4238 N   0  0  0  0  0  0  0  0  0  0  0  0
    5.9463   -3.1862   -0.8081 C   0  0  0  0  0  0  0  0  0  0  0  0
    5.8478   -4.4262   -0.1065 C   0  0  0  0  0  0  0  0  0  0  0  0
    5.9603   -4.7883    1.2632 C   0  0  0  0  0  0  0  0  0  0  0  0
    5.5999   -6.0420    1.7121 C   0  0  0  0  0  0  0  0  0  0  0  0
    5.0984   -7.0152    0.8501 C   0  0  0  0  0  0  0  0  0  0  0  0
    4.5039   -8.2370    1.1902 C   0  0  0  0  0  0  0  0  0  0  0  0
    5.7342   -6.0937    3.0461 N   0  0  0  0  0  0  0  0  0  0  0  0
    6.1913   -4.8906    3.3805 N   0  0  0  0  0  0  0  0  0  0  0  0
    6.4626   -4.4853    4.7539 C   0  0  0  0  0  0  0  0  0  0  0  0
    5.3545   -3.5740    5.2658 C   0  0  0  0  0  0  0  0  0  0  0  0
    6.3302   -4.0764    2.3375 N   0  0  0  0  0  0  0  0  0  0  0  0
    6.2032   -1.4083    0.9366 C   0  0  0  0  0  0  0  0  0  0  0  0
    4.8936   -1.2672    1.7045 C   0  0  0  0  0  0  0  0  0  0  0  0
    6.4749    1.7596   -0.2518 C   0  0  0  0  0  0  0  0  0  0  0  0
    6.1822    2.1063    1.2208 C   0  0  0  0  0  0  0  0  0  0  0  0
    2.6143    7.6291   -1.6869 C   0  0  0  0  0  0  0  0  0  0  0  0
    1.5673    7.6044   -2.6140 C   0  0  0  0  0  0  0  0  0  0  0  0
    1.4325    6.0523   -3.2837 S   0  0  0  0  0  0  0  0  0  0  0  0
    0.6133    8.6936   -2.8629 C   0  0  0  0  0  0  0  0  0  0  0  0
    0.1358    9.8403   -1.6853 S   0  0  0  0  0  0  0  0  0  0  0  0
   -1.0692   10.4722   -2.6597 C   0  0  0  0  0  0  0  0  0  0  0  0
   -2.2825   11.0740   -2.4671 C   0  0  0  0  0  0  0  0  0  0  0  0
   -3.0543   10.7331   -3.5357 C   0  0  0  0  0  0  0  0  0  0  0  0
   -2.3866    9.9405   -4.4126 N   0  0  0  0  0  0  0  0  0  0  0  0
   -2.9534    9.1938   -5.5377 C   0  0  0  0  0  0  0  0  0  0  0  0
   -3.1900   10.1244   -6.7194 C   0  0  0  0  0  0  0  0  0  0  0  0
   -1.1686    9.7828   -3.8319 C   0  0  0  0  0  0  0  0  0  0  0  0
   -0.2295    8.7653   -3.9842 C   0  0  0  0  0  0  0  0  0  0  0  0
   -4.4248   10.8923   -3.3395 C   0  0  0  0  0  0  0  0  0  0  0  0
   -4.6847   11.3326   -2.0349 C   0  0  0  0  0  0  0  0  0  0  0  0
   -3.2252   11.5149   -1.1554 S   0  0  0  0  0  0  0  0  0  0  0  0
   -6.0371   11.5818   -1.5119 C   0  0  0  0  0  0  0  0  0  0  0  0
   -6.5191   11.0628   -0.3651 C   0  0  0  0  0  0  0  0  0  0  0  0
   -5.9322    9.9394    0.3799 C   0  0  0  0  0  0  0  0  0  0  0  0
   -4.8173    9.3924    0.1666 O   0  0  0  0  0  0  0  0  0  0  0  0
   -6.9143    9.4532    1.3235 C   0  0  0  0  0  0  0  0  0  0  0  0
   -6.8209    8.3332    2.1499 C   0  0  0  0  0  0  0  0  0  0  0  0
   -7.9482    7.9564    2.9079 C   0  0  0  0  0  0  0  0  0  0  0  0
   -7.9366    6.8383    3.7537 O   0  0  0  0  0  0  0  0  0  0  0  0
   -6.8061    6.3372    4.4090 C   0  0  0  0  0  0  0  0  0  0  0  0
   -5.7875    7.0604    4.5886 O   0  0  0  0  0  0  0  0  0  0  0  0
   -6.8489    4.9636    4.9862 C   0  0  0  0  0  0  0  0  0  0  0  0
   -9.1437    8.6880    2.7769 C   0  0  0  0  0  0  0  0  0  0  0  0
   -9.2149    9.8090    1.9333 C   0  0  0  0  0  0  0  0  0  0  0  0
   -8.0702   10.2044    1.2233 C   0  0  0  0  0  0  0  0  0  0  0  0
   -7.8688   11.3057    0.2369 C   0  0  0  0  0  0  0  0  0  0  0  0
   -8.6500   12.4082    0.0797 C   0  0  0  0  0  0  0  0  0  0  0  0
   -9.8481   12.6273    0.8463 C   0  0  0  0  0  0  0  0  0  0  0  0
  -10.8128   12.8189    1.4576 N   0  0  0  0  0  0  0  0  0  0  0  0
   -8.2784   13.5056   -0.7777 C   0  0  0  0  0  0  0  0  0  0  0  0
   -7.9875   14.3802   -1.4756 N   0  0  0  0  0  0  0  0  0  0  0  0
   -4.3909  -10.9437    2.2970 H   0  0  0  0  0  0  0  0  0  0  0  0
   -8.4791   -8.4843   -0.2234 H   0  0  0  0  0  0  0  0  0  0  0  0
   -9.0823   -6.6073   -3.4817 H   0  0  0  0  0  0  0  0  0  0  0  0
   -9.7477   -8.1091   -2.7337 H   0  0  0  0  0  0  0  0  0  0  0  0
   -9.6255   -6.5849   -1.7677 H   0  0  0  0  0  0  0  0  0  0  0  0
   -6.7335   -6.8939   -3.8522 H   0  0  0  0  0  0  0  0  0  0  0  0
   -4.5128   -7.5923   -3.1062 H   0  0  0  0  0  0  0  0  0  0  0  0
   -1.2954  -10.7526   -2.7499 H   0  0  0  0  0  0  0  0  0  0  0  0
    0.3803  -10.1862   -2.9446 H   0  0  0  0  0  0  0  0  0  0  0  0
   -0.1849  -11.9018   -4.6468 H   0  0  0  0  0  0  0  0  0  0  0  0
   -0.6178  -13.0802   -3.3478 H   0  0  0  0  0  0  0  0  0  0  0  0
    1.0980  -12.5278   -3.5388 H   0  0  0  0  0  0  0  0  0  0  0  0
   -2.7944  -11.2324   -1.1090 H   0  0  0  0  0  0  0  0  0  0  0  0
    2.5112  -10.1753   -2.0045 H   0  0  0  0  0  0  0  0  0  0  0  0
    7.2515    5.6122    2.1895 H   0  0  0  0  0  0  0  0  0  0  0  0
    6.7277    7.3245    1.9949 H   0  0  0  0  0  0  0  0  0  0  0  0
    9.1088    7.0330    1.3225 H   0  0  0  0  0  0  0  0  0  0  0  0
    8.6306    5.7849    0.1088 H   0  0  0  0  0  0  0  0  0  0  0  0
    8.0994    7.5049   -0.1014 H   0  0  0  0  0  0  0  0  0  0  0  0
    4.4047   -8.5908    2.2090 H   0  0  0  0  0  0  0  0  0  0  0  0
    7.4346   -3.9489    4.7954 H   0  0  0  0  0  0  0  0  0  0  0  0
    6.5332   -5.3826    5.4050 H   0  0  0  0  0  0  0  0  0  0  0  0
    5.2989   -2.6549    4.6451 H   0  0  0  0  0  0  0  0  0  0  0  0
    4.3787   -4.1022    5.2276 H   0  0  0  0  0  0  0  0  0  0  0  0
    5.5677   -3.2827    6.3175 H   0  0  0  0  0  0  0  0  0  0  0  0
    6.7784   -0.4974    0.9333 H   0  0  0  0  0  0  0  0  0  0  0  0
    6.9225   -2.0633    1.4443 H   0  0  0  0  0  0  0  0  0  0  0  0
    5.1064   -0.9554    2.7490 H   0  0  0  0  0  0  0  0  0  0  0  0
    4.3481   -2.2338    1.7186 H   0  0  0  0  0  0  0  0  0  0  0  0
    4.2507   -0.4992    1.2238 H   0  0  0  0  0  0  0  0  0  0  0  0
    7.2711    1.0018   -0.3783 H   0  0  0  0  0  0  0  0  0  0  0  0
    6.9141    2.6484   -0.7498 H   0  0  0  0  0  0  0  0  0  0  0  0
    6.0992    1.2318    1.8845 H   0  0  0  0  0  0  0  0  0  0  0  0
    6.9985    2.7455    1.6182 H   0  0  0  0  0  0  0  0  0  0  0  0
    5.2171    2.6438    1.3158 H   0  0  0  0  0  0  0  0  0  0  0  0
    2.8884    8.4984   -1.1033 H   0  0  0  0  0  0  0  0  0  0  0  0
   -2.2670    8.3813   -5.8541 H   0  0  0  0  0  0  0  0  0  0  0  0
   -3.9122    8.7237   -5.2318 H   0  0  0  0  0  0  0  0  0  0  0  0
   -3.5940    9.5443   -7.5752 H   0  0  0  0  0  0  0  0  0  0  0  0
   -2.2333   10.6005   -7.0239 H   0  0  0  0  0  0  0  0  0  0  0  0
   -3.9202   10.9156   -6.4459 H   0  0  0  0  0  0  0  0  0  0  0  0
   -0.2254    8.0480   -4.7928 H   0  0  0  0  0  0  0  0  0  0  0  0
   -5.1859   10.5988   -4.0496 H   0  0  0  0  0  0  0  0  0  0  0  0
   -6.6855   12.1499   -2.1585 H   0  0  0  0  0  0  0  0  0  0  0  0
   -5.9084    7.7511    2.1636 H   0  0  0  0  0  0  0  0  0  0  0  0
   -7.1193    4.2335    4.1940 H   0  0  0  0  0  0  0  0  0  0  0  0
   -5.8590    4.6844    5.4073 H   0  0  0  0  0  0  0  0  0  0  0  0
   -7.6095    4.9263    5.7934 H   0  0  0  0  0  0  0  0  0  0  0  0
  -10.0240    8.3805    3.3259 H   0  0  0  0  0  0  0  0  0  0  0  0
  -10.1630   10.3070    1.8229 H   0  0  0  0  0  0  0  0  0  0  0  0
  1  2  2  3
  2  3  1  0
  3  4  2  0
  3  5  1  0
  5  6  2  0
  6  7  1  0
  7  8  1  0
  7  9  2  0
  9 10  1  0
 10 11  2  0
 11 12  1  0
 12 13  2  3
 13 14  1  0
 14 15  3  0
 13 16  1  0
 16 17  3  0
  1 18  1  0
 18 19  1  0
 19 20  1  0
 20 21  1  0
 21 22  2  0
 22 23  1  0
 23 24  1  0
 24 25  1  0
 23 26  1  0
 26 27  1  0
 22 28  1  0
 28 29  2  0
 29 30  1  0
 29 31  1  0
 31 32  1  0
 32 33  1  0
 33 34  1  0
 34 35  1  0
 35 36  1  0
 36 37  1  0
 37 38  1  0
 38 39  1  0
 39 40  2  0
 40 41  1  0
 41 42  1  0
 39 43  1  0
 43 44  1  0
 44 45  1  0
 45 46  1  0
 46 47  1  0
 47 48  2  0
 48 49  1  0
 49 50  2  0
 50 51  1  0
 51 52  1  0
 52 53  1  0
 51 54  1  0
 54 55  2  0
 55 56  1  0
 56 57  1  0
 57 58  1  0
 58 59  1  0
 59 60  1  0
 60 61  1  0
 61 62  1  0
 62 63  1  0
 63 64  1  0
 64 65  1  0
 65 66  1  0
 66 67  1  0
 65 68  2  0
 68 69  1  0
 69 70  1  0
 70 71  1  0
 69 72  1  0
 61 73  1  0
 73 74  1  0
 58 75  1  0
 75 76  1  0
 48 77  1  0
 77 78  2  0
 78 79  1  0
 78 80  1  0
 80 81  1  0
 81 82  1  0
 82 83  1  0
 83 84  2  0
 84 85  1  0
 85 86  1  0
 86 87  1  0
 85 88  1  0
 88 89  1  0
 84 90  1  0
 90 91  2  0
 91 92  1  0
 91 93  1  0
 93 94  2  3
 94 95  1  0
 95 96  2  0
 95 97  1  0
 97 98  2  0
 98 99  1  0
 99100  1  0
100101  1  0
101102  2  0
101103  1  0
 99104  2  0
104105  1  0
105106  2  0
106107  1  0
107108  2  3
108109  1  0
109110  3  0
108111  1  0
111112  3  0
 12  2  1  0
 27 18  2  0
 67 31  2  0
 89 80  2  0
107 94  1  0
 11  5  1  0
 26 20  2  0
 66 33  2  0
 88 82  2  0
106 97  1  0
 30 21  1  0
 63 34  2  0
 72 64  2  0
 92 83  1  0
 62 36  2  0
 60 37  2  0
 42 38  2  0
 59 43  2  0
 57 44  2  0
 56 46  2  0
 79 47  1  0
 55 49  1  0
  1113  1  0
  6114  1  0
  8115  1  0
  8116  1  0
  8117  1  0
  9118  1  0
 10119  1  0
 24120  1  0
 24121  1  0
 25122  1  0
 25123  1  0
 25124  1  0
 27125  1  0
 28126  1  0
 52127  1  0
 52128  1  0
 53129  1  0
 53130  1  0
 53131  1  0
 67132  1  0
 70133  1  0
 70134  1  0
 71135  1  0
 71136  1  0
 71137  1  0
 73138  1  0
 73139  1  0
 74140  1  0
 74141  1  0
 74142  1  0
 75143  1  0
 75144  1  0
 76145  1  0
 76146  1  0
 76147  1  0
 77148  1  0
 86149  1  0
 86150  1  0
 87151  1  0
 87152  1  0
 87153  1  0
 89154  1  0
 90155  1  0
 93156  1  0
 98157  1  0
103158  1  0
103159  1  0
103160  1  0
104161  1  0
105162  1  0
M  END

