
     RDKit          3D

163182  0  0  0  0  0  0  0  0999 V2000
   -8.7793    1.3381    2.6089 C   0  0  0  0  0  0  0  0  0  0  0  0
   -8.8731    0.6001    1.4842 C   0  0  0  0  0  0  0  0  0  0  0  0
   -7.9666   -0.4974    1.1101 C   0  0  0  0  0  0  0  0  0  0  0  0
   -6.9471   -0.8832    1.7413 O   0  0  0  0  0  0  0  0  0  0  0  0
   -8.3417   -0.9852   -0.1959 C   0  0  0  0  0  0  0  0  0  0  0  0
   -7.8110   -2.0781   -0.8837 C   0  0  0  0  0  0  0  0  0  0  0  0
   -8.3828   -2.4425   -2.1149 C   0  0  0  0  0  0  0  0  0  0  0  0
   -7.8758   -3.6470   -2.8524 C   0  0  0  0  0  0  0  0  0  0  0  0
   -9.4969   -1.7288   -2.6031 C   0  0  0  0  0  0  0  0  0  0  0  0
  -10.0135   -0.6326   -1.8932 C   0  0  0  0  0  0  0  0  0  0  0  0
   -9.3972   -0.2406   -0.6892 C   0  0  0  0  0  0  0  0  0  0  0  0
   -9.7737    0.8153    0.2992 C   0  0  0  0  0  0  0  0  0  0  0  0
  -10.7464    1.7529    0.1472 C   0  0  0  0  0  0  0  0  0  0  0  0
  -11.2281    2.5710    1.2281 C   0  0  0  0  0  0  0  0  0  0  0  0
  -11.6301    3.2385    2.0858 N   0  0  0  0  0  0  0  0  0  0  0  0
  -11.3597    2.0228   -1.1238 C   0  0  0  0  0  0  0  0  0  0  0  0
  -11.8482    2.2581   -2.1475 N   0  0  0  0  0  0  0  0  0  0  0  0
   -7.9801    0.9544    3.7858 C   0  0  0  0  0  0  0  0  0  0  0  0
   -6.9718    2.0382    4.6353 S   0  0  0  0  0  0  0  0  0  0  0  0
   -6.4855    0.8652    5.7256 C   0  0  0  0  0  0  0  0  0  0  0  0
   -5.3497    0.6199    6.4433 C   0  0  0  0  0  0  0  0  0  0  0  0
   -5.2327   -0.7367    6.5273 C   0  0  0  0  0  0  0  0  0  0  0  0
   -6.2587   -1.3725    5.9011 N   0  0  0  0  0  0  0  0  0  0  0  0
   -6.3146   -2.7860    5.5147 C   0  0  0  0  0  0  0  0  0  0  0  0
   -6.8665   -3.6238    6.6598 C   0  0  0  0  0  0  0  0  0  0  0  0
   -7.0116   -0.3510    5.4112 C   0  0  0  0  0  0  0  0  0  0  0  0
   -7.9009   -0.3341    4.3392 C   0  0  0  0  0  0  0  0  0  0  0  0
   -3.9349   -1.1890    6.7709 C   0  0  0  0  0  0  0  0  0  0  0  0
   -3.0341   -0.1128    6.8416 C   0  0  0  0  0  0  0  0  0  0  0  0
   -3.8525    1.3540    6.5374 S   0  0  0  0  0  0  0  0  0  0  0  0
   -1.5673   -0.2344    6.8026 C   0  0  0  0  0  0  0  0  0  0  0  0
   -0.7738   -1.2524    7.3807 C   0  0  0  0  0  0  0  0  0  0  0  0
   -1.2732   -2.3064    8.2874 C   0  0  0  0  0  0  0  0  0  0  0  0
   -2.0772   -1.9643    9.3861 C   0  0  0  0  0  0  0  0  0  0  0  0
   -2.5834   -2.9596   10.2264 C   0  0  0  0  0  0  0  0  0  0  0  0
   -2.2852   -4.3042    9.9846 C   0  0  0  0  0  0  0  0  0  0  0  0
   -1.4745   -4.6600    8.8944 C   0  0  0  0  0  0  0  0  0  0  0  0
   -1.1941   -6.1091    8.5999 C   0  0  0  0  0  0  0  0  0  0  0  0
   -2.2898   -6.7013    7.7194 C   0  0  0  0  0  0  0  0  0  0  0  0
   -0.9811   -3.6583    8.0410 C   0  0  0  0  0  0  0  0  0  0  0  0
    0.5567   -1.1438    6.9555 C   0  0  0  0  0  0  0  0  0  0  0  0
    1.9325   -2.1335    7.1218 S   0  0  0  0  0  0  0  0  0  0  0  0
    2.8311   -1.1484    6.0654 C   0  0  0  0  0  0  0  0  0  0  0  0
    3.8457   -1.3830    5.1789 C   0  0  0  0  0  0  0  0  0  0  0  0
    4.6355   -2.5287    4.9984 C   0  0  0  0  0  0  0  0  0  0  0  0
    5.3520   -2.6883    3.7755 C   0  0  0  0  0  0  0  0  0  0  0  0
    6.0719   -3.8280    3.6239 N   0  0  0  0  0  0  0  0  0  0  0  0
    5.7345   -4.5631    5.0703 S   0  0  0  0  0  0  0  0  0  0  0  0
    4.7266   -3.5412    5.8963 N   0  0  0  0  0  0  0  0  0  0  0  0
    5.2690   -1.6780    2.8147 C   0  0  0  0  0  0  0  0  0  0  0  0
    5.8247   -1.5455    1.5780 C   0  0  0  0  0  0  0  0  0  0  0  0
    6.7035   -2.4600    0.4485 S   0  0  0  0  0  0  0  0  0  0  0  0
    6.5618   -1.2037   -0.7037 C   0  0  0  0  0  0  0  0  0  0  0  0
    6.8117   -1.1488   -2.0768 C   0  0  0  0  0  0  0  0  0  0  0  0
    7.5963   -2.1705   -2.7982 C   0  0  0  0  0  0  0  0  0  0  0  0
    7.0557   -2.8748   -3.8867 C   0  0  0  0  0  0  0  0  0  0  0  0
    7.8280   -3.8206   -4.5673 C   0  0  0  0  0  0  0  0  0  0  0  0
    9.1383   -4.0819   -4.1602 C   0  0  0  0  0  0  0  0  0  0  0  0
    9.6794   -3.4118   -3.0500 C   0  0  0  0  0  0  0  0  0  0  0  0
   11.0927   -3.6829   -2.6129 C   0  0  0  0  0  0  0  0  0  0  0  0
   12.0507   -2.6563   -3.2089 C   0  0  0  0  0  0  0  0  0  0  0  0
    8.9057   -2.4531   -2.3767 C   0  0  0  0  0  0  0  0  0  0  0  0
    6.2722    0.0318   -2.6329 C   0  0  0  0  0  0  0  0  0  0  0  0
    5.5060    0.9486   -1.4202 S   0  0  0  0  0  0  0  0  0  0  0  0
    5.8731   -0.1286   -0.1971 C   0  0  0  0  0  0  0  0  0  0  0  0
    5.4488   -0.3333    1.1046 C   0  0  0  0  0  0  0  0  0  0  0  0
    4.6748    0.3698    1.9709 N   0  0  0  0  0  0  0  0  0  0  0  0
    4.5117   -0.5127    3.0081 C   0  0  0  0  0  0  0  0  0  0  0  0
    3.7108   -0.4053    4.1754 C   0  0  0  0  0  0  0  0  0  0  0  0
    2.5687    0.3292    4.3670 N   0  0  0  0  0  0  0  0  0  0  0  0
    2.0879   -0.1272    5.5534 C   0  0  0  0  0  0  0  0  0  0  0  0
    0.8011   -0.1176    6.0797 C   0  0  0  0  0  0  0  0  0  0  0  0
   -0.6081    0.7315    5.7799 S   0  0  0  0  0  0  0  0  0  0  0  0
    1.7066    0.9003    3.3211 C   0  0  0  0  0  0  0  0  0  0  0  0
    0.9611   -0.1987    2.5654 C   0  0  0  0  0  0  0  0  0  0  0  0
    4.7460    1.8335    2.1115 C   0  0  0  0  0  0  0  0  0  0  0  0
    3.9810    2.5675    1.0048 C   0  0  0  0  0  0  0  0  0  0  0  0
    6.1708    0.3856   -4.0497 C   0  0  0  0  0  0  0  0  0  0  0  0
    6.6232    1.9162   -4.6517 S   0  0  0  0  0  0  0  0  0  0  0  0
    5.7455    1.7433   -6.0654 C   0  0  0  0  0  0  0  0  0  0  0  0
    5.0540    2.6122   -6.8658 C   0  0  0  0  0  0  0  0  0  0  0  0
    3.9393    1.9525   -7.2856 C   0  0  0  0  0  0  0  0  0  0  0  0
    3.8887    0.6844   -6.7997 N   0  0  0  0  0  0  0  0  0  0  0  0
    2.7112   -0.1849   -6.7430 C   0  0  0  0  0  0  0  0  0  0  0  0
    1.8281    0.1654   -5.5461 C   0  0  0  0  0  0  0  0  0  0  0  0
    5.0118    0.5913   -6.0373 C   0  0  0  0  0  0  0  0  0  0  0  0
    5.2310   -0.2006   -4.9115 C   0  0  0  0  0  0  0  0  0  0  0  0
    2.9122    2.7781   -7.7405 C   0  0  0  0  0  0  0  0  0  0  0  0
    3.2759    4.1304   -7.6130 C   0  0  0  0  0  0  0  0  0  0  0  0
    4.8358    4.2707   -6.9310 S   0  0  0  0  0  0  0  0  0  0  0  0
    2.4624    5.2910   -8.0070 C   0  0  0  0  0  0  0  0  0  0  0  0
    1.1792    5.4869   -7.6403 C   0  0  0  0  0  0  0  0  0  0  0  0
    0.3736    4.5849   -6.8074 C   0  0  0  0  0  0  0  0  0  0  0  0
    0.8084    3.7195   -6.0032 O   0  0  0  0  0  0  0  0  0  0  0  0
   -1.0194    4.9469   -6.9557 C   0  0  0  0  0  0  0  0  0  0  0  0
   -2.1418    4.2634   -6.4826 C   0  0  0  0  0  0  0  0  0  0  0  0
   -3.4164    4.7460   -6.8259 C   0  0  0  0  0  0  0  0  0  0  0  0
   -4.6395    4.0281   -6.3396 C   0  0  0  0  0  0  0  0  0  0  0  0
   -3.5329    5.9041   -7.6247 C   0  0  0  0  0  0  0  0  0  0  0  0
   -2.3880    6.5666   -8.0966 C   0  0  0  0  0  0  0  0  0  0  0  0
   -1.1201    6.0833   -7.7375 C   0  0  0  0  0  0  0  0  0  0  0  0
    0.2446    6.5576   -8.1183 C   0  0  0  0  0  0  0  0  0  0  0  0
    0.5679    7.7858   -8.6032 C   0  0  0  0  0  0  0  0  0  0  0  0
    1.9269    8.2264   -8.7658 C   0  0  0  0  0  0  0  0  0  0  0  0
    3.0218    8.5869   -8.9039 N   0  0  0  0  0  0  0  0  0  0  0  0
   -0.4241    8.7938   -8.8899 C   0  0  0  0  0  0  0  0  0  0  0  0
   -1.2082    9.6079   -9.1292 N   0  0  0  0  0  0  0  0  0  0  0  0
   -9.2738    2.2876    2.6869 H   0  0  0  0  0  0  0  0  0  0  0  0
   -6.9844   -2.6428   -0.4631 H   0  0  0  0  0  0  0  0  0  0  0  0
   -8.0049   -3.5139   -3.9473 H   0  0  0  0  0  0  0  0  0  0  0  0
   -6.7936   -3.8043   -2.6495 H   0  0  0  0  0  0  0  0  0  0  0  0
   -8.4373   -4.5462   -2.5271 H   0  0  0  0  0  0  0  0  0  0  0  0
   -9.9776   -2.0386   -3.5231 H   0  0  0  0  0  0  0  0  0  0  0  0
  -10.8990   -0.1562   -2.2752 H   0  0  0  0  0  0  0  0  0  0  0  0
   -5.3006   -3.1474    5.2386 H   0  0  0  0  0  0  0  0  0  0  0  0
   -6.9639   -2.9231    4.6238 H   0  0  0  0  0  0  0  0  0  0  0  0
   -6.8698   -4.6931    6.3642 H   0  0  0  0  0  0  0  0  0  0  0  0
   -7.9075   -3.3109    6.8953 H   0  0  0  0  0  0  0  0  0  0  0  0
   -6.2338   -3.5027    7.5666 H   0  0  0  0  0  0  0  0  0  0  0  0
   -8.3888   -1.2086    3.9265 H   0  0  0  0  0  0  0  0  0  0  0  0
   -3.6352   -2.2259    6.7189 H   0  0  0  0  0  0  0  0  0  0  0  0
   -2.3098   -0.9265    9.5935 H   0  0  0  0  0  0  0  0  0  0  0  0
   -3.2134   -2.6871   11.0641 H   0  0  0  0  0  0  0  0  0  0  0  0
   -2.6920   -5.0645   10.6406 H   0  0  0  0  0  0  0  0  0  0  0  0
   -1.1329   -6.6856    9.5484 H   0  0  0  0  0  0  0  0  0  0  0  0
   -0.2152   -6.2119    8.0828 H   0  0  0  0  0  0  0  0  0  0  0  0
   -2.0583   -7.7654    7.5039 H   0  0  0  0  0  0  0  0  0  0  0  0
   -3.2716   -6.6501    8.2371 H   0  0  0  0  0  0  0  0  0  0  0  0
   -2.3532   -6.1499    6.7564 H   0  0  0  0  0  0  0  0  0  0  0  0
   -0.3880   -3.9364    7.1757 H   0  0  0  0  0  0  0  0  0  0  0  0
    6.0311   -2.7232   -4.1867 H   0  0  0  0  0  0  0  0  0  0  0  0
    7.4059   -4.3562   -5.4075 H   0  0  0  0  0  0  0  0  0  0  0  0
    9.7288   -4.8129   -4.7007 H   0  0  0  0  0  0  0  0  0  0  0  0
   11.4093   -4.7029   -2.9266 H   0  0  0  0  0  0  0  0  0  0  0  0
   11.1594   -3.6422   -1.5038 H   0  0  0  0  0  0  0  0  0  0  0  0
   12.0319   -2.7043   -4.3200 H   0  0  0  0  0  0  0  0  0  0  0  0
   11.7695   -1.6311   -2.8816 H   0  0  0  0  0  0  0  0  0  0  0  0
   13.0849   -2.8668   -2.8613 H   0  0  0  0  0  0  0  0  0  0  0  0
    9.3252   -1.9204   -1.5302 H   0  0  0  0  0  0  0  0  0  0  0  0
    2.2778    1.4789    2.5966 H   0  0  0  0  0  0  0  0  0  0  0  0
    0.9850    1.6159    3.7638 H   0  0  0  0  0  0  0  0  0  0  0  0
    0.2960    0.2563    1.8026 H   0  0  0  0  0  0  0  0  0  0  0  0
    1.6834   -0.8665    2.0509 H   0  0  0  0  0  0  0  0  0  0  0  0
    0.3423   -0.8033    3.2610 H   0  0  0  0  0  0  0  0  0  0  0  0
    5.8099    2.1541    2.0957 H   0  0  0  0  0  0  0  0  0  0  0  0
    4.3592    2.1473    3.1041 H   0  0  0  0  0  0  0  0  0  0  0  0
    4.6915    3.0279    0.2872 H   0  0  0  0  0  0  0  0  0  0  0  0
    3.3763    3.3897    1.4444 H   0  0  0  0  0  0  0  0  0  0  0  0
    3.3004    1.8794    0.4578 H   0  0  0  0  0  0  0  0  0  0  0  0
    3.0306   -1.2460   -6.6677 H   0  0  0  0  0  0  0  0  0  0  0  0
    2.1238   -0.0769   -7.6800 H   0  0  0  0  0  0  0  0  0  0  0  0
    1.5885    1.2464   -5.5511 H   0  0  0  0  0  0  0  0  0  0  0  0
    2.3437   -0.0823   -4.5950 H   0  0  0  0  0  0  0  0  0  0  0  0
    0.8829   -0.4132   -5.5986 H   0  0  0  0  0  0  0  0  0  0  0  0
    4.5970   -1.0275   -4.6306 H   0  0  0  0  0  0  0  0  0  0  0  0
    1.9402    2.4288   -8.0672 H   0  0  0  0  0  0  0  0  0  0  0  0
    2.9620    5.9895   -8.6490 H   0  0  0  0  0  0  0  0  0  0  0  0
   -2.0282    3.3652   -5.8873 H   0  0  0  0  0  0  0  0  0  0  0  0
   -4.5307    2.9368   -6.5128 H   0  0  0  0  0  0  0  0  0  0  0  0
   -5.5495    4.3739   -6.8730 H   0  0  0  0  0  0  0  0  0  0  0  0
   -4.7720    4.2112   -5.2504 H   0  0  0  0  0  0  0  0  0  0  0  0
   -4.5099    6.2814   -7.9021 H   0  0  0  0  0  0  0  0  0  0  0  0
   -2.5223    7.4091   -8.7536 H   0  0  0  0  0  0  0  0  0  0  0  0
  1  2  2  3
  2  3  1  0
  3  4  2  0
  3  5  1  0
  5  6  2  0
  6  7  1  0
  7  8  1  0
  7  9  2  0
  9 10  1  0
 10 11  2  0
 11 12  1  0
 12 13  2  3
 13 14  1  0
 14 15  3  0
 13 16  1  0
 16 17  3  0
  1 18  1  0
 18 19  1  0
 19 20  1  0
 20 21  1  0
 21 22  2  0
 22 23  1  0
 23 24  1  0
 24 25  1  0
 23 26  1  0
 26 27  1  0
 22 28  1  0
 28 29  2  0
 29 30  1  0
 29 31  1  0
 31 32  2  0
 32 33  1  0
 33 34  2  0
 34 35  1  0
 35 36  2  0
 36 37  1  0
 37 38  1  0
 38 39  1  0
 37 40  2  0
 32 41  1  0
 41 42  1  0
 42 43  1  0
 43 44  1  0
 44 45  1  0
 45 46  1  0
 46 47  2  0
 47 48  1  0
 48 49  1  0
 46 50  1  0
 50 51  1  0
 51 52  1  0
 52 53  1  0
 53 54  1  0
 54 55  1  0
 55 56  2  0
 56 57  1  0
 57 58  2  0
 58 59  1  0
 59 60  1  0
 60 61  1  0
 59 62  2  0
 54 63  2  0
 63 64  1  0
 64 65  1  0
 65 66  1  0
 66 67  1  0
 67 68  1  0
 68 69  1  0
 69 70  1  0
 70 71  1  0
 71 72  1  0
 72 73  1  0
 70 74  1  0
 74 75  1  0
 67 76  1  0
 76 77  1  0
 63 78  1  0
 78 79  1  0
 79 80  1  0
 80 81  1  0
 81 82  2  0
 82 83  1  0
 83 84  1  0
 84 85  1  0
 83 86  1  0
 86 87  1  0
 82 88  1  0
 88 89  2  0
 89 90  1  0
 89 91  1  0
 91 92  2  3
 92 93  1  0
 93 94  2  0
 93 95  1  0
 95 96  2  0
 96 97  1  0
 97 98  1  0
 97 99  2  0
 99100  1  0
100101  2  0
101102  1  0
102103  2  3
103104  1  0
104105  3  0
103106  1  0
106107  3  0
 12  2  1  0
 27 18  2  0
 73 31  1  0
 87 78  2  0
102 92  1  0
 11  5  1  0
 26 20  2  0
 40 33  1  0
 72 41  2  0
 86 80  2  0
101 95  1  0
 30 21  1  0
 71 43  2  0
 90 81  1  0
 69 44  2  0
 49 45  2  0
 68 50  2  0
 66 51  2  0
 65 53  2  0
 62 55  1  0
  1108  1  0
  6109  1  0
  8110  1  0
  8111  1  0
  8112  1  0
  9113  1  0
 10114  1  0
 24115  1  0
 24116  1  0
 25117  1  0
 25118  1  0
 25119  1  0
 27120  1  0
 28121  1  0
 34122  1  0
 35123  1  0
 36124  1  0
 38125  1  0
 38126  1  0
 39127  1  0
 39128  1  0
 39129  1  0
 40130  1  0
 56131  1  0
 57132  1  0
 58133  1  0
 60134  1  0
 60135  1  0
 61136  1  0
 61137  1  0
 61138  1  0
 62139  1  0
 74140  1  0
 74141  1  0
 75142  1  0
 75143  1  0
 75144  1  0
 76145  1  0
 76146  1  0
 77147  1  0
 77148  1  0
 77149  1  0
 84150  1  0
 84151  1  0
 85152  1  0
 85153  1  0
 85154  1  0
 87155  1  0
 88156  1  0
 91157  1  0
 96158  1  0
 98159  1  0
 98160  1  0
 98161  1  0
 99162  1  0
100163  1  0
M  END

