
     RDKit          3D

164183  0  0  0  0  0  0  0  0999 V2000
   -6.5199   -0.3206   10.1867 C   0  0  0  0  0  0  0  0  0  0  0  0
   -7.8367   -0.0362   10.1778 C   0  0  0  0  0  0  0  0  0  0  0  0
   -8.8522   -0.6609    9.3196 C   0  0  0  0  0  0  0  0  0  0  0  0
   -8.7418   -1.7486    8.6942 O   0  0  0  0  0  0  0  0  0  0  0  0
  -10.0525    0.1423    9.3718 C   0  0  0  0  0  0  0  0  0  0  0  0
  -11.2238   -0.0143    8.6320 C   0  0  0  0  0  0  0  0  0  0  0  0
  -12.2550    0.9265    8.7957 C   0  0  0  0  0  0  0  0  0  0  0  0
  -13.5137    0.8138    7.9900 C   0  0  0  0  0  0  0  0  0  0  0  0
  -12.0652    2.0250    9.6599 C   0  0  0  0  0  0  0  0  0  0  0  0
  -10.8757    2.1637   10.3926 C   0  0  0  0  0  0  0  0  0  0  0  0
   -9.8741    1.1870   10.2617 C   0  0  0  0  0  0  0  0  0  0  0  0
   -8.5338    1.0710   10.9104 C   0  0  0  0  0  0  0  0  0  0  0  0
   -8.1348    1.6862   12.0559 C   0  0  0  0  0  0  0  0  0  0  0  0
   -6.9285    1.3283   12.7536 C   0  0  0  0  0  0  0  0  0  0  0  0
   -5.9629    1.0473   13.3276 N   0  0  0  0  0  0  0  0  0  0  0  0
   -8.9501    2.6545   12.7408 C   0  0  0  0  0  0  0  0  0  0  0  0
   -9.5944    3.4329   13.3048 N   0  0  0  0  0  0  0  0  0  0  0  0
   -5.8711   -1.2950    9.2951 C   0  0  0  0  0  0  0  0  0  0  0  0
   -6.0062   -1.2981    7.5804 S   0  0  0  0  0  0  0  0  0  0  0  0
   -4.8375   -2.4802    7.4220 C   0  0  0  0  0  0  0  0  0  0  0  0
   -4.0639   -3.0772    6.4701 C   0  0  0  0  0  0  0  0  0  0  0  0
   -3.0946   -3.7528    7.1352 C   0  0  0  0  0  0  0  0  0  0  0  0
   -3.1999   -3.6072    8.4809 N   0  0  0  0  0  0  0  0  0  0  0  0
   -2.3099   -4.1243    9.5198 C   0  0  0  0  0  0  0  0  0  0  0  0
   -2.6737   -5.5654    9.8509 C   0  0  0  0  0  0  0  0  0  0  0  0
   -4.3002   -2.8220    8.6193 C   0  0  0  0  0  0  0  0  0  0  0  0
   -4.8451   -2.1611    9.7140 C   0  0  0  0  0  0  0  0  0  0  0  0
   -2.0991   -4.2935    6.3315 C   0  0  0  0  0  0  0  0  0  0  0  0
   -2.3618   -4.0036    4.9778 C   0  0  0  0  0  0  0  0  0  0  0  0
   -3.7768   -3.0420    4.8272 S   0  0  0  0  0  0  0  0  0  0  0  0
   -1.4703   -4.3162    3.8460 C   0  0  0  0  0  0  0  0  0  0  0  0
   -0.5315   -5.3706    3.7494 C   0  0  0  0  0  0  0  0  0  0  0  0
   -0.4148   -6.5071    4.6911 C   0  0  0  0  0  0  0  0  0  0  0  0
   -1.5681   -7.1935    5.1084 C   0  0  0  0  0  0  0  0  0  0  0  0
   -1.4658   -8.2863    5.9715 C   0  0  0  0  0  0  0  0  0  0  0  0
   -0.2126   -8.7177    6.4124 C   0  0  0  0  0  0  0  0  0  0  0  0
    0.9496   -8.0443    6.0045 C   0  0  0  0  0  0  0  0  0  0  0  0
    2.3032   -8.5546    6.4203 C   0  0  0  0  0  0  0  0  0  0  0  0
    2.8297   -9.5663    5.4063 C   0  0  0  0  0  0  0  0  0  0  0  0
    0.8426   -6.9392    5.1443 C   0  0  0  0  0  0  0  0  0  0  0  0
    0.2258   -5.2474    2.5762 C   0  0  0  0  0  0  0  0  0  0  0  0
    1.6147   -6.0429    1.9858 S   0  0  0  0  0  0  0  0  0  0  0  0
    1.7035   -4.9894    0.6563 C   0  0  0  0  0  0  0  0  0  0  0  0
    2.7073   -4.5139   -0.1433 C   0  0  0  0  0  0  0  0  0  0  0  0
    4.0701   -4.8490   -0.1697 C   0  0  0  0  0  0  0  0  0  0  0  0
    4.9901   -3.9544   -0.7963 C   0  0  0  0  0  0  0  0  0  0  0  0
    6.3043   -4.2862   -0.7520 N   0  0  0  0  0  0  0  0  0  0  0  0
    6.2020   -5.7016    0.1035 S   0  0  0  0  0  0  0  0  0  0  0  0
    4.5966   -5.9423    0.4350 N   0  0  0  0  0  0  0  0  0  0  0  0
    4.4911   -2.7977   -1.3992 C   0  0  0  0  0  0  0  0  0  0  0  0
    5.1028   -1.7754   -2.0741 C   0  0  0  0  0  0  0  0  0  0  0  0
    6.6501   -1.2243   -2.5134 S   0  0  0  0  0  0  0  0  0  0  0  0
    5.9695    0.1281   -3.3199 C   0  0  0  0  0  0  0  0  0  0  0  0
    6.4998    1.2757   -3.9225 C   0  0  0  0  0  0  0  0  0  0  0  0
    7.9491    1.5573   -4.0546 C   0  0  0  0  0  0  0  0  0  0  0  0
    8.4627    2.8265   -3.7361 C   0  0  0  0  0  0  0  0  0  0  0  0
    9.8320    3.0798   -3.8346 C   0  0  0  0  0  0  0  0  0  0  0  0
   10.7059    2.0712   -4.2455 C   0  0  0  0  0  0  0  0  0  0  0  0
   10.2122    0.7987   -4.5711 C   0  0  0  0  0  0  0  0  0  0  0  0
   11.1608   -0.3054   -4.9521 C   0  0  0  0  0  0  0  0  0  0  0  0
   11.6458   -1.0507   -3.7129 C   0  0  0  0  0  0  0  0  0  0  0  0
    8.8338    0.5455   -4.4676 C   0  0  0  0  0  0  0  0  0  0  0  0
    5.4560    2.1478   -4.3043 C   0  0  0  0  0  0  0  0  0  0  0  0
    3.9390    1.5009   -3.8821 S   0  0  0  0  0  0  0  0  0  0  0  0
    4.6013    0.1131   -3.2356 C   0  0  0  0  0  0  0  0  0  0  0  0
    4.1194   -0.9624   -2.5201 C   0  0  0  0  0  0  0  0  0  0  0  0
    2.8769   -1.3893   -2.1955 N   0  0  0  0  0  0  0  0  0  0  0  0
    3.1202   -2.4960   -1.4251 C   0  0  0  0  0  0  0  0  0  0  0  0
    2.2216   -3.3107   -0.6868 C   0  0  0  0  0  0  0  0  0  0  0  0
    1.0062   -2.9853   -0.1317 N   0  0  0  0  0  0  0  0  0  0  0  0
    0.7251   -4.0445    0.6701 C   0  0  0  0  0  0  0  0  0  0  0  0
   -0.1063   -4.1845    1.7753 C   0  0  0  0  0  0  0  0  0  0  0  0
   -1.3289   -3.2967    2.4893 S   0  0  0  0  0  0  0  0  0  0  0  0
    0.4030   -1.6523    0.0192 C   0  0  0  0  0  0  0  0  0  0  0  0
   -0.9960   -1.6020   -0.6061 C   0  0  0  0  0  0  0  0  0  0  0  0
    1.6753   -1.0973   -2.9883 C   0  0  0  0  0  0  0  0  0  0  0  0
    1.8273   -1.5885   -4.4287 C   0  0  0  0  0  0  0  0  0  0  0  0
    5.5846    3.4534   -4.9492 C   0  0  0  0  0  0  0  0  0  0  0  0
    5.1659    4.9025   -4.1630 S   0  0  0  0  0  0  0  0  0  0  0  0
    5.1072    5.7826   -5.5838 C   0  0  0  0  0  0  0  0  0  0  0  0
    4.3094    6.8119   -5.9988 C   0  0  0  0  0  0  0  0  0  0  0  0
    4.0240    6.5737   -7.3123 C   0  0  0  0  0  0  0  0  0  0  0  0
    4.6352    5.4469   -7.7642 N   0  0  0  0  0  0  0  0  0  0  0  0
    4.3283    4.7298   -9.0056 C   0  0  0  0  0  0  0  0  0  0  0  0
    4.8613    5.5042  -10.2078 C   0  0  0  0  0  0  0  0  0  0  0  0
    5.2767    4.9628   -6.6654 C   0  0  0  0  0  0  0  0  0  0  0  0
    5.5646    3.6335   -6.3375 C   0  0  0  0  0  0  0  0  0  0  0  0
    2.8406    7.1639   -7.7608 C   0  0  0  0  0  0  0  0  0  0  0  0
    2.2021    7.8457   -6.7130 C   0  0  0  0  0  0  0  0  0  0  0  0
    3.0783    7.6776   -5.2643 S   0  0  0  0  0  0  0  0  0  0  0  0
    0.8676    8.4531   -6.7815 C   0  0  0  0  0  0  0  0  0  0  0  0
   -0.2531    7.7457   -7.0177 C   0  0  0  0  0  0  0  0  0  0  0  0
   -0.3196    6.3073   -7.3134 C   0  0  0  0  0  0  0  0  0  0  0  0
    0.5637    5.4469   -7.0607 O   0  0  0  0  0  0  0  0  0  0  0  0
   -1.6206    6.0191   -7.8757 C   0  0  0  0  0  0  0  0  0  0  0  0
   -2.0751    4.8232   -8.4264 C   0  0  0  0  0  0  0  0  0  0  0  0
   -3.3405    4.8026   -9.0260 C   0  0  0  0  0  0  0  0  0  0  0  0
   -4.1228    5.9795   -9.0903 C   0  0  0  0  0  0  0  0  0  0  0  0
   -5.3745    6.0133   -9.7227 O   0  0  0  0  0  0  0  0  0  0  0  0
   -5.9440    4.9170  -10.4304 C   0  0  0  0  0  0  0  0  0  0  0  0
   -3.6406    7.1683   -8.5104 C   0  0  0  0  0  0  0  0  0  0  0  0
   -2.3895    7.1674   -7.8741 C   0  0  0  0  0  0  0  0  0  0  0  0
   -1.6364    8.2760   -7.2227 C   0  0  0  0  0  0  0  0  0  0  0  0
   -2.1724    9.3969   -6.6753 C   0  0  0  0  0  0  0  0  0  0  0  0
   -3.5822    9.6789   -6.7304 C   0  0  0  0  0  0  0  0  0  0  0  0
   -4.7152    9.9122   -6.7593 N   0  0  0  0  0  0  0  0  0  0  0  0
   -1.4083   10.3014   -5.8556 C   0  0  0  0  0  0  0  0  0  0  0  0
   -0.8062   11.0345   -5.1928 N   0  0  0  0  0  0  0  0  0  0  0  0
   -5.8453    0.2182   10.8284 H   0  0  0  0  0  0  0  0  0  0  0  0
  -11.3265   -0.8403    7.9385 H   0  0  0  0  0  0  0  0  0  0  0  0
  -13.7499   -0.2517    7.7834 H   0  0  0  0  0  0  0  0  0  0  0  0
  -13.3852    1.3502    7.0269 H   0  0  0  0  0  0  0  0  0  0  0  0
  -14.3716    1.2554    8.5406 H   0  0  0  0  0  0  0  0  0  0  0  0
  -12.8345    2.7811    9.7586 H   0  0  0  0  0  0  0  0  0  0  0  0
  -10.7534    3.0399   11.0068 H   0  0  0  0  0  0  0  0  0  0  0  0
   -1.2561   -4.0793    9.1678 H   0  0  0  0  0  0  0  0  0  0  0  0
   -2.3888   -3.5020   10.4377 H   0  0  0  0  0  0  0  0  0  0  0  0
   -2.5595   -6.2032    8.9486 H   0  0  0  0  0  0  0  0  0  0  0  0
   -3.7238   -5.6204   10.2065 H   0  0  0  0  0  0  0  0  0  0  0  0
   -2.0007   -5.9465   10.6489 H   0  0  0  0  0  0  0  0  0  0  0  0
   -4.4908   -2.2523   10.7318 H   0  0  0  0  0  0  0  0  0  0  0  0
   -1.2166   -4.7902    6.7072 H   0  0  0  0  0  0  0  0  0  0  0  0
   -2.5471   -6.8928    4.7557 H   0  0  0  0  0  0  0  0  0  0  0  0
   -2.3579   -8.8107    6.2888 H   0  0  0  0  0  0  0  0  0  0  0  0
   -0.1478   -9.5795    7.0664 H   0  0  0  0  0  0  0  0  0  0  0  0
    2.2401   -9.0374    7.4207 H   0  0  0  0  0  0  0  0  0  0  0  0
    3.0220   -7.7106    6.5046 H   0  0  0  0  0  0  0  0  0  0  0  0
    3.8200   -9.9461    5.7368 H   0  0  0  0  0  0  0  0  0  0  0  0
    2.1284  -10.4251    5.3202 H   0  0  0  0  0  0  0  0  0  0  0  0
    2.9457   -9.0869    4.4099 H   0  0  0  0  0  0  0  0  0  0  0  0
    1.7391   -6.4180    4.8337 H   0  0  0  0  0  0  0  0  0  0  0  0
    7.8124    3.6148   -3.3807 H   0  0  0  0  0  0  0  0  0  0  0  0
   10.2191    4.0583   -3.5789 H   0  0  0  0  0  0  0  0  0  0  0  0
   11.7670    2.2784   -4.2989 H   0  0  0  0  0  0  0  0  0  0  0  0
   12.0359    0.1144   -5.4945 H   0  0  0  0  0  0  0  0  0  0  0  0
   10.6589   -1.0225   -5.6388 H   0  0  0  0  0  0  0  0  0  0  0  0
   12.3561   -1.8502   -4.0119 H   0  0  0  0  0  0  0  0  0  0  0  0
   12.1663   -0.3535   -3.0225 H   0  0  0  0  0  0  0  0  0  0  0  0
   10.7860   -1.5162   -3.1847 H   0  0  0  0  0  0  0  0  0  0  0  0
    8.4520   -0.4372   -4.7145 H   0  0  0  0  0  0  0  0  0  0  0  0
    1.0481   -0.8704   -0.4251 H   0  0  0  0  0  0  0  0  0  0  0  0
    0.3394   -1.3875    1.0963 H   0  0  0  0  0  0  0  0  0  0  0  0
   -1.0552   -2.2340   -1.5164 H   0  0  0  0  0  0  0  0  0  0  0  0
   -1.2434   -0.5552   -0.8745 H   0  0  0  0  0  0  0  0  0  0  0  0
   -1.7594   -1.9623    0.1065 H   0  0  0  0  0  0  0  0  0  0  0  0
    0.8021   -1.6210   -2.5774 H   0  0  0  0  0  0  0  0  0  0  0  0
    1.4729   -0.0050   -2.9783 H   0  0  0  0  0  0  0  0  0  0  0  0
    2.0668   -2.6727   -4.4391 H   0  0  0  0  0  0  0  0  0  0  0  0
    2.6318   -1.0314   -4.9488 H   0  0  0  0  0  0  0  0  0  0  0  0
    0.8782   -1.4234   -4.9774 H   0  0  0  0  0  0  0  0  0  0  0  0
    3.2290    4.5910   -9.1009 H   0  0  0  0  0  0  0  0  0  0  0  0
    4.8005    3.7257   -9.0063 H   0  0  0  0  0  0  0  0  0  0  0  0
    4.3576    6.4897  -10.2896 H   0  0  0  0  0  0  0  0  0  0  0  0
    4.6706    4.9280  -11.1373 H   0  0  0  0  0  0  0  0  0  0  0  0
    5.9553    5.6619  -10.0994 H   0  0  0  0  0  0  0  0  0  0  0  0
    5.5743    2.8139   -7.0425 H   0  0  0  0  0  0  0  0  0  0  0  0
    2.3992    6.9921   -8.7339 H   0  0  0  0  0  0  0  0  0  0  0  0
    0.8337    9.5211   -6.6557 H   0  0  0  0  0  0  0  0  0  0  0  0
   -1.4600    3.9334   -8.4087 H   0  0  0  0  0  0  0  0  0  0  0  0
   -3.6881    3.8769   -9.4625 H   0  0  0  0  0  0  0  0  0  0  0  0
   -6.9336    5.2151  -10.8328 H   0  0  0  0  0  0  0  0  0  0  0  0
   -5.2850    4.6291  -11.2763 H   0  0  0  0  0  0  0  0  0  0  0  0
   -6.0819    4.0497   -9.7484 H   0  0  0  0  0  0  0  0  0  0  0  0
   -4.2259    8.0682   -8.6026 H   0  0  0  0  0  0  0  0  0  0  0  0
  1  2  2  3
  2  3  1  0
  3  4  2  0
  3  5  1  0
  5  6  2  0
  6  7  1  0
  7  8  1  0
  7  9  2  0
  9 10  1  0
 10 11  2  0
 11 12  1  0
 12 13  2  3
 13 14  1  0
 14 15  3  0
 13 16  1  0
 16 17  3  0
  1 18  1  0
 18 19  1  0
 19 20  1  0
 20 21  1  0
 21 22  2  0
 22 23  1  0
 23 24  1  0
 24 25  1  0
 23 26  1  0
 26 27  1  0
 22 28  1  0
 28 29  2  0
 29 30  1  0
 29 31  1  0
 31 32  2  0
 32 33  1  0
 33 34  2  0
 34 35  1  0
 35 36  2  0
 36 37  1  0
 37 38  1  0
 38 39  1  0
 37 40  2  0
 32 41  1  0
 41 42  1  0
 42 43  1  0
 43 44  1  0
 44 45  1  0
 45 46  1  0
 46 47  2  0
 47 48  1  0
 48 49  1  0
 46 50  1  0
 50 51  1  0
 51 52  1  0
 52 53  1  0
 53 54  1  0
 54 55  1  0
 55 56  2  0
 56 57  1  0
 57 58  2  0
 58 59  1  0
 59 60  1  0
 60 61  1  0
 59 62  2  0
 54 63  2  0
 63 64  1  0
 64 65  1  0
 65 66  1  0
 66 67  1  0
 67 68  1  0
 68 69  1  0
 69 70  1  0
 70 71  1  0
 71 72  1  0
 72 73  1  0
 70 74  1  0
 74 75  1  0
 67 76  1  0
 76 77  1  0
 63 78  1  0
 78 79  1  0
 79 80  1  0
 80 81  1  0
 81 82  2  0
 82 83  1  0
 83 84  1  0
 84 85  1  0
 83 86  1  0
 86 87  1  0
 82 88  1  0
 88 89  2  0
 89 90  1  0
 89 91  1  0
 91 92  2  3
 92 93  1  0
 93 94  2  0
 93 95  1  0
 95 96  2  0
 96 97  1  0
 97 98  2  0
 98 99  1  0
 99100  1  0
 98101  1  0
101102  2  0
102103  1  0
103104  2  3
104105  1  0
105106  3  0
104107  1  0
107108  3  0
 12  2  1  0
 27 18  2  0
 73 31  1  0
 87 78  2  0
103 92  1  0
 11  5  1  0
 26 20  2  0
 40 33  1  0
 72 41  2  0
 86 80  2  0
102 95  1  0
 30 21  1  0
 71 43  2  0
 90 81  1  0
 69 44  2  0
 49 45  2  0
 68 50  2  0
 66 51  2  0
 65 53  2  0
 62 55  1  0
  1109  1  0
  6110  1  0
  8111  1  0
  8112  1  0
  8113  1  0
  9114  1  0
 10115  1  0
 24116  1  0
 24117  1  0
 25118  1  0
 25119  1  0
 25120  1  0
 27121  1  0
 28122  1  0
 34123  1  0
 35124  1  0
 36125  1  0
 38126  1  0
 38127  1  0
 39128  1  0
 39129  1  0
 39130  1  0
 40131  1  0
 56132  1  0
 57133  1  0
 58134  1  0
 60135  1  0
 60136  1  0
 61137  1  0
 61138  1  0
 61139  1  0
 62140  1  0
 74141  1  0
 74142  1  0
 75143  1  0
 75144  1  0
 75145  1  0
 76146  1  0
 76147  1  0
 77148  1  0
 77149  1  0
 77150  1  0
 84151  1  0
 84152  1  0
 85153  1  0
 85154  1  0
 85155  1  0
 87156  1  0
 88157  1  0
 91158  1  0
 96159  1  0
 97160  1  0
100161  1  0
100162  1  0
100163  1  0
101164  1  0
M  END

