
     RDKit          3D

136152  0  0  0  0  0  0  0  0999 V2000
   -8.3087    2.8039   -1.2296 C   0  0  0  0  0  0  0  0  0  0  0  0
   -8.8037    2.0026   -0.2603 C   0  0  0  0  0  0  0  0  0  0  0  0
   -8.5134    2.1086    1.1766 C   0  0  0  0  0  0  0  0  0  0  0  0
   -8.0982    3.1302    1.7836 O   0  0  0  0  0  0  0  0  0  0  0  0
   -8.9135    0.8789    1.8177 C   0  0  0  0  0  0  0  0  0  0  0  0
   -8.7137    0.5006    3.1442 C   0  0  0  0  0  0  0  0  0  0  0  0
   -9.1252   -0.7789    3.5500 C   0  0  0  0  0  0  0  0  0  0  0  0
   -8.9437   -1.1970    4.9786 C   0  0  0  0  0  0  0  0  0  0  0  0
   -9.7302   -1.6461    2.6151 C   0  0  0  0  0  0  0  0  0  0  0  0
   -9.9153   -1.2439    1.2831 C   0  0  0  0  0  0  0  0  0  0  0  0
   -9.5199    0.0477    0.8942 C   0  0  0  0  0  0  0  0  0  0  0  0
   -9.5965    0.7389   -0.4307 C   0  0  0  0  0  0  0  0  0  0  0  0
  -10.3727    0.3800   -1.4895 C   0  0  0  0  0  0  0  0  0  0  0  0
  -11.1823   -0.8096   -1.4911 C   0  0  0  0  0  0  0  0  0  0  0  0
  -11.8405   -1.7629   -1.5059 N   0  0  0  0  0  0  0  0  0  0  0  0
  -10.5486    1.2134   -2.6483 C   0  0  0  0  0  0  0  0  0  0  0  0
  -10.7031    1.8711   -3.5905 N   0  0  0  0  0  0  0  0  0  0  0  0
   -7.2864    3.8391   -1.0069 C   0  0  0  0  0  0  0  0  0  0  0  0
   -7.2530    5.0102   -1.6874 N   0  0  0  0  0  0  0  0  0  0  0  0
   -6.1643    5.7416   -1.4397 N   0  0  0  0  0  0  0  0  0  0  0  0
   -5.3098    5.1469   -0.5778 C   0  0  0  0  0  0  0  0  0  0  0  0
   -5.8865    3.6449   -0.0912 S   0  0  0  0  0  0  0  0  0  0  0  0
   -4.0188    5.7038   -0.1531 C   0  0  0  0  0  0  0  0  0  0  0  0
   -3.0960    6.4303   -0.9373 C   0  0  0  0  0  0  0  0  0  0  0  0
   -3.2407    6.7305   -2.3791 C   0  0  0  0  0  0  0  0  0  0  0  0
   -3.6757    5.7467   -3.2819 C   0  0  0  0  0  0  0  0  0  0  0  0
   -3.8180    6.0454   -4.6374 C   0  0  0  0  0  0  0  0  0  0  0  0
   -3.5119    7.3227   -5.1084 C   0  0  0  0  0  0  0  0  0  0  0  0
   -3.0306    8.3032   -4.2315 C   0  0  0  0  0  0  0  0  0  0  0  0
   -2.7227    9.6880   -4.7392 C   0  0  0  0  0  0  0  0  0  0  0  0
   -3.9541   10.5815   -4.6363 C   0  0  0  0  0  0  0  0  0  0  0  0
   -2.9030    8.0045   -2.8648 C   0  0  0  0  0  0  0  0  0  0  0  0
   -1.8959    6.6249   -0.2364 C   0  0  0  0  0  0  0  0  0  0  0  0
   -0.3073    6.8261   -0.8154 S   0  0  0  0  0  0  0  0  0  0  0  0
    0.3755    6.2512    0.6299 C   0  0  0  0  0  0  0  0  0  0  0  0
    1.4478    5.4154    0.8434 C   0  0  0  0  0  0  0  0  0  0  0  0
    2.6681    5.2818    0.1762 C   0  0  0  0  0  0  0  0  0  0  0  0
    3.5253    4.1929    0.5241 C   0  0  0  0  0  0  0  0  0  0  0  0
    4.6926    4.0931   -0.1597 N   0  0  0  0  0  0  0  0  0  0  0  0
    4.5589    5.4200   -1.1432 S   0  0  0  0  0  0  0  0  0  0  0  0
    3.1030    6.1280   -0.7901 N   0  0  0  0  0  0  0  0  0  0  0  0
    3.0778    3.2488    1.4628 C   0  0  0  0  0  0  0  0  0  0  0  0
    3.4840    1.9537    1.6446 C   0  0  0  0  0  0  0  0  0  0  0  0
    4.5234    0.9178    0.7810 S   0  0  0  0  0  0  0  0  0  0  0  0
    3.6078   -0.4450    1.2231 C   0  0  0  0  0  0  0  0  0  0  0  0
    3.6293   -1.7793    0.8064 C   0  0  0  0  0  0  0  0  0  0  0  0
    4.6692   -2.3302   -0.0734 C   0  0  0  0  0  0  0  0  0  0  0  0
    4.6431   -2.0657   -1.4491 C   0  0  0  0  0  0  0  0  0  0  0  0
    5.5994   -2.6364   -2.2921 C   0  0  0  0  0  0  0  0  0  0  0  0
    6.5864   -3.4721   -1.7642 C   0  0  0  0  0  0  0  0  0  0  0  0
    6.6356   -3.7277   -0.3853 C   0  0  0  0  0  0  0  0  0  0  0  0
    7.6598   -4.6792    0.1724 C   0  0  0  0  0  0  0  0  0  0  0  0
    7.1119   -6.1021    0.1910 C   0  0  0  0  0  0  0  0  0  0  0  0
    5.6717   -3.1517    0.4579 C   0  0  0  0  0  0  0  0  0  0  0  0
    2.4761   -2.4670    1.2445 C   0  0  0  0  0  0  0  0  0  0  0  0
    1.4791   -1.3914    2.1059 S   0  0  0  0  0  0  0  0  0  0  0  0
    2.5117   -0.0815    1.9600 C   0  0  0  0  0  0  0  0  0  0  0  0
    2.4351    1.2876    2.2087 C   0  0  0  0  0  0  0  0  0  0  0  0
    1.3663    2.0917    2.4435 N   0  0  0  0  0  0  0  0  0  0  0  0
    1.8004    3.3338    2.0450 C   0  0  0  0  0  0  0  0  0  0  0  0
    1.0409    4.5115    1.8281 C   0  0  0  0  0  0  0  0  0  0  0  0
   -0.1937    4.8376    2.3015 N   0  0  0  0  0  0  0  0  0  0  0  0
   -0.5954    5.8633    1.5172 C   0  0  0  0  0  0  0  0  0  0  0  0
   -1.8729    6.0907    1.0300 C   0  0  0  0  0  0  0  0  0  0  0  0
   -3.3096    5.2982    1.3359 S   0  0  0  0  0  0  0  0  0  0  0  0
   -0.7465    4.5158    3.6228 C   0  0  0  0  0  0  0  0  0  0  0  0
   -0.9506    5.7734    4.4635 C   0  0  0  0  0  0  0  0  0  0  0  0
   -0.0205    1.5945    2.4613 C   0  0  0  0  0  0  0  0  0  0  0  0
   -0.3735    0.9685    3.8129 C   0  0  0  0  0  0  0  0  0  0  0  0
    2.0635   -3.8502    0.9417 C   0  0  0  0  0  0  0  0  0  0  0  0
    0.8247   -4.3191    1.2182 N   0  0  0  0  0  0  0  0  0  0  0  0
    0.6478   -5.5988    0.8888 N   0  0  0  0  0  0  0  0  0  0  0  0
    1.7529   -6.1737    0.3706 C   0  0  0  0  0  0  0  0  0  0  0  0
    3.0101   -5.0585    0.2414 S   0  0  0  0  0  0  0  0  0  0  0  0
    1.7805   -7.5525   -0.1296 C   0  0  0  0  0  0  0  0  0  0  0  0
    2.7386   -8.4387    0.1952 C   0  0  0  0  0  0  0  0  0  0  0  0
    3.8697   -8.1992    1.1009 C   0  0  0  0  0  0  0  0  0  0  0  0
    3.9286   -7.3295    2.0097 O   0  0  0  0  0  0  0  0  0  0  0  0
    4.8866   -9.1877    0.8254 C   0  0  0  0  0  0  0  0  0  0  0  0
    6.1851   -9.2386    1.3252 C   0  0  0  0  0  0  0  0  0  0  0  0
    7.0674  -10.1994    0.8049 C   0  0  0  0  0  0  0  0  0  0  0  0
    8.3942  -10.2641    1.2519 C   0  0  0  0  0  0  0  0  0  0  0  0
    9.2764  -11.1970    0.7013 C   0  0  0  0  0  0  0  0  0  0  0  0
    8.8433  -12.0711   -0.3001 C   0  0  0  0  0  0  0  0  0  0  0  0
    9.7084  -12.9655   -0.8349 F   0  0  0  0  0  0  0  0  0  0  0  0
    7.5226  -12.0233   -0.7541 C   0  0  0  0  0  0  0  0  0  0  0  0
    6.6236  -11.0917   -0.2124 C   0  0  0  0  0  0  0  0  0  0  0  0
    5.2965  -11.0221   -0.6839 C   0  0  0  0  0  0  0  0  0  0  0  0
    4.4244  -10.0721   -0.1303 C   0  0  0  0  0  0  0  0  0  0  0  0
    3.0078   -9.7528   -0.4652 C   0  0  0  0  0  0  0  0  0  0  0  0
    2.0941  -10.5949   -1.0089 C   0  0  0  0  0  0  0  0  0  0  0  0
    2.4412  -11.9184   -1.4542 C   0  0  0  0  0  0  0  0  0  0  0  0
    2.7045  -12.9854   -1.8198 N   0  0  0  0  0  0  0  0  0  0  0  0
    0.6863  -10.2910   -1.0334 C   0  0  0  0  0  0  0  0  0  0  0  0
   -0.4471  -10.0582   -1.0538 N   0  0  0  0  0  0  0  0  0  0  0  0
   -8.5713    2.6509   -2.2605 H   0  0  0  0  0  0  0  0  0  0  0  0
   -8.2365    1.1773    3.8411 H   0  0  0  0  0  0  0  0  0  0  0  0
   -7.9241   -0.9314    5.3245 H   0  0  0  0  0  0  0  0  0  0  0  0
   -9.0777   -2.2939    5.1009 H   0  0  0  0  0  0  0  0  0  0  0  0
   -9.6889   -0.6723    5.6134 H   0  0  0  0  0  0  0  0  0  0  0  0
  -10.0469   -2.6396    2.9164 H   0  0  0  0  0  0  0  0  0  0  0  0
  -10.3324   -1.9550    0.5899 H   0  0  0  0  0  0  0  0  0  0  0  0
   -3.9018    4.7467   -2.9378 H   0  0  0  0  0  0  0  0  0  0  0  0
   -4.1700    5.2864   -5.3238 H   0  0  0  0  0  0  0  0  0  0  0  0
   -3.6409    7.5432   -6.1597 H   0  0  0  0  0  0  0  0  0  0  0  0
   -2.3942    9.6411   -5.7993 H   0  0  0  0  0  0  0  0  0  0  0  0
   -1.8925   10.1368   -4.1509 H   0  0  0  0  0  0  0  0  0  0  0  0
   -4.2927   10.6561   -3.5793 H   0  0  0  0  0  0  0  0  0  0  0  0
   -3.7080   11.6000   -5.0040 H   0  0  0  0  0  0  0  0  0  0  0  0
   -4.7816   10.1708   -5.2540 H   0  0  0  0  0  0  0  0  0  0  0  0
   -2.5526    8.7664   -2.1783 H   0  0  0  0  0  0  0  0  0  0  0  0
    3.8753   -1.4313   -1.8704 H   0  0  0  0  0  0  0  0  0  0  0  0
    5.5698   -2.4415   -3.3565 H   0  0  0  0  0  0  0  0  0  0  0  0
    7.3105   -3.9246   -2.4275 H   0  0  0  0  0  0  0  0  0  0  0  0
    7.9362   -4.3812    1.2081 H   0  0  0  0  0  0  0  0  0  0  0  0
    8.5855   -4.6478   -0.4405 H   0  0  0  0  0  0  0  0  0  0  0  0
    6.2306   -6.1640    0.8628 H   0  0  0  0  0  0  0  0  0  0  0  0
    6.8151   -6.4188   -0.8304 H   0  0  0  0  0  0  0  0  0  0  0  0
    7.8949   -6.7995    0.5627 H   0  0  0  0  0  0  0  0  0  0  0  0
    5.6842   -3.3646    1.5202 H   0  0  0  0  0  0  0  0  0  0  0  0
   -0.0395    3.8677    4.1759 H   0  0  0  0  0  0  0  0  0  0  0  0
   -1.7204    3.9930    3.5115 H   0  0  0  0  0  0  0  0  0  0  0  0
   -1.7165    6.4317    4.0039 H   0  0  0  0  0  0  0  0  0  0  0  0
   -1.3028    5.4899    5.4783 H   0  0  0  0  0  0  0  0  0  0  0  0
    0.0082    6.3275    4.5647 H   0  0  0  0  0  0  0  0  0  0  0  0
   -0.1536    0.8465    1.6546 H   0  0  0  0  0  0  0  0  0  0  0  0
   -0.7470    2.3806    2.1999 H   0  0  0  0  0  0  0  0  0  0  0  0
   -0.4905    1.7376    4.5960 H   0  0  0  0  0  0  0  0  0  0  0  0
   -1.3328    0.4158    3.7220 H   0  0  0  0  0  0  0  0  0  0  0  0
    0.4144    0.2608    4.1412 H   0  0  0  0  0  0  0  0  0  0  0  0
    1.0179   -7.8035   -0.8475 H   0  0  0  0  0  0  0  0  0  0  0  0
    6.5106   -8.5267    2.0754 H   0  0  0  0  0  0  0  0  0  0  0  0
    8.7479   -9.5886    2.0219 H   0  0  0  0  0  0  0  0  0  0  0  0
   10.3004  -11.2399    1.0501 H   0  0  0  0  0  0  0  0  0  0  0  0
    7.2037  -12.7094   -1.5296 H   0  0  0  0  0  0  0  0  0  0  0  0
    4.9867  -11.6660   -1.4927 H   0  0  0  0  0  0  0  0  0  0  0  0
  1  2  2  3
  2  3  1  0
  3  4  2  0
  3  5  1  0
  5  6  2  0
  6  7  1  0
  7  8  1  0
  7  9  2  0
  9 10  1  0
 10 11  2  0
 11 12  1  0
 12 13  2  3
 13 14  1  0
 14 15  3  0
 13 16  1  0
 16 17  3  0
  1 18  1  0
 18 19  2  0
 19 20  1  0
 20 21  2  0
 21 22  1  0
 21 23  1  0
 23 24  2  0
 24 25  1  0
 25 26  2  0
 26 27  1  0
 27 28  2  0
 28 29  1  0
 29 30  1  0
 30 31  1  0
 29 32  2  0
 24 33  1  0
 33 34  1  0
 34 35  1  0
 35 36  1  0
 36 37  1  0
 37 38  1  0
 38 39  2  0
 39 40  1  0
 40 41  1  0
 38 42  1  0
 42 43  1  0
 43 44  1  0
 44 45  1  0
 45 46  1  0
 46 47  1  0
 47 48  2  0
 48 49  1  0
 49 50  2  0
 50 51  1  0
 51 52  1  0
 52 53  1  0
 51 54  2  0
 46 55  2  0
 55 56  1  0
 56 57  1  0
 57 58  1  0
 58 59  1  0
 59 60  1  0
 60 61  1  0
 61 62  1  0
 62 63  1  0
 63 64  1  0
 64 65  1  0
 62 66  1  0
 66 67  1  0
 59 68  1  0
 68 69  1  0
 55 70  1  0
 70 71  2  0
 71 72  1  0
 72 73  2  0
 73 74  1  0
 73 75  1  0
 75 76  2  3
 76 77  1  0
 77 78  2  0
 77 79  1  0
 79 80  2  0
 80 81  1  0
 81 82  2  0
 82 83  1  0
 83 84  2  0
 84 85  1  0
 84 86  1  0
 86 87  2  0
 87 88  1  0
 88 89  2  0
 89 90  1  0
 90 91  2  3
 91 92  1  0
 92 93  3  0
 91 94  1  0
 94 95  3  0
 12  2  1  0
 22 18  1  0
 65 23  1  0
 74 70  1  0
 90 76  1  0
 11  5  1  0
 32 25  1  0
 64 33  2  0
 89 79  1  0
 63 35  2  0
 87 81  1  0
 61 36  2  0
 41 37  2  0
 60 42  2  0
 58 43  2  0
 57 45  2  0
 54 47  1  0
  1 96  1  0
  6 97  1  0
  8 98  1  0
  8 99  1  0
  8100  1  0
  9101  1  0
 10102  1  0
 26103  1  0
 27104  1  0
 28105  1  0
 30106  1  0
 30107  1  0
 31108  1  0
 31109  1  0
 31110  1  0
 32111  1  0
 48112  1  0
 49113  1  0
 50114  1  0
 52115  1  0
 52116  1  0
 53117  1  0
 53118  1  0
 53119  1  0
 54120  1  0
 66121  1  0
 66122  1  0
 67123  1  0
 67124  1  0
 67125  1  0
 68126  1  0
 68127  1  0
 69128  1  0
 69129  1  0
 69130  1  0
 75131  1  0
 80132  1  0
 82133  1  0
 83134  1  0
 86135  1  0
 88136  1  0
M  END

