
     RDKit          3D

139154  0  0  0  0  0  0  0  0999 V2000
    1.1986    7.2882   -4.9440 C   0  0  0  0  0  0  0  0  0  0  0  0
    1.8499    7.0262   -3.7819 C   0  0  0  0  0  0  0  0  0  0  0  0
    1.1725    6.8713   -2.4728 C   0  0  0  0  0  0  0  0  0  0  0  0
    0.0108    7.2955   -2.1420 O   0  0  0  0  0  0  0  0  0  0  0  0
    2.0347    6.0732   -1.6062 C   0  0  0  0  0  0  0  0  0  0  0  0
    1.7463    5.4808   -0.3519 C   0  0  0  0  0  0  0  0  0  0  0  0
    2.7292    4.6856    0.2974 C   0  0  0  0  0  0  0  0  0  0  0  0
    2.5419    4.1076    1.6892 C   0  0  0  0  0  0  0  0  0  0  0  0
    4.0203    4.5896   -0.3101 C   0  0  0  0  0  0  0  0  0  0  0  0
    4.2590    5.1841   -1.5638 C   0  0  0  0  0  0  0  0  0  0  0  0
    3.2614    5.9205   -2.2178 C   0  0  0  0  0  0  0  0  0  0  0  0
    3.2626    6.5618   -3.5908 C   0  0  0  0  0  0  0  0  0  0  0  0
    4.3282    6.7169   -4.4389 C   0  0  0  0  0  0  0  0  0  0  0  0
    5.6119    6.1566   -4.2128 C   0  0  0  0  0  0  0  0  0  0  0  0
    6.6590    5.6819   -4.0214 N   0  0  0  0  0  0  0  0  0  0  0  0
    4.1784    7.4249   -5.6987 C   0  0  0  0  0  0  0  0  0  0  0  0
    4.0035    7.9154   -6.7375 N   0  0  0  0  0  0  0  0  0  0  0  0
   -0.2539    7.2478   -5.0087 C   0  0  0  0  0  0  0  0  0  0  0  0
   -0.8714    6.0949   -4.8554 N   0  0  0  0  0  0  0  0  0  0  0  0
   -2.0960    6.1345   -4.3989 N   0  0  0  0  0  0  0  0  0  0  0  0
   -2.7177    4.9623   -4.5682 C   0  0  0  0  0  0  0  0  0  0  0  0
   -1.0749    5.6600   -4.8042 S   0  0  0  0  0  0  0  0  0  0  0  0
   -2.9938    4.1151   -3.4044 C   0  0  0  0  0  0  0  0  0  0  0  0
   -3.8767    4.4163   -2.3640 C   0  0  0  0  0  0  0  0  0  0  0  0
   -4.7017    5.6416   -2.2674 C   0  0  0  0  0  0  0  0  0  0  0  0
   -5.5650    6.0121   -3.3094 C   0  0  0  0  0  0  0  0  0  0  0  0
   -6.2977    7.2144   -3.2064 C   0  0  0  0  0  0  0  0  0  0  0  0
   -6.1070    8.0624   -2.1072 C   0  0  0  0  0  0  0  0  0  0  0  0
   -5.2053    7.7207   -1.0841 C   0  0  0  0  0  0  0  0  0  0  0  0
   -5.0191    8.6503    0.1146 C   0  0  0  0  0  0  0  0  0  0  0  0
   -6.0892    8.3768    1.1734 C   0  0  0  0  0  0  0  0  0  0  0  0
   -4.5567    6.4711   -1.1225 C   0  0  0  0  0  0  0  0  0  0  0  0
   -3.7041    3.4677   -1.3656 C   0  0  0  0  0  0  0  0  0  0  0  0
   -4.3813    3.2338    0.1877 S   0  0  0  0  0  0  0  0  0  0  0  0
   -3.3823    1.8818    0.4699 C   0  0  0  0  0  0  0  0  0  0  0  0
   -3.1231    0.9110    1.3917 C   0  0  0  0  0  0  0  0  0  0  0  0
   -3.8620    0.4625    2.5095 C   0  0  0  0  0  0  0  0  0  0  0  0
   -3.4659   -0.7361    3.1500 C   0  0  0  0  0  0  0  0  0  0  0  0
   -4.2140   -1.1315    4.2094 N   0  0  0  0  0  0  0  0  0  0  0  0
   -5.3335    0.0837    4.2491 S   0  0  0  0  0  0  0  0  0  0  0  0
   -4.9638    1.0926    2.9746 N   0  0  0  0  0  0  0  0  0  0  0  0
   -2.3526   -1.4446    2.6228 C   0  0  0  0  0  0  0  0  0  0  0  0
   -1.6383   -2.4704    3.1498 C   0  0  0  0  0  0  0  0  0  0  0  0
   -1.5955   -3.3556    4.5833 S   0  0  0  0  0  0  0  0  0  0  0  0
   -0.0202   -3.9440    4.2293 C   0  0  0  0  0  0  0  0  0  0  0  0
    0.9338   -4.6603    4.9854 C   0  0  0  0  0  0  0  0  0  0  0  0
    0.6249   -5.1842    6.3360 C   0  0  0  0  0  0  0  0  0  0  0  0
    1.3214   -4.7232    7.4618 C   0  0  0  0  0  0  0  0  0  0  0  0
    0.9393   -5.1023    8.7506 C   0  0  0  0  0  0  0  0  0  0  0  0
   -0.1164   -6.0048    8.9270 C   0  0  0  0  0  0  0  0  0  0  0  0
   -0.8124   -6.5132    7.8105 C   0  0  0  0  0  0  0  0  0  0  0  0
   -1.9535   -7.4605    7.9941 C   0  0  0  0  0  0  0  0  0  0  0  0
   -1.5153   -8.9061    7.8869 C   0  0  0  0  0  0  0  0  0  0  0  0
   -0.4378   -6.0866    6.5229 C   0  0  0  0  0  0  0  0  0  0  0  0
    2.1954   -4.6417    4.3381 C   0  0  0  0  0  0  0  0  0  0  0  0
    2.0670   -3.7363    2.8992 S   0  0  0  0  0  0  0  0  0  0  0  0
    0.4594   -3.3743    3.0755 C   0  0  0  0  0  0  0  0  0  0  0  0
   -0.4740   -2.5470    2.4447 C   0  0  0  0  0  0  0  0  0  0  0  0
   -0.3758   -1.5974    1.4764 N   0  0  0  0  0  0  0  0  0  0  0  0
   -1.6015   -0.9702    1.5363 C   0  0  0  0  0  0  0  0  0  0  0  0
   -2.0598    0.1567    0.8451 C   0  0  0  0  0  0  0  0  0  0  0  0
   -1.7665    0.5452   -0.4291 N   0  0  0  0  0  0  0  0  0  0  0  0
   -2.5793    1.6182   -0.5848 C   0  0  0  0  0  0  0  0  0  0  0  0
   -2.8045    2.4835   -1.6431 C   0  0  0  0  0  0  0  0  0  0  0  0
   -2.0844    2.7111   -3.1467 S   0  0  0  0  0  0  0  0  0  0  0  0
   -1.3602   -0.3480   -1.5422 C   0  0  0  0  0  0  0  0  0  0  0  0
   -2.5489   -0.9253   -2.2784 C   0  0  0  0  0  0  0  0  0  0  0  0
    0.8767   -1.0610    0.9066 C   0  0  0  0  0  0  0  0  0  0  0  0
    1.6696   -0.3022    1.9675 C   0  0  0  0  0  0  0  0  0  0  0  0
    3.4645   -5.1127    4.8918 C   0  0  0  0  0  0  0  0  0  0  0  0
    4.2570   -6.0552    4.3147 C   0  0  0  0  0  0  0  0  0  0  0  0
    3.7687   -6.8983    3.2020 C   0  0  0  0  0  0  0  0  0  0  0  0
    3.7600   -6.4013    1.9472 C   0  0  0  0  0  0  0  0  0  0  0  0
    2.9338   -7.0507    0.8779 C   0  0  0  0  0  0  0  0  0  0  0  0
    2.7929   -6.4552   -0.3174 C   0  0  0  0  0  0  0  0  0  0  0  0
    3.9410   -6.2348   -1.1999 C   0  0  0  0  0  0  0  0  0  0  0  0
    5.1620   -6.2164   -0.8436 O   0  0  0  0  0  0  0  0  0  0  0  0
    3.4532   -6.2181   -2.5765 C   0  0  0  0  0  0  0  0  0  0  0  0
    4.1992   -6.1356   -3.7419 C   0  0  0  0  0  0  0  0  0  0  0  0
    3.5344   -6.1803   -4.9725 C   0  0  0  0  0  0  0  0  0  0  0  0
    4.2577   -6.1165   -6.1627 C   0  0  0  0  0  0  0  0  0  0  0  0
    3.5762   -6.0931   -7.3968 C   0  0  0  0  0  0  0  0  0  0  0  0
    2.1747   -6.1045   -7.4355 C   0  0  0  0  0  0  0  0  0  0  0  0
    1.5206   -5.9877   -8.6378 F   0  0  0  0  0  0  0  0  0  0  0  0
    1.4295   -6.2642   -6.2546 C   0  0  0  0  0  0  0  0  0  0  0  0
    2.1203   -6.3031   -5.0136 C   0  0  0  0  0  0  0  0  0  0  0  0
    1.4013   -6.4006   -3.7921 C   0  0  0  0  0  0  0  0  0  0  0  0
    2.0854   -6.4018   -2.5715 C   0  0  0  0  0  0  0  0  0  0  0  0
    1.5838   -6.5292   -1.1643 C   0  0  0  0  0  0  0  0  0  0  0  0
    0.2971   -6.4460   -0.7072 C   0  0  0  0  0  0  0  0  0  0  0  0
   -0.8275   -6.2674   -1.6071 C   0  0  0  0  0  0  0  0  0  0  0  0
   -1.7474   -6.1449   -2.2933 N   0  0  0  0  0  0  0  0  0  0  0  0
   -0.0362   -6.4108    0.6883 C   0  0  0  0  0  0  0  0  0  0  0  0
   -0.3321   -6.3790    1.8050 N   0  0  0  0  0  0  0  0  0  0  0  0
    1.7027    7.2817   -5.8831 H   0  0  0  0  0  0  0  0  0  0  0  0
    0.7714    5.6418    0.1173 H   0  0  0  0  0  0  0  0  0  0  0  0
    1.4744    3.9461    1.9009 H   0  0  0  0  0  0  0  0  0  0  0  0
    3.0227    3.1070    1.7398 H   0  0  0  0  0  0  0  0  0  0  0  0
    3.0011    4.7632    2.4720 H   0  0  0  0  0  0  0  0  0  0  0  0
    4.8136    4.0599    0.1868 H   0  0  0  0  0  0  0  0  0  0  0  0
    5.2361    5.0893   -1.9700 H   0  0  0  0  0  0  0  0  0  0  0  0
   -5.7278    5.3728   -4.1873 H   0  0  0  0  0  0  0  0  0  0  0  0
   -6.9932    7.4678   -3.9819 H   0  0  0  0  0  0  0  0  0  0  0  0
   -6.6961    8.9851   -2.0183 H   0  0  0  0  0  0  0  0  0  0  0  0
   -4.0161    8.5626    0.5756 H   0  0  0  0  0  0  0  0  0  0  0  0
   -5.1208    9.7178   -0.2195 H   0  0  0  0  0  0  0  0  0  0  0  0
   -5.9945    7.3382    1.5916 H   0  0  0  0  0  0  0  0  0  0  0  0
   -7.1200    8.5253    0.7703 H   0  0  0  0  0  0  0  0  0  0  0  0
   -5.8996    9.0927    2.0124 H   0  0  0  0  0  0  0  0  0  0  0  0
   -3.8743    6.1720   -0.3288 H   0  0  0  0  0  0  0  0  0  0  0  0
    2.1393   -4.0134    7.3357 H   0  0  0  0  0  0  0  0  0  0  0  0
    1.4080   -4.6478    9.6003 H   0  0  0  0  0  0  0  0  0  0  0  0
   -0.3744   -6.2889    9.9342 H   0  0  0  0  0  0  0  0  0  0  0  0
   -2.4591   -7.2931    8.9710 H   0  0  0  0  0  0  0  0  0  0  0  0
   -2.7131   -7.2737    7.1964 H   0  0  0  0  0  0  0  0  0  0  0  0
   -1.0215   -9.0858    6.9040 H   0  0  0  0  0  0  0  0  0  0  0  0
   -0.7655   -9.1551    8.6950 H   0  0  0  0  0  0  0  0  0  0  0  0
   -2.3819   -9.6013    7.9656 H   0  0  0  0  0  0  0  0  0  0  0  0
   -0.9927   -6.4709    5.6865 H   0  0  0  0  0  0  0  0  0  0  0  0
   -0.8087   -1.2348   -1.1423 H   0  0  0  0  0  0  0  0  0  0  0  0
   -0.6974    0.2314   -2.2204 H   0  0  0  0  0  0  0  0  0  0  0  0
   -3.2335   -1.4461   -1.5685 H   0  0  0  0  0  0  0  0  0  0  0  0
   -2.2069   -1.6122   -3.0788 H   0  0  0  0  0  0  0  0  0  0  0  0
   -3.1610   -0.1124   -2.7305 H   0  0  0  0  0  0  0  0  0  0  0  0
    0.6597   -0.3311    0.0847 H   0  0  0  0  0  0  0  0  0  0  0  0
    1.4851   -1.8804    0.4857 H   0  0  0  0  0  0  0  0  0  0  0  0
    2.0053   -0.9604    2.8073 H   0  0  0  0  0  0  0  0  0  0  0  0
    2.6158    0.0879    1.5073 H   0  0  0  0  0  0  0  0  0  0  0  0
    1.1012    0.5343    2.4405 H   0  0  0  0  0  0  0  0  0  0  0  0
    3.8351   -4.5884    5.7955 H   0  0  0  0  0  0  0  0  0  0  0  0
    5.1467   -6.3766    4.8626 H   0  0  0  0  0  0  0  0  0  0  0  0
    3.3450   -7.8888    3.3805 H   0  0  0  0  0  0  0  0  0  0  0  0
    4.1622   -5.3995    1.7439 H   0  0  0  0  0  0  0  0  0  0  0  0
    2.3404   -8.0132    1.0585 H   0  0  0  0  0  0  0  0  0  0  0  0
    5.2810   -6.0463   -3.6836 H   0  0  0  0  0  0  0  0  0  0  0  0
    5.3421   -6.0745   -6.1466 H   0  0  0  0  0  0  0  0  0  0  0  0
    4.1365   -5.9956   -8.2974 H   0  0  0  0  0  0  0  0  0  0  0  0
    0.3356   -6.2627   -6.3216 H   0  0  0  0  0  0  0  0  0  0  0  0
    0.3436   -6.5292   -3.8597 H   0  0  0  0  0  0  0  0  0  0  0  0
  1  2  2  3
  2  3  1  0
  3  4  2  0
  3  5  1  0
  5  6  2  0
  6  7  1  0
  7  8  1  0
  7  9  2  0
  9 10  1  0
 10 11  2  0
 11 12  1  0
 12 13  2  3
 13 14  1  0
 14 15  3  0
 13 16  1  0
 16 17  3  0
  1 18  1  0
 18 19  2  0
 19 20  1  0
 20 21  2  0
 21 22  1  0
 21 23  1  0
 23 24  2  0
 24 25  1  0
 25 26  2  0
 26 27  1  0
 27 28  2  0
 28 29  1  0
 29 30  1  0
 30 31  1  0
 29 32  2  0
 24 33  1  0
 33 34  1  0
 34 35  1  0
 35 36  1  0
 36 37  1  0
 37 38  1  0
 38 39  2  0
 39 40  1  0
 40 41  1  0
 38 42  1  0
 42 43  1  0
 43 44  1  0
 44 45  1  0
 45 46  1  0
 46 47  1  0
 47 48  2  0
 48 49  1  0
 49 50  2  0
 50 51  1  0
 51 52  1  0
 52 53  1  0
 51 54  2  0
 46 55  2  0
 55 56  1  0
 56 57  1  0
 57 58  1  0
 58 59  1  0
 59 60  1  0
 60 61  1  0
 61 62  1  0
 62 63  1  0
 63 64  1  0
 64 65  1  0
 62 66  1  0
 66 67  1  0
 59 68  1  0
 68 69  1  0
 55 70  1  0
 70 71  2  3
 71 72  1  0
 72 73  2  3
 73 74  1  0
 74 75  2  3
 75 76  1  0
 76 77  2  0
 76 78  1  0
 78 79  2  0
 79 80  1  0
 80 81  2  0
 81 82  1  0
 82 83  2  0
 83 84  1  0
 83 85  1  0
 85 86  2  0
 86 87  1  0
 87 88  2  0
 88 89  1  0
 89 90  2  3
 90 91  1  0
 91 92  3  0
 90 93  1  0
 93 94  3  0
 12  2  1  0
 22 18  1  0
 65 23  1  0
 89 75  1  0
 11  5  1  0
 32 25  1  0
 64 33  2  0
 88 78  1  0
 63 35  2  0
 86 80  1  0
 61 36  2  0
 41 37  2  0
 60 42  2  0
 58 43  2  0
 57 45  2  0
 54 47  1  0
  1 95  1  0
  6 96  1  0
  8 97  1  0
  8 98  1  0
  8 99  1  0
  9100  1  0
 10101  1  0
 26102  1  0
 27103  1  0
 28104  1  0
 30105  1  0
 30106  1  0
 31107  1  0
 31108  1  0
 31109  1  0
 32110  1  0
 48111  1  0
 49112  1  0
 50113  1  0
 52114  1  0
 52115  1  0
 53116  1  0
 53117  1  0
 53118  1  0
 54119  1  0
 66120  1  0
 66121  1  0
 67122  1  0
 67123  1  0
 67124  1  0
 68125  1  0
 68126  1  0
 69127  1  0
 69128  1  0
 69129  1  0
 70130  1  0
 71131  1  0
 72132  1  0
 73133  1  0
 74134  1  0
 79135  1  0
 81136  1  0
 82137  1  0
 85138  1  0
 87139  1  0
M  END

