
     RDKit          3D

168186  0  0  0  0  0  0  0  0999 V2000
   -5.6916    5.5360   -4.5413 C   0  0  0  0  0  0  0  0  0  0  0  0
   -6.2899    6.0134   -3.4343 C   0  0  0  0  0  0  0  0  0  0  0  0
   -7.7382    6.0426   -3.2536 C   0  0  0  0  0  0  0  0  0  0  0  0
   -8.6052    5.9440   -4.1662 O   0  0  0  0  0  0  0  0  0  0  0  0
   -8.0141    6.0328   -1.8291 C   0  0  0  0  0  0  0  0  0  0  0  0
   -9.2504    5.9449   -1.1896 C   0  0  0  0  0  0  0  0  0  0  0  0
   -9.2820    5.9188    0.2205 C   0  0  0  0  0  0  0  0  0  0  0  0
  -10.6004    5.8721    0.9330 C   0  0  0  0  0  0  0  0  0  0  0  0
   -8.0717    5.9828    0.9439 C   0  0  0  0  0  0  0  0  0  0  0  0
   -6.8365    6.0550    0.2755 C   0  0  0  0  0  0  0  0  0  0  0  0
   -6.8240    6.0864   -1.1271 C   0  0  0  0  0  0  0  0  0  0  0  0
   -5.6918    6.2127   -2.0818 C   0  0  0  0  0  0  0  0  0  0  0  0
   -4.4834    6.7692   -1.8382 C   0  0  0  0  0  0  0  0  0  0  0  0
   -3.7129    7.3611   -2.9057 C   0  0  0  0  0  0  0  0  0  0  0  0
   -3.0923    7.8532   -3.7498 N   0  0  0  0  0  0  0  0  0  0  0  0
   -3.9884    7.0108   -0.5090 C   0  0  0  0  0  0  0  0  0  0  0  0
   -3.5721    7.2108    0.5530 N   0  0  0  0  0  0  0  0  0  0  0  0
   -4.3708    4.8670   -4.5252 C   0  0  0  0  0  0  0  0  0  0  0  0
   -3.3788    5.2492   -5.4376 C   0  0  0  0  0  0  0  0  0  0  0  0
   -3.6193    6.2455   -6.3267 F   0  0  0  0  0  0  0  0  0  0  0  0
   -2.1162    4.6406   -5.4129 C   0  0  0  0  0  0  0  0  0  0  0  0
   -1.1822    5.0467   -6.3057 F   0  0  0  0  0  0  0  0  0  0  0  0
   -1.8385    3.5905   -4.5156 C   0  0  0  0  0  0  0  0  0  0  0  0
   -2.8838    3.1104   -3.6931 C   0  0  0  0  0  0  0  0  0  0  0  0
   -2.7418    1.9663   -2.9693 N   0  0  0  0  0  0  0  0  0  0  0  0
   -3.7433    1.4535   -2.2128 C   0  0  0  0  0  0  0  0  0  0  0  0
   -3.5938    0.0736   -1.7391 C   0  0  0  0  0  0  0  0  0  0  0  0
   -4.5723   -1.2062   -2.2396 S   0  0  0  0  0  0  0  0  0  0  0  0
   -3.5607   -2.4369   -1.6901 C   0  0  0  0  0  0  0  0  0  0  0  0
   -3.7218   -3.8902   -2.0118 C   0  0  0  0  0  0  0  0  0  0  0  0
   -3.2372   -4.1821   -3.4289 C   0  0  0  0  0  0  0  0  0  0  0  0
   -2.4297   -1.8515   -1.1374 C   0  0  0  0  0  0  0  0  0  0  0  0
   -2.4404   -0.4511   -1.1712 C   0  0  0  0  0  0  0  0  0  0  0  0
   -1.3785   -2.5725   -0.6694 F   0  0  0  0  0  0  0  0  0  0  0  0
   -4.9504    2.1753   -2.1012 C   0  0  0  0  0  0  0  0  0  0  0  0
   -5.1109    3.2921   -2.8607 N   0  0  0  0  0  0  0  0  0  0  0  0
   -4.1310    3.7691   -3.6751 C   0  0  0  0  0  0  0  0  0  0  0  0
   -6.0302    1.8209   -1.1549 C   0  0  0  0  0  0  0  0  0  0  0  0
   -5.9091    1.1192    0.0432 C   0  0  0  0  0  0  0  0  0  0  0  0
   -7.1016    1.0573    0.7741 C   0  0  0  0  0  0  0  0  0  0  0  0
   -7.1939    0.4101    1.9587 F   0  0  0  0  0  0  0  0  0  0  0  0
   -8.1602    1.7389    0.1871 C   0  0  0  0  0  0  0  0  0  0  0  0
   -9.5665    1.8410    0.6932 C   0  0  0  0  0  0  0  0  0  0  0  0
   -9.6188    2.4653    2.0839 C   0  0  0  0  0  0  0  0  0  0  0  0
   -7.6132    2.3968   -1.2599 S   0  0  0  0  0  0  0  0  0  0  0  0
   -0.4679    3.0108   -4.4325 C   0  0  0  0  0  0  0  0  0  0  0  0
    0.7450    3.7371   -4.3687 C   0  0  0  0  0  0  0  0  0  0  0  0
    0.8506    5.2033   -4.2361 C   0  0  0  0  0  0  0  0  0  0  0  0
    1.6310    5.9385   -5.1374 C   0  0  0  0  0  0  0  0  0  0  0  0
    1.7229    7.3304   -5.0171 C   0  0  0  0  0  0  0  0  0  0  0  0
    1.0630    7.9922   -3.9775 C   0  0  0  0  0  0  0  0  0  0  0  0
    0.2941    7.2656   -3.0547 C   0  0  0  0  0  0  0  0  0  0  0  0
   -0.3865    7.9770   -1.9177 C   0  0  0  0  0  0  0  0  0  0  0  0
    0.5958    8.2989   -0.7981 C   0  0  0  0  0  0  0  0  0  0  0  0
    0.1876    5.8707   -3.1900 C   0  0  0  0  0  0  0  0  0  0  0  0
    1.8470    2.8792   -4.2644 C   0  0  0  0  0  0  0  0  0  0  0  0
    3.4844    3.1431   -3.8834 S   0  0  0  0  0  0  0  0  0  0  0  0
    3.7682    1.4761   -3.7092 C   0  0  0  0  0  0  0  0  0  0  0  0
    4.6213    0.7514   -2.9158 C   0  0  0  0  0  0  0  0  0  0  0  0
    5.6902    1.1896   -2.1162 C   0  0  0  0  0  0  0  0  0  0  0  0
    6.1348    0.3608   -1.0428 C   0  0  0  0  0  0  0  0  0  0  0  0
    7.1407    0.8363   -0.2660 N   0  0  0  0  0  0  0  0  0  0  0  0
    7.3827    2.3025   -0.9988 S   0  0  0  0  0  0  0  0  0  0  0  0
    6.3003    2.3932   -2.2495 N   0  0  0  0  0  0  0  0  0  0  0  0
    5.5136   -0.8770   -0.8537 C   0  0  0  0  0  0  0  0  0  0  0  0
    5.6775   -1.8658    0.0765 C   0  0  0  0  0  0  0  0  0  0  0  0
    6.6016   -2.2339    1.4527 S   0  0  0  0  0  0  0  0  0  0  0  0
    5.8246   -3.7536    1.5963 C   0  0  0  0  0  0  0  0  0  0  0  0
    5.8769   -4.7873    2.5342 C   0  0  0  0  0  0  0  0  0  0  0  0
    6.7769   -4.8080    3.7060 C   0  0  0  0  0  0  0  0  0  0  0  0
    6.8715   -3.6893    4.5523 C   0  0  0  0  0  0  0  0  0  0  0  0
    7.6791   -3.7322    5.6898 C   0  0  0  0  0  0  0  0  0  0  0  0
    8.4146   -4.8844    5.9845 C   0  0  0  0  0  0  0  0  0  0  0  0
    8.3459   -6.0030    5.1401 C   0  0  0  0  0  0  0  0  0  0  0  0
    9.1154   -7.2554    5.4649 C   0  0  0  0  0  0  0  0  0  0  0  0
    8.2120   -8.2847    6.1359 C   0  0  0  0  0  0  0  0  0  0  0  0
    7.5207   -5.9610    4.0048 C   0  0  0  0  0  0  0  0  0  0  0  0
    4.9456   -5.7995    2.2135 C   0  0  0  0  0  0  0  0  0  0  0  0
    4.1065   -5.4027    0.7761 S   0  0  0  0  0  0  0  0  0  0  0  0
    4.9274   -3.9561    0.5779 C   0  0  0  0  0  0  0  0  0  0  0  0
    4.8294   -2.8674   -0.2681 C   0  0  0  0  0  0  0  0  0  0  0  0
    4.1258   -2.6177   -1.3982 N   0  0  0  0  0  0  0  0  0  0  0  0
    4.4988   -1.3386   -1.7015 C   0  0  0  0  0  0  0  0  0  0  0  0
    3.9687   -0.4704   -2.6818 C   0  0  0  0  0  0  0  0  0  0  0  0
    2.6869   -0.4391   -3.1736 N   0  0  0  0  0  0  0  0  0  0  0  0
    2.6252    0.7412   -3.8504 C   0  0  0  0  0  0  0  0  0  0  0  0
    1.5391    1.5464   -4.1859 C   0  0  0  0  0  0  0  0  0  0  0  0
   -0.1210    1.3431   -4.2941 S   0  0  0  0  0  0  0  0  0  0  0  0
    1.5271   -1.0381   -2.4950 C   0  0  0  0  0  0  0  0  0  0  0  0
    1.2206   -0.2815   -1.2046 C   0  0  0  0  0  0  0  0  0  0  0  0
    3.7438   -3.6518   -2.3695 C   0  0  0  0  0  0  0  0  0  0  0  0
    4.9722   -4.3973   -2.8924 C   0  0  0  0  0  0  0  0  0  0  0  0
    4.5623   -6.9306    3.0764 C   0  0  0  0  0  0  0  0  0  0  0  0
    4.2059   -6.8828    4.4308 C   0  0  0  0  0  0  0  0  0  0  0  0
    4.0119   -5.6440    5.2112 C   0  0  0  0  0  0  0  0  0  0  0  0
    4.2477   -5.5035    6.5762 C   0  0  0  0  0  0  0  0  0  0  0  0
    3.9336   -4.2259    7.0654 C   0  0  0  0  0  0  0  0  0  0  0  0
    3.4467   -3.3675    6.0875 C   0  0  0  0  0  0  0  0  0  0  0  0
    2.9744   -1.9625    6.3112 C   0  0  0  0  0  0  0  0  0  0  0  0
    3.7861   -0.9720    5.4820 C   0  0  0  0  0  0  0  0  0  0  0  0
    3.3817   -4.1965    4.6230 S   0  0  0  0  0  0  0  0  0  0  0  0
    3.9322   -8.1488    4.9704 C   0  0  0  0  0  0  0  0  0  0  0  0
    4.0423   -9.1847    4.0488 C   0  0  0  0  0  0  0  0  0  0  0  0
    4.4954   -8.5314    2.5629 S   0  0  0  0  0  0  0  0  0  0  0  0
    3.7566  -10.6061    4.3000 C   0  0  0  0  0  0  0  0  0  0  0  0
    3.3644  -11.1631    5.5146 C   0  0  0  0  0  0  0  0  0  0  0  0
    3.1480  -12.5453    5.4515 C   0  0  0  0  0  0  0  0  0  0  0  0
    3.3685  -13.0680    4.1883 C   0  0  0  0  0  0  0  0  0  0  0  0
    3.2181  -14.4471    3.8219 C   0  0  0  0  0  0  0  0  0  0  0  0
    3.0879  -15.5575    3.5226 N   0  0  0  0  0  0  0  0  0  0  0  0
    3.8338  -11.8347    3.1451 S   0  0  0  0  0  0  0  0  0  0  0  0
   -6.2575    5.4869   -5.4626 H   0  0  0  0  0  0  0  0  0  0  0  0
  -10.1609    5.9157   -1.7690 H   0  0  0  0  0  0  0  0  0  0  0  0
  -11.0982    6.8619    0.8353 H   0  0  0  0  0  0  0  0  0  0  0  0
  -10.4676    5.6380    2.0108 H   0  0  0  0  0  0  0  0  0  0  0  0
  -11.2451    5.0886    0.4786 H   0  0  0  0  0  0  0  0  0  0  0  0
   -8.0717    5.9677    2.0254 H   0  0  0  0  0  0  0  0  0  0  0  0
   -5.9323    6.0497    0.8620 H   0  0  0  0  0  0  0  0  0  0  0  0
   -4.7909   -4.1790   -1.9241 H   0  0  0  0  0  0  0  0  0  0  0  0
   -3.1376   -4.5036   -1.2890 H   0  0  0  0  0  0  0  0  0  0  0  0
   -2.1734   -3.8763   -3.5381 H   0  0  0  0  0  0  0  0  0  0  0  0
   -3.3174   -5.2717   -3.6371 H   0  0  0  0  0  0  0  0  0  0  0  0
   -3.8522   -3.6312   -4.1785 H   0  0  0  0  0  0  0  0  0  0  0  0
   -1.6189    0.1647   -0.8358 H   0  0  0  0  0  0  0  0  0  0  0  0
   -4.9836    0.7011    0.4121 H   0  0  0  0  0  0  0  0  0  0  0  0
  -10.1652    2.4657   -0.0027 H   0  0  0  0  0  0  0  0  0  0  0  0
  -10.0148    0.8255    0.7206 H   0  0  0  0  0  0  0  0  0  0  0  0
   -9.0718    3.4285    2.1050 H   0  0  0  0  0  0  0  0  0  0  0  0
  -10.6751    2.6541    2.3604 H   0  0  0  0  0  0  0  0  0  0  0  0
   -9.1799    1.7834    2.8422 H   0  0  0  0  0  0  0  0  0  0  0  0
    2.1434    5.4430   -5.9522 H   0  0  0  0  0  0  0  0  0  0  0  0
    2.3121    7.8942   -5.7243 H   0  0  0  0  0  0  0  0  0  0  0  0
    1.1468    9.0661   -3.8928 H   0  0  0  0  0  0  0  0  0  0  0  0
   -0.8411    8.9222   -2.2854 H   0  0  0  0  0  0  0  0  0  0  0  0
   -1.2061    7.3535   -1.5008 H   0  0  0  0  0  0  0  0  0  0  0  0
    1.4198    8.9366   -1.1767 H   0  0  0  0  0  0  0  0  0  0  0  0
    1.0157    7.3659   -0.3665 H   0  0  0  0  0  0  0  0  0  0  0  0
    0.0719    8.8534    0.0080 H   0  0  0  0  0  0  0  0  0  0  0  0
   -0.4011    5.2997   -2.4800 H   0  0  0  0  0  0  0  0  0  0  0  0
    6.2891   -2.7992    4.3533 H   0  0  0  0  0  0  0  0  0  0  0  0
    7.7304   -2.8749    6.3507 H   0  0  0  0  0  0  0  0  0  0  0  0
    9.0371   -4.9032    6.8745 H   0  0  0  0  0  0  0  0  0  0  0  0
    9.5345   -7.6934    4.5319 H   0  0  0  0  0  0  0  0  0  0  0  0
    9.9732   -7.0265    6.1346 H   0  0  0  0  0  0  0  0  0  0  0  0
    7.7866   -7.8702    7.0765 H   0  0  0  0  0  0  0  0  0  0  0  0
    8.8040   -9.1926    6.3831 H   0  0  0  0  0  0  0  0  0  0  0  0
    7.3803   -8.5761    5.4561 H   0  0  0  0  0  0  0  0  0  0  0  0
    7.4555   -6.8282    3.3629 H   0  0  0  0  0  0  0  0  0  0  0  0
    1.6932   -2.0923   -2.2317 H   0  0  0  0  0  0  0  0  0  0  0  0
    0.6391   -1.0357   -3.1597 H   0  0  0  0  0  0  0  0  0  0  0  0
    0.4537   -0.8232   -0.6178 H   0  0  0  0  0  0  0  0  0  0  0  0
    2.1322   -0.1970   -0.5697 H   0  0  0  0  0  0  0  0  0  0  0  0
    0.8527    0.7412   -1.4280 H   0  0  0  0  0  0  0  0  0  0  0  0
    3.2416   -3.2004   -3.2451 H   0  0  0  0  0  0  0  0  0  0  0  0
    3.0449   -4.3744   -1.8956 H   0  0  0  0  0  0  0  0  0  0  0  0
    5.5001   -4.9188   -2.0653 H   0  0  0  0  0  0  0  0  0  0  0  0
    5.6747   -3.6862   -3.3814 H   0  0  0  0  0  0  0  0  0  0  0  0
    4.6590   -5.1592   -3.6360 H   0  0  0  0  0  0  0  0  0  0  0  0
    4.6306   -6.2952    7.2043 H   0  0  0  0  0  0  0  0  0  0  0  0
    4.0499   -3.9442    8.1076 H   0  0  0  0  0  0  0  0  0  0  0  0
    1.9008   -1.8921    6.0337 H   0  0  0  0  0  0  0  0  0  0  0  0
    3.0722   -1.7008    7.3875 H   0  0  0  0  0  0  0  0  0  0  0  0
    4.8723   -1.1046    5.6706 H   0  0  0  0  0  0  0  0  0  0  0  0
    3.5097    0.0647    5.7672 H   0  0  0  0  0  0  0  0  0  0  0  0
    3.5808   -1.1083    4.3971 H   0  0  0  0  0  0  0  0  0  0  0  0
    3.6143   -8.2941    5.9928 H   0  0  0  0  0  0  0  0  0  0  0  0
    3.2314  -10.5954    6.4246 H   0  0  0  0  0  0  0  0  0  0  0  0
    2.8353  -13.1376    6.3029 H   0  0  0  0  0  0  0  0  0  0  0  0
  1  2  2  3
  2  3  1  0
  3  4  2  0
  3  5  1  0
  5  6  2  0
  6  7  1  0
  7  8  1  0
  7  9  2  0
  9 10  1  0
 10 11  2  0
 11 12  1  0
 12 13  2  3
 13 14  1  0
 14 15  3  0
 13 16  1  0
 16 17  3  0
  1 18  1  0
 18 19  2  0
 19 20  1  0
 19 21  1  0
 21 22  1  0
 21 23  2  0
 23 24  1  0
 24 25  2  0
 25 26  1  0
 26 27  1  0
 27 28  1  0
 28 29  1  0
 29 30  1  0
 30 31  1  0
 29 32  2  0
 32 33  1  0
 32 34  1  0
 26 35  2  0
 35 36  1  0
 36 37  2  0
 35 38  1  0
 38 39  2  0
 39 40  1  0
 40 41  1  0
 40 42  2  0
 42 43  1  0
 43 44  1  0
 42 45  1  0
 23 46  1  0
 46 47  2  0
 47 48  1  0
 48 49  2  0
 49 50  1  0
 50 51  2  0
 51 52  1  0
 52 53  1  0
 53 54  1  0
 52 55  2  0
 47 56  1  0
 56 57  1  0
 57 58  1  0
 58 59  1  0
 59 60  1  0
 60 61  1  0
 61 62  2  0
 62 63  1  0
 63 64  1  0
 61 65  1  0
 65 66  1  0
 66 67  1  0
 67 68  1  0
 68 69  1  0
 69 70  1  0
 70 71  2  0
 71 72  1  0
 72 73  2  0
 73 74  1  0
 74 75  1  0
 75 76  1  0
 74 77  2  0
 69 78  2  0
 78 79  1  0
 79 80  1  0
 80 81  1  0
 81 82  1  0
 82 83  1  0
 83 84  1  0
 84 85  1  0
 85 86  1  0
 86 87  1  0
 87 88  1  0
 85 89  1  0
 89 90  1  0
 82 91  1  0
 91 92  1  0
 78 93  1  0
 93 94  2  0
 94 95  1  0
 95 96  2  0
 96 97  1  0
 97 98  2  0
 98 99  1  0
 99100  1  0
 98101  1  0
 94102  1  0
102103  2  0
103104  1  0
103105  1  0
105106  2  0
106107  1  0
107108  2  0
108109  1  0
109110  3  0
108111  1  0
 12  2  1  0
 37 18  1  0
 45 38  1  0
 88 46  1  0
104 93  1  0
111105  1  0
 11  5  1  0
 37 24  1  0
 55 48  1  0
 87 56  2  0
101 95  1  0
 33 27  2  0
 86 58  2  0
 84 59  2  0
 64 60  2  0
 83 65  2  0
 81 66  2  0
 80 68  2  0
 77 70  1  0
  1112  1  0
  6113  1  0
  8114  1  0
  8115  1  0
  8116  1  0
  9117  1  0
 10118  1  0
 30119  1  0
 30120  1  0
 31121  1  0
 31122  1  0
 31123  1  0
 33124  1  0
 39125  1  0
 43126  1  0
 43127  1  0
 44128  1  0
 44129  1  0
 44130  1  0
 49131  1  0
 50132  1  0
 51133  1  0
 53134  1  0
 53135  1  0
 54136  1  0
 54137  1  0
 54138  1  0
 55139  1  0
 71140  1  0
 72141  1  0
 73142  1  0
 75143  1  0
 75144  1  0
 76145  1  0
 76146  1  0
 76147  1  0
 77148  1  0
 89149  1  0
 89150  1  0
 90151  1  0
 90152  1  0
 90153  1  0
 91154  1  0
 91155  1  0
 92156  1  0
 92157  1  0
 92158  1  0
 96159  1  0
 97160  1  0
 99161  1  0
 99162  1  0
100163  1  0
100164  1  0
100165  1  0
102166  1  0
106167  1  0
107168  1  0
M  END

