
     RDKit          3D

171188  0  0  0  0  0  0  0  0999 V2000
   -0.7462   -7.5448    4.1660 C   0  0  0  0  0  0  0  0  0  0  0  0
    0.0553   -6.6665    4.7985 C   0  0  0  0  0  0  0  0  0  0  0  0
    1.0557   -5.8519    4.0988 C   0  0  0  0  0  0  0  0  0  0  0  0
    1.7406   -6.2070    3.1030 O   0  0  0  0  0  0  0  0  0  0  0  0
    1.0683   -4.5354    4.6920 C   0  0  0  0  0  0  0  0  0  0  0  0
    1.6408   -3.3764    4.1805 C   0  0  0  0  0  0  0  0  0  0  0  0
    1.3609   -2.1534    4.8090 C   0  0  0  0  0  0  0  0  0  0  0  0
    1.8739   -0.8771    4.2053 C   0  0  0  0  0  0  0  0  0  0  0  0
    0.4866   -2.1170    5.9138 C   0  0  0  0  0  0  0  0  0  0  0  0
   -0.0809   -3.2913    6.4170 C   0  0  0  0  0  0  0  0  0  0  0  0
    0.2313   -4.5174    5.7976 C   0  0  0  0  0  0  0  0  0  0  0  0
   -0.3376   -5.8894    6.0070 C   0  0  0  0  0  0  0  0  0  0  0  0
   -0.9618   -6.3696    7.1066 C   0  0  0  0  0  0  0  0  0  0  0  0
   -1.2951   -7.7616    7.2363 C   0  0  0  0  0  0  0  0  0  0  0  0
   -1.5685   -8.8813    7.3371 N   0  0  0  0  0  0  0  0  0  0  0  0
   -1.3176   -5.5210    8.2172 C   0  0  0  0  0  0  0  0  0  0  0  0
   -1.6276   -4.8508    9.1134 N   0  0  0  0  0  0  0  0  0  0  0  0
   -0.8384   -7.5354    2.6831 C   0  0  0  0  0  0  0  0  0  0  0  0
   -0.4439   -8.6431    1.9233 C   0  0  0  0  0  0  0  0  0  0  0  0
   -0.0625   -9.7910    2.5428 F   0  0  0  0  0  0  0  0  0  0  0  0
   -0.3717   -8.5558    0.5244 C   0  0  0  0  0  0  0  0  0  0  0  0
    0.0599   -9.6271   -0.1965 F   0  0  0  0  0  0  0  0  0  0  0  0
   -0.7050   -7.3534   -0.1262 C   0  0  0  0  0  0  0  0  0  0  0  0
   -1.1941   -6.2727    0.6266 C   0  0  0  0  0  0  0  0  0  0  0  0
   -1.5815   -5.1134    0.0287 N   0  0  0  0  0  0  0  0  0  0  0  0
   -2.0139   -4.0402    0.7359 C   0  0  0  0  0  0  0  0  0  0  0  0
   -2.5832   -2.8877    0.0048 C   0  0  0  0  0  0  0  0  0  0  0  0
   -2.0273   -2.2921   -1.4686 S   0  0  0  0  0  0  0  0  0  0  0  0
   -3.1460   -1.0333   -1.5764 C   0  0  0  0  0  0  0  0  0  0  0  0
   -3.2298   -0.0404   -2.6804 C   0  0  0  0  0  0  0  0  0  0  0  0
   -4.3576   -0.3999   -3.6511 C   0  0  0  0  0  0  0  0  0  0  0  0
   -3.9904   -1.0935   -0.4807 C   0  0  0  0  0  0  0  0  0  0  0  0
   -3.6880   -2.1378    0.3946 C   0  0  0  0  0  0  0  0  0  0  0  0
   -5.0174   -0.2306   -0.2793 F   0  0  0  0  0  0  0  0  0  0  0  0
   -1.9899   -4.1047    2.1451 C   0  0  0  0  0  0  0  0  0  0  0  0
   -1.6528   -5.2738    2.7475 N   0  0  0  0  0  0  0  0  0  0  0  0
   -1.2617   -6.3642    2.0284 C   0  0  0  0  0  0  0  0  0  0  0  0
   -2.2464   -2.9286    2.9892 C   0  0  0  0  0  0  0  0  0  0  0  0
   -1.7301   -1.6560    2.7961 C   0  0  0  0  0  0  0  0  0  0  0  0
   -2.2821   -0.6972    3.6399 C   0  0  0  0  0  0  0  0  0  0  0  0
   -1.9533    0.6136    3.5654 F   0  0  0  0  0  0  0  0  0  0  0  0
   -3.2290   -1.2124    4.5138 C   0  0  0  0  0  0  0  0  0  0  0  0
   -4.0733   -0.4084    5.4679 C   0  0  0  0  0  0  0  0  0  0  0  0
   -3.2429    0.0679    6.6514 C   0  0  0  0  0  0  0  0  0  0  0  0
   -3.3774   -2.8665    4.2419 S   0  0  0  0  0  0  0  0  0  0  0  0
   -0.4016   -7.1493   -1.5542 C   0  0  0  0  0  0  0  0  0  0  0  0
   -1.6254   -6.7557   -2.6705 S   0  0  0  0  0  0  0  0  0  0  0  0
   -0.5835   -5.9730   -3.7117 C   0  0  0  0  0  0  0  0  0  0  0  0
   -0.7423   -4.8248   -4.4273 C   0  0  0  0  0  0  0  0  0  0  0  0
   -1.8871   -4.2231   -4.9614 C   0  0  0  0  0  0  0  0  0  0  0  0
   -1.7733   -2.9281   -5.5398 C   0  0  0  0  0  0  0  0  0  0  0  0
   -2.8995   -2.3872   -6.0535 N   0  0  0  0  0  0  0  0  0  0  0  0
   -3.9715   -3.6135   -5.7551 S   0  0  0  0  0  0  0  0  0  0  0  0
   -3.1078   -4.8136   -4.9893 N   0  0  0  0  0  0  0  0  0  0  0  0
   -0.5326   -2.2803   -5.5022 C   0  0  0  0  0  0  0  0  0  0  0  0
   -0.2080   -0.9610   -5.6907 C   0  0  0  0  0  0  0  0  0  0  0  0
   -1.1215    0.4739   -5.6442 S   0  0  0  0  0  0  0  0  0  0  0  0
    0.1934    1.3722   -5.0452 C   0  0  0  0  0  0  0  0  0  0  0  0
    0.2953    2.6447   -4.4556 C   0  0  0  0  0  0  0  0  0  0  0  0
   -0.9141    3.4862   -4.1299 C   0  0  0  0  0  0  0  0  0  0  0  0
   -1.3137    3.2990   -2.6662 C   0  0  0  0  0  0  0  0  0  0  0  0
    1.5806    2.8380   -3.8904 C   0  0  0  0  0  0  0  0  0  0  0  0
    2.4901    1.4102   -4.0818 S   0  0  0  0  0  0  0  0  0  0  0  0
    1.2942    0.5659   -4.8861 C   0  0  0  0  0  0  0  0  0  0  0  0
    1.0486   -0.7741   -5.1928 C   0  0  0  0  0  0  0  0  0  0  0  0
    1.5562   -1.9138   -4.6580 N   0  0  0  0  0  0  0  0  0  0  0  0
    0.5965   -2.8644   -4.9003 C   0  0  0  0  0  0  0  0  0  0  0  0
    0.4930   -4.1892   -4.3928 C   0  0  0  0  0  0  0  0  0  0  0  0
    1.4464   -4.9599   -3.7827 N   0  0  0  0  0  0  0  0  0  0  0  0
    0.7116   -5.9981   -3.2732 C   0  0  0  0  0  0  0  0  0  0  0  0
    0.8289   -6.6083   -2.0060 C   0  0  0  0  0  0  0  0  0  0  0  0
    2.0370   -6.5160   -1.1068 C   0  0  0  0  0  0  0  0  0  0  0  0
    2.8539   -7.8038   -1.1819 C   0  0  0  0  0  0  0  0  0  0  0  0
    2.7069   -5.2141   -4.5198 C   0  0  0  0  0  0  0  0  0  0  0  0
    3.9580   -5.2607   -3.6421 C   0  0  0  0  0  0  0  0  0  0  0  0
    2.5721   -1.9389   -3.5972 C   0  0  0  0  0  0  0  0  0  0  0  0
    3.9878   -1.8314   -4.1840 C   0  0  0  0  0  0  0  0  0  0  0  0
    1.9852    3.9616   -3.0026 C   0  0  0  0  0  0  0  0  0  0  0  0
    1.8134    5.2948   -3.4301 C   0  0  0  0  0  0  0  0  0  0  0  0
    1.4891    5.4951   -4.7865 O   0  0  0  0  0  0  0  0  0  0  0  0
    1.8150    6.6259   -5.5949 C   0  0  0  0  0  0  0  0  0  0  0  0
    3.3211    6.8095   -5.7025 C   0  0  0  0  0  0  0  0  0  0  0  0
    1.9607    6.3597   -2.4958 C   0  0  0  0  0  0  0  0  0  0  0  0
    1.4968    7.6407   -2.8328 O   0  0  0  0  0  0  0  0  0  0  0  0
    2.2988    8.8199   -2.8574 C   0  0  0  0  0  0  0  0  0  0  0  0
    1.4102   10.0350   -2.6044 C   0  0  0  0  0  0  0  0  0  0  0  0
    2.4247    6.0834   -1.1862 C   0  0  0  0  0  0  0  0  0  0  0  0
    2.7606    4.7681   -0.8323 C   0  0  0  0  0  0  0  0  0  0  0  0
    2.5074    3.7085   -1.7225 C   0  0  0  0  0  0  0  0  0  0  0  0
    2.7354    2.4361   -1.2980 N   0  0  0  0  0  0  0  0  0  0  0  0
    3.2522    2.1583   -0.0707 C   0  0  0  0  0  0  0  0  0  0  0  0
    3.5366    3.2135    0.7991 C   0  0  0  0  0  0  0  0  0  0  0  0
    3.2679    4.4870    0.4085 N   0  0  0  0  0  0  0  0  0  0  0  0
    2.4293    7.1158   -0.1248 C   0  0  0  0  0  0  0  0  0  0  0  0
    1.5945    7.0639    0.9270 C   0  0  0  0  0  0  0  0  0  0  0  0
    0.3576    6.2853    0.9801 C   0  0  0  0  0  0  0  0  0  0  0  0
   -0.0434    5.4521    0.1269 O   0  0  0  0  0  0  0  0  0  0  0  0
   -0.3752    6.6695    2.1633 C   0  0  0  0  0  0  0  0  0  0  0  0
   -1.6396    6.2312    2.5729 C   0  0  0  0  0  0  0  0  0  0  0  0
   -2.2029    6.7979    3.7292 C   0  0  0  0  0  0  0  0  0  0  0  0
   -3.4546    6.3706    4.1920 C   0  0  0  0  0  0  0  0  0  0  0  0
   -4.0103    6.9413    5.3421 C   0  0  0  0  0  0  0  0  0  0  0  0
   -3.3159    7.9393    6.0399 C   0  0  0  0  0  0  0  0  0  0  0  0
   -3.8674    8.4996    7.1437 F   0  0  0  0  0  0  0  0  0  0  0  0
   -2.0742    8.3896    5.5789 C   0  0  0  0  0  0  0  0  0  0  0  0
   -1.5005    7.8133    4.4380 C   0  0  0  0  0  0  0  0  0  0  0  0
   -0.2383    8.2433    3.9898 C   0  0  0  0  0  0  0  0  0  0  0  0
    0.3373    7.6338    2.8625 C   0  0  0  0  0  0  0  0  0  0  0  0
    1.6465    7.8672    2.1940 C   0  0  0  0  0  0  0  0  0  0  0  0
    2.7531    8.4218    2.7619 C   0  0  0  0  0  0  0  0  0  0  0  0
    4.0583    8.3302    2.1529 C   0  0  0  0  0  0  0  0  0  0  0  0
    5.1069    8.2453    1.6711 N   0  0  0  0  0  0  0  0  0  0  0  0
    2.7486    9.0066    4.0748 C   0  0  0  0  0  0  0  0  0  0  0  0
    2.7571    9.4814    5.1316 N   0  0  0  0  0  0  0  0  0  0  0  0
   -1.5879   -7.9924    4.6793 H   0  0  0  0  0  0  0  0  0  0  0  0
    2.2417   -3.4183    3.2828 H   0  0  0  0  0  0  0  0  0  0  0  0
    2.8207   -1.0512    3.6523 H   0  0  0  0  0  0  0  0  0  0  0  0
    2.0837   -0.1345    5.0078 H   0  0  0  0  0  0  0  0  0  0  0  0
    1.1230   -0.4598    3.5066 H   0  0  0  0  0  0  0  0  0  0  0  0
    0.2291   -1.1716    6.3627 H   0  0  0  0  0  0  0  0  0  0  0  0
   -0.7745   -3.2330    7.2372 H   0  0  0  0  0  0  0  0  0  0  0  0
   -2.2680   -0.0257   -3.2200 H   0  0  0  0  0  0  0  0  0  0  0  0
   -3.4199    0.9609   -2.2612 H   0  0  0  0  0  0  0  0  0  0  0  0
   -5.3392   -0.1685   -3.1877 H   0  0  0  0  0  0  0  0  0  0  0  0
   -4.2524    0.2091   -4.5781 H   0  0  0  0  0  0  0  0  0  0  0  0
   -4.3278   -1.4749   -3.9027 H   0  0  0  0  0  0  0  0  0  0  0  0
   -4.2761   -2.3245    1.2864 H   0  0  0  0  0  0  0  0  0  0  0  0
   -0.9853   -1.4295    2.0340 H   0  0  0  0  0  0  0  0  0  0  0  0
   -4.9040   -1.0433    5.8370 H   0  0  0  0  0  0  0  0  0  0  0  0
   -4.5065    0.4584    4.9258 H   0  0  0  0  0  0  0  0  0  0  0  0
   -3.9090    0.6183    7.3530 H   0  0  0  0  0  0  0  0  0  0  0  0
   -2.7849   -0.7859    7.1892 H   0  0  0  0  0  0  0  0  0  0  0  0
   -2.4513    0.7694    6.3150 H   0  0  0  0  0  0  0  0  0  0  0  0
   -1.7717    3.1986   -4.7785 H   0  0  0  0  0  0  0  0  0  0  0  0
   -0.7117    4.5633   -4.3068 H   0  0  0  0  0  0  0  0  0  0  0  0
   -0.5366    3.6956   -1.9838 H   0  0  0  0  0  0  0  0  0  0  0  0
   -2.2578    3.8473   -2.4576 H   0  0  0  0  0  0  0  0  0  0  0  0
   -1.4552    2.2232   -2.4357 H   0  0  0  0  0  0  0  0  0  0  0  0
    1.7273   -6.3404   -0.0555 H   0  0  0  0  0  0  0  0  0  0  0  0
    2.6527   -5.6410   -1.3738 H   0  0  0  0  0  0  0  0  0  0  0  0
    3.1227   -8.0533   -2.2304 H   0  0  0  0  0  0  0  0  0  0  0  0
    2.2770   -8.6491   -0.7569 H   0  0  0  0  0  0  0  0  0  0  0  0
    3.7820   -7.6994   -0.5769 H   0  0  0  0  0  0  0  0  0  0  0  0
    2.8637   -4.4347   -5.2911 H   0  0  0  0  0  0  0  0  0  0  0  0
    2.6307   -6.1674   -5.0927 H   0  0  0  0  0  0  0  0  0  0  0  0
    3.9329   -4.4897   -2.8429 H   0  0  0  0  0  0  0  0  0  0  0  0
    4.8557   -5.0698   -4.2636 H   0  0  0  0  0  0  0  0  0  0  0  0
    4.0720   -6.2703   -3.1965 H   0  0  0  0  0  0  0  0  0  0  0  0
    2.4072   -1.1024   -2.8790 H   0  0  0  0  0  0  0  0  0  0  0  0
    2.4851   -2.8454   -2.9826 H   0  0  0  0  0  0  0  0  0  0  0  0
    4.7384   -1.9630   -3.3751 H   0  0  0  0  0  0  0  0  0  0  0  0
    4.1535   -2.5986   -4.9646 H   0  0  0  0  0  0  0  0  0  0  0  0
    4.1384   -0.8328   -4.6431 H   0  0  0  0  0  0  0  0  0  0  0  0
    1.4043    6.4448   -6.6122 H   0  0  0  0  0  0  0  0  0  0  0  0
    1.3082    7.5389   -5.2253 H   0  0  0  0  0  0  0  0  0  0  0  0
    3.7731    5.9153   -6.1707 H   0  0  0  0  0  0  0  0  0  0  0  0
    3.7644    6.9507   -4.6941 H   0  0  0  0  0  0  0  0  0  0  0  0
    3.5406    7.7002   -6.3265 H   0  0  0  0  0  0  0  0  0  0  0  0
    2.7691    8.9214   -3.8588 H   0  0  0  0  0  0  0  0  0  0  0  0
    3.0994    8.7967   -2.1067 H   0  0  0  0  0  0  0  0  0  0  0  0
    1.9923   10.9631   -2.7557 H   0  0  0  0  0  0  0  0  0  0  0  0
    0.5578   10.0277   -3.3247 H   0  0  0  0  0  0  0  0  0  0  0  0
    1.0075   10.0048   -1.5745 H   0  0  0  0  0  0  0  0  0  0  0  0
    3.4115    1.1446    0.2380 H   0  0  0  0  0  0  0  0  0  0  0  0
    3.9342    3.0277    1.7813 H   0  0  0  0  0  0  0  0  0  0  0  0
    3.2360    7.8278   -0.1429 H   0  0  0  0  0  0  0  0  0  0  0  0
   -2.1697    5.4825    1.9949 H   0  0  0  0  0  0  0  0  0  0  0  0
   -4.0081    5.5960    3.6671 H   0  0  0  0  0  0  0  0  0  0  0  0
   -4.9778    6.6017    5.6935 H   0  0  0  0  0  0  0  0  0  0  0  0
   -1.5641    9.1712    6.1213 H   0  0  0  0  0  0  0  0  0  0  0  0
    0.2543    9.0628    4.4967 H   0  0  0  0  0  0  0  0  0  0  0  0
  1  2  2  3
  2  3  1  0
  3  4  2  0
  3  5  1  0
  5  6  2  0
  6  7  1  0
  7  8  1  0
  7  9  2  0
  9 10  1  0
 10 11  2  0
 11 12  1  0
 12 13  2  3
 13 14  1  0
 14 15  3  0
 13 16  1  0
 16 17  3  0
  1 18  1  0
 18 19  2  0
 19 20  1  0
 19 21  1  0
 21 22  1  0
 21 23  2  0
 23 24  1  0
 24 25  2  0
 25 26  1  0
 26 27  1  0
 27 28  1  0
 28 29  1  0
 29 30  1  0
 30 31  1  0
 29 32  2  0
 32 33  1  0
 32 34  1  0
 26 35  2  0
 35 36  1  0
 36 37  2  0
 35 38  1  0
 38 39  2  0
 39 40  1  0
 40 41  1  0
 40 42  2  0
 42 43  1  0
 43 44  1  0
 42 45  1  0
 23 46  1  0
 46 47  1  0
 47 48  1  0
 48 49  1  0
 49 50  1  0
 50 51  1  0
 51 52  2  0
 52 53  1  0
 53 54  1  0
 51 55  1  0
 55 56  1  0
 56 57  1  0
 57 58  1  0
 58 59  1  0
 59 60  1  0
 60 61  1  0
 59 62  2  0
 62 63  1  0
 63 64  1  0
 64 65  1  0
 65 66  1  0
 66 67  1  0
 67 68  1  0
 68 69  1  0
 69 70  1  0
 70 71  1  0
 71 72  1  0
 72 73  1  0
 69 74  1  0
 74 75  1  0
 66 76  1  0
 76 77  1  0
 62 78  1  0
 78 79  2  0
 79 80  1  0
 80 81  1  0
 81 82  1  0
 79 83  1  0
 83 84  1  0
 84 85  1  0
 85 86  1  0
 83 87  2  0
 87 88  1  0
 88 89  2  0
 89 90  1  0
 90 91  2  0
 91 92  1  0
 92 93  2  0
 87 94  1  0
 94 95  2  3
 95 96  1  0
 96 97  2  0
 96 98  1  0
 98 99  2  0
 99100  1  0
100101  2  0
101102  1  0
102103  2  0
103104  1  0
103105  1  0
105106  2  0
106107  1  0
107108  2  0
108109  1  0
109110  2  3
110111  1  0
111112  3  0
110113  1  0
113114  3  0
 12  2  1  0
 37 18  1  0
 45 38  1  0
 71 46  2  0
 89 78  1  0
109 95  1  0
 11  5  1  0
 37 24  1  0
 70 48  2  0
 93 88  1  0
108 98  1  0
 33 27  2  0
 68 49  2  0
106100  1  0
 54 50  2  0
 67 55  2  0
 65 56  2  0
 64 58  2  0
  1115  1  0
  6116  1  0
  8117  1  0
  8118  1  0
  8119  1  0
  9120  1  0
 10121  1  0
 30122  1  0
 30123  1  0
 31124  1  0
 31125  1  0
 31126  1  0
 33127  1  0
 39128  1  0
 43129  1  0
 43130  1  0
 44131  1  0
 44132  1  0
 44133  1  0
 60134  1  0
 60135  1  0
 61136  1  0
 61137  1  0
 61138  1  0
 72139  1  0
 72140  1  0
 73141  1  0
 73142  1  0
 73143  1  0
 74144  1  0
 74145  1  0
 75146  1  0
 75147  1  0
 75148  1  0
 76149  1  0
 76150  1  0
 77151  1  0
 77152  1  0
 77153  1  0
 81154  1  0
 81155  1  0
 82156  1  0
 82157  1  0
 82158  1  0
 85159  1  0
 85160  1  0
 86161  1  0
 86162  1  0
 86163  1  0
 91164  1  0
 92165  1  0
 94166  1  0
 99167  1  0
101168  1  0
102169  1  0
105170  1  0
107171  1  0
M  END

