
     RDKit          3D

161174  0  0  0  0  0  0  0  0999 V2000
   -1.9659  -11.1610    5.1220 C   0  0  0  0  0  0  0  0  0  0  0  0
   -3.0757  -11.9533    4.8521 C   0  0  0  0  0  0  0  0  0  0  0  0
   -2.7976  -13.3359    4.4465 C   0  0  0  0  0  0  0  0  0  0  0  0
   -2.5324  -14.4183    4.1562 N   0  0  0  0  0  0  0  0  0  0  0  0
   -4.4881  -11.7251    5.2319 C   0  0  0  0  0  0  0  0  0  0  0  0
   -4.8018  -10.9992    6.2248 O   0  0  0  0  0  0  0  0  0  0  0  0
   -5.4699  -12.5764    4.6852 O   0  0  0  0  0  0  0  0  0  0  0  0
   -6.7355  -12.7854    5.3388 C   0  0  0  0  0  0  0  0  0  0  0  0
   -7.5107  -13.8683    4.6000 C   0  0  0  0  0  0  0  0  0  0  0  0
   -1.6236   -9.6841    4.9474 C   0  0  0  0  0  0  0  0  0  0  0  0
   -0.2598   -9.3890    4.5993 C   0  0  0  0  0  0  0  0  0  0  0  0
    0.7642  -10.3561    4.7622 O   0  0  0  0  0  0  0  0  0  0  0  0
    1.0035  -11.4832    3.8889 C   0  0  0  0  0  0  0  0  0  0  0  0
    1.5825  -12.6336    4.6811 C   0  0  0  0  0  0  0  0  0  0  0  0
    0.1637   -8.0550    4.4124 C   0  0  0  0  0  0  0  0  0  0  0  0
    1.4822   -7.7257    4.1969 O   0  0  0  0  0  0  0  0  0  0  0  0
    2.1705   -8.0687    2.9565 C   0  0  0  0  0  0  0  0  0  0  0  0
    1.8246   -7.1187    1.8561 C   0  0  0  0  0  0  0  0  0  0  0  0
   -0.7904   -6.9698    4.5673 C   0  0  0  0  0  0  0  0  0  0  0  0
   -2.0877   -7.2576    4.9796 C   0  0  0  0  0  0  0  0  0  0  0  0
   -2.5320   -8.5914    5.1557 C   0  0  0  0  0  0  0  0  0  0  0  0
   -3.7767   -8.8054    5.6772 N   0  0  0  0  0  0  0  0  0  0  0  0
   -4.5892   -7.7593    6.0056 C   0  0  0  0  0  0  0  0  0  0  0  0
   -4.1326   -6.4645    5.7884 C   0  0  0  0  0  0  0  0  0  0  0  0
   -2.9105   -6.2259    5.2871 N   0  0  0  0  0  0  0  0  0  0  0  0
   -0.4617   -5.5780    4.1567 C   0  0  0  0  0  0  0  0  0  0  0  0
   -0.3490   -4.4530    5.0329 C   0  0  0  0  0  0  0  0  0  0  0  0
   -0.3019   -4.3980    6.4916 C   0  0  0  0  0  0  0  0  0  0  0  0
   -1.2029   -3.5460    7.1627 C   0  0  0  0  0  0  0  0  0  0  0  0
   -0.9757   -3.1908    8.4716 C   0  0  0  0  0  0  0  0  0  0  0  0
    0.0997   -3.6886    9.1829 C   0  0  0  0  0  0  0  0  0  0  0  0
    0.9903   -4.6068    8.5360 C   0  0  0  0  0  0  0  0  0  0  0  0
    2.2319   -5.0234    9.2584 C   0  0  0  0  0  0  0  0  0  0  0  0
    3.4074   -4.1378    8.8501 C   0  0  0  0  0  0  0  0  0  0  0  0
    0.7770   -4.9791    7.2015 C   0  0  0  0  0  0  0  0  0  0  0  0
   -0.3503   -3.2695    4.2941 C   0  0  0  0  0  0  0  0  0  0  0  0
   -0.1521   -1.6206    4.7932 S   0  0  0  0  0  0  0  0  0  0  0  0
   -0.3098   -1.1275    3.1774 C   0  0  0  0  0  0  0  0  0  0  0  0
   -0.2334    0.0367    2.3940 C   0  0  0  0  0  0  0  0  0  0  0  0
   -0.0475    1.3229    2.8768 C   0  0  0  0  0  0  0  0  0  0  0  0
    0.0544    2.3571    1.8729 C   0  0  0  0  0  0  0  0  0  0  0  0
    0.2460    3.5891    2.3458 N   0  0  0  0  0  0  0  0  0  0  0  0
    0.3172    3.3446    3.9693 S   0  0  0  0  0  0  0  0  0  0  0  0
    0.0884    1.7040    4.1634 N   0  0  0  0  0  0  0  0  0  0  0  0
    0.0081    2.0190    0.5206 C   0  0  0  0  0  0  0  0  0  0  0  0
    0.2521    2.7791   -0.5427 C   0  0  0  0  0  0  0  0  0  0  0  0
    0.4976    4.4454   -0.8943 S   0  0  0  0  0  0  0  0  0  0  0  0
    0.8182    4.0327   -2.5053 C   0  0  0  0  0  0  0  0  0  0  0  0
    1.1362    4.8922   -3.5500 C   0  0  0  0  0  0  0  0  0  0  0  0
    0.6798    6.2698   -3.5813 C   0  0  0  0  0  0  0  0  0  0  0  0
    1.2768    7.2975   -2.8643 C   0  0  0  0  0  0  0  0  0  0  0  0
    0.7035    8.5588   -2.8434 C   0  0  0  0  0  0  0  0  0  0  0  0
   -0.4597    8.7850   -3.5487 C   0  0  0  0  0  0  0  0  0  0  0  0
   -1.0790    7.7774   -4.2645 C   0  0  0  0  0  0  0  0  0  0  0  0
   -2.3798    8.0143   -5.0325 C   0  0  0  0  0  0  0  0  0  0  0  0
   -3.4684    7.0918   -4.4928 C   0  0  0  0  0  0  0  0  0  0  0  0
   -0.5082    6.4874   -4.2896 C   0  0  0  0  0  0  0  0  0  0  0  0
    1.4007    4.2087   -4.7127 C   0  0  0  0  0  0  0  0  0  0  0  0
    1.1809    2.5009   -4.4026 S   0  0  0  0  0  0  0  0  0  0  0  0
    0.7011    2.6995   -2.8129 C   0  0  0  0  0  0  0  0  0  0  0  0
    0.3337    1.9870   -1.6195 C   0  0  0  0  0  0  0  0  0  0  0  0
    0.1004    0.6965   -1.3176 N   0  0  0  0  0  0  0  0  0  0  0  0
   -0.1381    0.6972    0.0651 C   0  0  0  0  0  0  0  0  0  0  0  0
   -0.3081   -0.3458    1.0646 C   0  0  0  0  0  0  0  0  0  0  0  0
   -0.5064   -1.7217    0.9877 N   0  0  0  0  0  0  0  0  0  0  0  0
   -0.4757   -2.1433    2.2852 C   0  0  0  0  0  0  0  0  0  0  0  0
   -0.4946   -3.3634    2.9369 C   0  0  0  0  0  0  0  0  0  0  0  0
   -0.6612   -4.9850    2.5432 S   0  0  0  0  0  0  0  0  0  0  0  0
   -0.8696   -2.6203   -0.0833 C   0  0  0  0  0  0  0  0  0  0  0  0
    0.3767   -3.4001   -0.5205 C   0  0  0  0  0  0  0  0  0  0  0  0
    0.0687   -0.3423   -2.3602 C   0  0  0  0  0  0  0  0  0  0  0  0
   -1.2987   -0.3628   -3.0215 C   0  0  0  0  0  0  0  0  0  0  0  0
    1.9704    4.8632   -5.9163 C   0  0  0  0  0  0  0  0  0  0  0  0
    3.0673    5.6859   -5.6310 C   0  0  0  0  0  0  0  0  0  0  0  0
    3.8222    5.3969   -4.4894 O   0  0  0  0  0  0  0  0  0  0  0  0
    4.7923    4.3477   -4.3972 C   0  0  0  0  0  0  0  0  0  0  0  0
    5.0069    4.0996   -2.8962 C   0  0  0  0  0  0  0  0  0  0  0  0
    3.2136    7.0307   -6.1408 C   0  0  0  0  0  0  0  0  0  0  0  0
    4.2141    7.8786   -5.7209 O   0  0  0  0  0  0  0  0  0  0  0  0
    4.9253    7.8684   -4.4759 C   0  0  0  0  0  0  0  0  0  0  0  0
    5.7939    9.1192   -4.2943 C   0  0  0  0  0  0  0  0  0  0  0  0
    2.0972    7.6693   -6.8372 C   0  0  0  0  0  0  0  0  0  0  0  0
    1.0786    6.8062   -7.3056 C   0  0  0  0  0  0  0  0  0  0  0  0
    0.9905    5.4320   -6.8579 C   0  0  0  0  0  0  0  0  0  0  0  0
    0.0136    4.6476   -7.2689 N   0  0  0  0  0  0  0  0  0  0  0  0
   -0.9607    5.1397   -8.0837 C   0  0  0  0  0  0  0  0  0  0  0  0
   -0.9552    6.4938   -8.5013 C   0  0  0  0  0  0  0  0  0  0  0  0
    0.0662    7.3015   -8.0952 N   0  0  0  0  0  0  0  0  0  0  0  0
    1.6949    9.0274   -6.3828 C   0  0  0  0  0  0  0  0  0  0  0  0
    1.5618   10.3005   -6.8914 C   0  0  0  0  0  0  0  0  0  0  0  0
    1.8102   11.4257   -5.9378 C   0  0  0  0  0  0  0  0  0  0  0  0
    1.9435   12.2967   -5.1256 N   0  0  0  0  0  0  0  0  0  0  0  0
    0.9196   10.7475   -8.1318 C   0  0  0  0  0  0  0  0  0  0  0  0
    0.3492    9.9040   -8.9077 O   0  0  0  0  0  0  0  0  0  0  0  0
    0.7702   12.1155   -8.4028 O   0  0  0  0  0  0  0  0  0  0  0  0
   -0.3487   12.8035   -9.0289 C   0  0  0  0  0  0  0  0  0  0  0  0
   -0.1641   12.7745  -10.5243 C   0  0  0  0  0  0  0  0  0  0  0  0
   -1.1381  -11.7703    5.4188 H   0  0  0  0  0  0  0  0  0  0  0  0
   -6.5777  -13.1481    6.4072 H   0  0  0  0  0  0  0  0  0  0  0  0
   -7.3268  -11.8379    5.3404 H   0  0  0  0  0  0  0  0  0  0  0  0
   -8.2539  -14.3841    5.3155 H   0  0  0  0  0  0  0  0  0  0  0  0
   -8.1334  -13.4411    3.7854 H   0  0  0  0  0  0  0  0  0  0  0  0
   -6.8702  -14.6555    4.2078 H   0  0  0  0  0  0  0  0  0  0  0  0
    1.7543  -11.2048    3.0740 H   0  0  0  0  0  0  0  0  0  0  0  0
    0.0770  -11.8071    3.2828 H   0  0  0  0  0  0  0  0  0  0  0  0
    1.3986  -13.5792    4.1520 H   0  0  0  0  0  0  0  0  0  0  0  0
    1.1230  -12.7039    5.7045 H   0  0  0  0  0  0  0  0  0  0  0  0
    2.6782  -12.4906    4.7784 H   0  0  0  0  0  0  0  0  0  0  0  0
    3.2636   -8.0236    3.1585 H   0  0  0  0  0  0  0  0  0  0  0  0
    1.9312   -9.1022    2.6082 H   0  0  0  0  0  0  0  0  0  0  0  0
    1.9914   -6.0644    2.2077 H   0  0  0  0  0  0  0  0  0  0  0  0
    0.7677   -7.2308    1.5644 H   0  0  0  0  0  0  0  0  0  0  0  0
    2.4549   -7.2717    0.9684 H   0  0  0  0  0  0  0  0  0  0  0  0
   -5.4801   -7.9524    6.4487 H   0  0  0  0  0  0  0  0  0  0  0  0
   -4.7664   -5.6118    6.0727 H   0  0  0  0  0  0  0  0  0  0  0  0
   -2.0169   -3.0928    6.6071 H   0  0  0  0  0  0  0  0  0  0  0  0
   -1.6181   -2.4475    8.9505 H   0  0  0  0  0  0  0  0  0  0  0  0
    0.3183   -3.3344   10.1889 H   0  0  0  0  0  0  0  0  0  0  0  0
    2.4720   -6.0921    9.0320 H   0  0  0  0  0  0  0  0  0  0  0  0
    2.0965   -4.9439   10.3742 H   0  0  0  0  0  0  0  0  0  0  0  0
    4.2168   -4.1855    9.6387 H   0  0  0  0  0  0  0  0  0  0  0  0
    3.8511   -4.5002    7.8842 H   0  0  0  0  0  0  0  0  0  0  0  0
    3.1102   -3.0842    8.7472 H   0  0  0  0  0  0  0  0  0  0  0  0
    1.4864   -5.5975    6.7101 H   0  0  0  0  0  0  0  0  0  0  0  0
    2.1986    7.0313   -2.3139 H   0  0  0  0  0  0  0  0  0  0  0  0
    1.2038    9.3049   -2.2755 H   0  0  0  0  0  0  0  0  0  0  0  0
   -0.8960    9.7864   -3.4820 H   0  0  0  0  0  0  0  0  0  0  0  0
   -2.1937    7.7770   -6.1134 H   0  0  0  0  0  0  0  0  0  0  0  0
   -2.6925    9.0688   -4.9597 H   0  0  0  0  0  0  0  0  0  0  0  0
   -3.2729    6.0475   -4.7152 H   0  0  0  0  0  0  0  0  0  0  0  0
   -3.6448    7.2589   -3.4249 H   0  0  0  0  0  0  0  0  0  0  0  0
   -4.4618    7.3545   -5.0478 H   0  0  0  0  0  0  0  0  0  0  0  0
   -1.0133    5.7112   -4.8758 H   0  0  0  0  0  0  0  0  0  0  0  0
   -1.3482   -2.0887   -0.9073 H   0  0  0  0  0  0  0  0  0  0  0  0
   -1.6031   -3.3392    0.2484 H   0  0  0  0  0  0  0  0  0  0  0  0
    1.3421   -2.7800   -0.4560 H   0  0  0  0  0  0  0  0  0  0  0  0
    0.2491   -3.7176   -1.6016 H   0  0  0  0  0  0  0  0  0  0  0  0
    0.4200   -4.3928   -0.0428 H   0  0  0  0  0  0  0  0  0  0  0  0
    0.3484   -1.3052   -1.9516 H   0  0  0  0  0  0  0  0  0  0  0  0
    0.8351   -0.1332   -3.0861 H   0  0  0  0  0  0  0  0  0  0  0  0
   -1.4721    0.6199   -3.5137 H   0  0  0  0  0  0  0  0  0  0  0  0
   -1.3069   -1.1280   -3.8279 H   0  0  0  0  0  0  0  0  0  0  0  0
   -2.1221   -0.5325   -2.3131 H   0  0  0  0  0  0  0  0  0  0  0  0
    4.4545    3.3984   -4.8418 H   0  0  0  0  0  0  0  0  0  0  0  0
    5.7674    4.6250   -4.8589 H   0  0  0  0  0  0  0  0  0  0  0  0
    5.5304    5.0261   -2.4505 H   0  0  0  0  0  0  0  0  0  0  0  0
    3.9348    4.0440   -2.3825 H   0  0  0  0  0  0  0  0  0  0  0  0
    5.5778    3.1947   -2.6825 H   0  0  0  0  0  0  0  0  0  0  0  0
    5.5465    6.9604   -4.5413 H   0  0  0  0  0  0  0  0  0  0  0  0
    4.1356    7.8491   -3.6596 H   0  0  0  0  0  0  0  0  0  0  0  0
    6.5731    9.1361   -5.0852 H   0  0  0  0  0  0  0  0  0  0  0  0
    6.3321    8.9799   -3.3266 H   0  0  0  0  0  0  0  0  0  0  0  0
    5.1698   10.0661   -4.2742 H   0  0  0  0  0  0  0  0  0  0  0  0
   -1.8377    4.5350   -8.3754 H   0  0  0  0  0  0  0  0  0  0  0  0
   -1.6802    6.8951   -9.1510 H   0  0  0  0  0  0  0  0  0  0  0  0
    2.2291    9.0926   -5.5012 H   0  0  0  0  0  0  0  0  0  0  0  0
   -0.4070   13.8972   -8.6777 H   0  0  0  0  0  0  0  0  0  0  0  0
   -1.2668   12.2713   -8.6617 H   0  0  0  0  0  0  0  0  0  0  0  0
   -0.3001   11.7239  -10.9254 H   0  0  0  0  0  0  0  0  0  0  0  0
   -1.0020   13.3667  -10.9566 H   0  0  0  0  0  0  0  0  0  0  0  0
    0.8405   13.2068  -10.8077 H   0  0  0  0  0  0  0  0  0  0  0  0
  1  2  2  3
  2  3  1  0
  3  4  3  0
  2  5  1  0
  5  6  2  0
  5  7  1  0
  7  8  1  0
  8  9  1  0
  1 10  1  0
 10 11  2  0
 11 12  1  0
 12 13  1  0
 13 14  1  0
 11 15  1  0
 15 16  1  0
 16 17  1  0
 17 18  1  0
 15 19  2  0
 19 20  1  0
 20 21  2  0
 21 22  1  0
 22 23  2  0
 23 24  1  0
 24 25  2  0
 19 26  1  0
 26 27  2  0
 27 28  1  0
 28 29  2  0
 29 30  1  0
 30 31  2  0
 31 32  1  0
 32 33  1  0
 33 34  1  0
 32 35  2  0
 27 36  1  0
 36 37  1  0
 37 38  1  0
 38 39  1  0
 39 40  1  0
 40 41  1  0
 41 42  2  0
 42 43  1  0
 43 44  1  0
 41 45  1  0
 45 46  1  0
 46 47  1  0
 47 48  1  0
 48 49  1  0
 49 50  1  0
 50 51  2  0
 51 52  1  0
 52 53  2  0
 53 54  1  0
 54 55  1  0
 55 56  1  0
 54 57  2  0
 49 58  2  0
 58 59  1  0
 59 60  1  0
 60 61  1  0
 61 62  1  0
 62 63  1  0
 63 64  1  0
 64 65  1  0
 65 66  1  0
 66 67  1  0
 67 68  1  0
 65 69  1  0
 69 70  1  0
 62 71  1  0
 71 72  1  0
 58 73  1  0
 73 74  2  0
 74 75  1  0
 75 76  1  0
 76 77  1  0
 74 78  1  0
 78 79  1  0
 79 80  1  0
 80 81  1  0
 78 82  2  0
 82 83  1  0
 83 84  2  0
 84 85  1  0
 85 86  2  0
 86 87  1  0
 87 88  2  0
 82 89  1  0
 89 90  2  3
 90 91  1  0
 91 92  3  0
 90 93  1  0
 93 94  2  0
 93 95  1  0
 95 96  1  0
 96 97  1  0
 21 10  1  0
 68 26  1  0
 84 73  1  0
 25 20  1  0
 35 28  1  0
 67 36  2  0
 88 83  1  0
 66 38  2  0
 64 39  2  0
 44 40  2  0
 63 45  2  0
 61 46  2  0
 60 48  2  0
 57 50  1  0
  1 98  1  0
  8 99  1  0
  8100  1  0
  9101  1  0
  9102  1  0
  9103  1  0
 13104  1  0
 13105  1  0
 14106  1  0
 14107  1  0
 14108  1  0
 17109  1  0
 17110  1  0
 18111  1  0
 18112  1  0
 18113  1  0
 23114  1  0
 24115  1  0
 29116  1  0
 30117  1  0
 31118  1  0
 33119  1  0
 33120  1  0
 34121  1  0
 34122  1  0
 34123  1  0
 35124  1  0
 51125  1  0
 52126  1  0
 53127  1  0
 55128  1  0
 55129  1  0
 56130  1  0
 56131  1  0
 56132  1  0
 57133  1  0
 69134  1  0
 69135  1  0
 70136  1  0
 70137  1  0
 70138  1  0
 71139  1  0
 71140  1  0
 72141  1  0
 72142  1  0
 72143  1  0
 76144  1  0
 76145  1  0
 77146  1  0
 77147  1  0
 77148  1  0
 80149  1  0
 80150  1  0
 81151  1  0
 81152  1  0
 81153  1  0
 86154  1  0
 87155  1  0
 89156  1  0
 96157  1  0
 96158  1  0
 97159  1  0
 97160  1  0
 97161  1  0
M  END

