
     RDKit          3D

197215  0  0  0  0  0  0  0  0999 V2000
   -5.4745    9.2559   -7.2923 C   0  0  0  0  0  0  0  0  0  0  0  0
   -6.4538    8.9792   -6.4071 C   0  0  0  0  0  0  0  0  0  0  0  0
   -6.3291    7.8801   -5.4719 C   0  0  0  0  0  0  0  0  0  0  0  0
   -6.2244    7.0040   -4.7233 N   0  0  0  0  0  0  0  0  0  0  0  0
   -7.6597    9.8278   -6.2988 C   0  0  0  0  0  0  0  0  0  0  0  0
   -7.8738   10.7487   -7.1335 O   0  0  0  0  0  0  0  0  0  0  0  0
   -8.5724    9.5860   -5.2614 O   0  0  0  0  0  0  0  0  0  0  0  0
   -9.7444   10.3663   -5.0336 C   0  0  0  0  0  0  0  0  0  0  0  0
   -9.3881   11.6962   -4.3773 C   0  0  0  0  0  0  0  0  0  0  0  0
   -4.2354    8.4543   -7.4091 C   0  0  0  0  0  0  0  0  0  0  0  0
   -2.9803    9.0904   -7.2785 C   0  0  0  0  0  0  0  0  0  0  0  0
   -1.8364    8.2864   -7.2006 C   0  0  0  0  0  0  0  0  0  0  0  0
   -0.5690    8.6641   -6.8845 N   0  0  0  0  0  0  0  0  0  0  0  0
   -0.0761   10.0228   -6.6382 C   0  0  0  0  0  0  0  0  0  0  0  0
    0.4720   10.6218   -7.9257 C   0  0  0  0  0  0  0  0  0  0  0  0
    0.1250    7.5017   -6.7616 C   0  0  0  0  0  0  0  0  0  0  0  0
   -0.6872    6.4118   -6.9966 C   0  0  0  0  0  0  0  0  0  0  0  0
   -1.9328    6.9121   -7.2907 C   0  0  0  0  0  0  0  0  0  0  0  0
   -3.1449    6.2606   -7.4978 C   0  0  0  0  0  0  0  0  0  0  0  0
   -4.3025    7.0476   -7.5757 C   0  0  0  0  0  0  0  0  0  0  0  0
   -0.2644    5.1084   -6.7748 C   0  0  0  0  0  0  0  0  0  0  0  0
    1.0181    4.9181   -6.2411 C   0  0  0  0  0  0  0  0  0  0  0  0
    1.8600    6.0266   -5.9481 C   0  0  0  0  0  0  0  0  0  0  0  0
    1.4332    7.3309   -6.2982 C   0  0  0  0  0  0  0  0  0  0  0  0
    3.0986    5.8120   -5.1514 C   0  0  0  0  0  0  0  0  0  0  0  0
    3.6456    6.6806   -4.1732 C   0  0  0  0  0  0  0  0  0  0  0  0
    3.0424    7.9542   -3.7272 C   0  0  0  0  0  0  0  0  0  0  0  0
    3.8048    9.1291   -3.7316 C   0  0  0  0  0  0  0  0  0  0  0  0
    3.2219   10.3458   -3.3617 C   0  0  0  0  0  0  0  0  0  0  0  0
    1.8747   10.3958   -2.9901 C   0  0  0  0  0  0  0  0  0  0  0  0
    1.0996    9.2243   -2.9778 C   0  0  0  0  0  0  0  0  0  0  0  0
   -0.3607    9.2760   -2.6136 C   0  0  0  0  0  0  0  0  0  0  0  0
   -0.5875    8.7620   -1.1936 C   0  0  0  0  0  0  0  0  0  0  0  0
    1.6988    8.0018   -3.3150 C   0  0  0  0  0  0  0  0  0  0  0  0
    4.6587    6.0534   -3.4391 C   0  0  0  0  0  0  0  0  0  0  0  0
    5.2647    6.4130   -1.8986 S   0  0  0  0  0  0  0  0  0  0  0  0
    5.8703    4.8420   -1.6896 C   0  0  0  0  0  0  0  0  0  0  0  0
    5.9044    4.0476   -0.5766 C   0  0  0  0  0  0  0  0  0  0  0  0
    5.6694    4.4383    0.7526 C   0  0  0  0  0  0  0  0  0  0  0  0
    5.2294    3.4644    1.6878 C   0  0  0  0  0  0  0  0  0  0  0  0
    4.9414    3.8920    2.9436 N   0  0  0  0  0  0  0  0  0  0  0  0
    5.2650    5.5058    2.7645 S   0  0  0  0  0  0  0  0  0  0  0  0
    5.7454    5.7201    1.1941 N   0  0  0  0  0  0  0  0  0  0  0  0
    5.1191    2.1429    1.2677 C   0  0  0  0  0  0  0  0  0  0  0  0
    4.6390    1.0468    1.9138 C   0  0  0  0  0  0  0  0  0  0  0  0
    3.6116    0.7252    3.2238 S   0  0  0  0  0  0  0  0  0  0  0  0
    3.3620   -0.8705    2.6699 C   0  0  0  0  0  0  0  0  0  0  0  0
    2.4351   -1.8566    3.0121 C   0  0  0  0  0  0  0  0  0  0  0  0
    1.3772   -1.6758    4.0357 C   0  0  0  0  0  0  0  0  0  0  0  0
    1.6758   -1.1394    5.2970 C   0  0  0  0  0  0  0  0  0  0  0  0
    0.6664   -0.9628    6.2473 C   0  0  0  0  0  0  0  0  0  0  0  0
   -0.6548   -1.2964    5.9403 C   0  0  0  0  0  0  0  0  0  0  0  0
   -0.9749   -1.8183    4.6780 C   0  0  0  0  0  0  0  0  0  0  0  0
   -2.3961   -2.1604    4.3279 C   0  0  0  0  0  0  0  0  0  0  0  0
   -3.0276   -1.0536    3.4907 C   0  0  0  0  0  0  0  0  0  0  0  0
    0.0413   -1.9931    3.7283 C   0  0  0  0  0  0  0  0  0  0  0  0
    2.4905   -2.9237    2.0911 C   0  0  0  0  0  0  0  0  0  0  0  0
    3.5717   -2.5574    0.8248 S   0  0  0  0  0  0  0  0  0  0  0  0
    4.0460   -1.1056    1.5026 C   0  0  0  0  0  0  0  0  0  0  0  0
    4.7487    0.0059    1.0639 C   0  0  0  0  0  0  0  0  0  0  0  0
    5.2760    0.3515   -0.1352 N   0  0  0  0  0  0  0  0  0  0  0  0
    5.4376    1.7178   -0.0354 C   0  0  0  0  0  0  0  0  0  0  0  0
    5.7193    2.7205   -1.0193 C   0  0  0  0  0  0  0  0  0  0  0  0
    5.4741    2.7213   -2.3754 N   0  0  0  0  0  0  0  0  0  0  0  0
    5.5648    4.0302   -2.7454 C   0  0  0  0  0  0  0  0  0  0  0  0
    4.8920    4.7376   -3.7533 C   0  0  0  0  0  0  0  0  0  0  0  0
    3.8630    4.2974   -4.9993 S   0  0  0  0  0  0  0  0  0  0  0  0
    4.8501    1.6832   -3.2054 C   0  0  0  0  0  0  0  0  0  0  0  0
    3.3909    1.4483   -2.8161 C   0  0  0  0  0  0  0  0  0  0  0  0
    5.9160   -0.6276   -1.0263 C   0  0  0  0  0  0  0  0  0  0  0  0
    7.3456   -0.2239   -1.3980 C   0  0  0  0  0  0  0  0  0  0  0  0
    1.7116   -4.1674    2.1590 C   0  0  0  0  0  0  0  0  0  0  0  0
    1.5227   -4.9938    3.2934 C   0  0  0  0  0  0  0  0  0  0  0  0
    2.2811   -4.9092    4.5309 N   0  0  0  0  0  0  0  0  0  0  0  0
    3.6320   -4.3992    4.5399 C   0  0  0  0  0  0  0  0  0  0  0  0
    4.0295   -3.4772    5.5218 C   0  0  0  0  0  0  0  0  0  0  0  0
    5.2765   -2.8534    5.4444 C   0  0  0  0  0  0  0  0  0  0  0  0
    6.1666   -3.1767    4.4124 C   0  0  0  0  0  0  0  0  0  0  0  0
    7.4658   -2.4386    4.2770 C   0  0  0  0  0  0  0  0  0  0  0  0
    5.8021   -4.1470    3.4657 C   0  0  0  0  0  0  0  0  0  0  0  0
    4.5494   -4.7641    3.5370 C   0  0  0  0  0  0  0  0  0  0  0  0
    1.7180   -5.3874    5.7704 C   0  0  0  0  0  0  0  0  0  0  0  0
    0.4235   -5.0119    6.1626 C   0  0  0  0  0  0  0  0  0  0  0  0
   -0.1573   -5.5628    7.3079 C   0  0  0  0  0  0  0  0  0  0  0  0
    0.5546   -6.4934    8.0838 C   0  0  0  0  0  0  0  0  0  0  0  0
   -0.0713   -7.1298    9.2891 C   0  0  0  0  0  0  0  0  0  0  0  0
    1.8693   -6.8216    7.7293 C   0  0  0  0  0  0  0  0  0  0  0  0
    2.4443   -6.2809    6.5745 C   0  0  0  0  0  0  0  0  0  0  0  0
    0.5483   -5.9648    3.0222 C   0  0  0  0  0  0  0  0  0  0  0  0
   -0.1880   -7.1975    3.8977 S   0  0  0  0  0  0  0  0  0  0  0  0
   -1.2428   -7.6674    2.6419 C   0  0  0  0  0  0  0  0  0  0  0  0
   -0.9722   -6.8847    1.5066 C   0  0  0  0  0  0  0  0  0  0  0  0
   -1.5866   -7.0681    0.2137 N   0  0  0  0  0  0  0  0  0  0  0  0
   -2.1221   -5.9362   -0.5057 C   0  0  0  0  0  0  0  0  0  0  0  0
   -1.9466   -5.8251   -1.8993 C   0  0  0  0  0  0  0  0  0  0  0  0
   -2.4534   -4.7225   -2.5931 C   0  0  0  0  0  0  0  0  0  0  0  0
   -3.1330   -3.7051   -1.9062 C   0  0  0  0  0  0  0  0  0  0  0  0
   -3.6993   -2.5371   -2.6583 C   0  0  0  0  0  0  0  0  0  0  0  0
   -3.3308   -3.8215   -0.5208 C   0  0  0  0  0  0  0  0  0  0  0  0
   -2.8224   -4.9237    0.1743 C   0  0  0  0  0  0  0  0  0  0  0  0
   -1.5358   -8.3744   -0.4004 C   0  0  0  0  0  0  0  0  0  0  0  0
   -0.3598   -9.1406   -0.3430 C   0  0  0  0  0  0  0  0  0  0  0  0
   -0.3164  -10.4138   -0.9184 C   0  0  0  0  0  0  0  0  0  0  0  0
   -1.4528  -10.9465   -1.5454 C   0  0  0  0  0  0  0  0  0  0  0  0
   -1.3860  -12.2929   -2.2023 C   0  0  0  0  0  0  0  0  0  0  0  0
   -2.6256  -10.1786   -1.6142 C   0  0  0  0  0  0  0  0  0  0  0  0
   -2.6683   -8.9002   -1.0437 C   0  0  0  0  0  0  0  0  0  0  0  0
    0.0163   -5.9345    1.7708 C   0  0  0  0  0  0  0  0  0  0  0  0
    0.7171   -4.6987    0.8830 S   0  0  0  0  0  0  0  0  0  0  0  0
   -2.3216   -8.6725    2.7555 C   0  0  0  0  0  0  0  0  0  0  0  0
   -3.1871   -8.7445    3.7882 C   0  0  0  0  0  0  0  0  0  0  0  0
   -3.1061   -7.8320    4.9096 C   0  0  0  0  0  0  0  0  0  0  0  0
   -3.0478   -7.1068    5.8074 N   0  0  0  0  0  0  0  0  0  0  0  0
   -4.3225   -9.6915    3.7503 C   0  0  0  0  0  0  0  0  0  0  0  0
   -5.1564   -9.7035    4.7021 O   0  0  0  0  0  0  0  0  0  0  0  0
   -4.5058  -10.5310    2.6441 O   0  0  0  0  0  0  0  0  0  0  0  0
   -5.6176  -11.4116    2.4985 C   0  0  0  0  0  0  0  0  0  0  0  0
   -5.4634  -12.6355    3.3909 C   0  0  0  0  0  0  0  0  0  0  0  0
   -5.5414   10.1522   -7.8990 H   0  0  0  0  0  0  0  0  0  0  0  0
  -10.2836   10.5397   -5.9903 H   0  0  0  0  0  0  0  0  0  0  0  0
  -10.4177    9.8017   -4.3547 H   0  0  0  0  0  0  0  0  0  0  0  0
   -8.8256   11.5186   -3.4369 H   0  0  0  0  0  0  0  0  0  0  0  0
  -10.3169   12.2553   -4.1379 H   0  0  0  0  0  0  0  0  0  0  0  0
   -8.7644   12.3122   -5.0606 H   0  0  0  0  0  0  0  0  0  0  0  0
   -2.9194   10.1637   -7.1596 H   0  0  0  0  0  0  0  0  0  0  0  0
   -0.8868   10.6693   -6.2449 H   0  0  0  0  0  0  0  0  0  0  0  0
    0.7224   10.0151   -5.8667 H   0  0  0  0  0  0  0  0  0  0  0  0
   -0.3332   10.6849   -8.6889 H   0  0  0  0  0  0  0  0  0  0  0  0
    0.8602   11.6413   -7.7281 H   0  0  0  0  0  0  0  0  0  0  0  0
    1.2962    9.9897   -8.3208 H   0  0  0  0  0  0  0  0  0  0  0  0
   -3.2028    5.1816   -7.5520 H   0  0  0  0  0  0  0  0  0  0  0  0
   -5.2581    6.5578   -7.7135 H   0  0  0  0  0  0  0  0  0  0  0  0
   -0.9261    4.2670   -6.9377 H   0  0  0  0  0  0  0  0  0  0  0  0
    1.3198    3.9106   -5.9909 H   0  0  0  0  0  0  0  0  0  0  0  0
    2.0717    8.1881   -6.1385 H   0  0  0  0  0  0  0  0  0  0  0  0
    4.8455    9.1081   -4.0388 H   0  0  0  0  0  0  0  0  0  0  0  0
    3.8113   11.2537   -3.3760 H   0  0  0  0  0  0  0  0  0  0  0  0
    1.4338   11.3477   -2.7221 H   0  0  0  0  0  0  0  0  0  0  0  0
   -0.7445   10.3179   -2.6906 H   0  0  0  0  0  0  0  0  0  0  0  0
   -0.9468    8.6555   -3.3273 H   0  0  0  0  0  0  0  0  0  0  0  0
   -0.3156    7.6873   -1.1205 H   0  0  0  0  0  0  0  0  0  0  0  0
    0.0201    9.3422   -0.4699 H   0  0  0  0  0  0  0  0  0  0  0  0
   -1.6591    8.8736   -0.9301 H   0  0  0  0  0  0  0  0  0  0  0  0
    1.1106    7.0904   -3.2923 H   0  0  0  0  0  0  0  0  0  0  0  0
    2.6945   -0.8753    5.5563 H   0  0  0  0  0  0  0  0  0  0  0  0
    0.9102   -0.5631    7.2245 H   0  0  0  0  0  0  0  0  0  0  0  0
   -1.4272   -1.1430    6.6845 H   0  0  0  0  0  0  0  0  0  0  0  0
   -2.4218   -3.1125    3.7550 H   0  0  0  0  0  0  0  0  0  0  0  0
   -2.9985   -2.3161    5.2493 H   0  0  0  0  0  0  0  0  0  0  0  0
   -4.0900   -1.3011    3.2818 H   0  0  0  0  0  0  0  0  0  0  0  0
   -2.4931   -0.9520    2.5217 H   0  0  0  0  0  0  0  0  0  0  0  0
   -2.9863   -0.0856    4.0352 H   0  0  0  0  0  0  0  0  0  0  0  0
   -0.2192   -2.3596    2.7449 H   0  0  0  0  0  0  0  0  0  0  0  0
    4.8975    1.9660   -4.2727 H   0  0  0  0  0  0  0  0  0  0  0  0
    5.4384    0.7635   -3.1898 H   0  0  0  0  0  0  0  0  0  0  0  0
    2.9280    0.7324   -3.5301 H   0  0  0  0  0  0  0  0  0  0  0  0
    2.8259    2.4060   -2.8510 H   0  0  0  0  0  0  0  0  0  0  0  0
    3.3199    1.0249   -1.7955 H   0  0  0  0  0  0  0  0  0  0  0  0
    5.2739   -0.8544   -1.8964 H   0  0  0  0  0  0  0  0  0  0  0  0
    6.0111   -1.5968   -0.4925 H   0  0  0  0  0  0  0  0  0  0  0  0
    7.3657    0.6877   -2.0217 H   0  0  0  0  0  0  0  0  0  0  0  0
    7.9383   -0.0424   -0.4759 H   0  0  0  0  0  0  0  0  0  0  0  0
    7.8275   -1.0440   -1.9714 H   0  0  0  0  0  0  0  0  0  0  0  0
    3.3476   -3.1967    6.3130 H   0  0  0  0  0  0  0  0  0  0  0  0
    5.5345   -2.0973    6.1749 H   0  0  0  0  0  0  0  0  0  0  0  0
    8.2563   -3.1078    3.8744 H   0  0  0  0  0  0  0  0  0  0  0  0
    7.8079   -2.0538    5.2599 H   0  0  0  0  0  0  0  0  0  0  0  0
    7.3280   -1.5822    3.5843 H   0  0  0  0  0  0  0  0  0  0  0  0
    6.4742   -4.4001    2.6565 H   0  0  0  0  0  0  0  0  0  0  0  0
    4.2736   -5.4921    2.7871 H   0  0  0  0  0  0  0  0  0  0  0  0
   -0.1513   -4.3275    5.5555 H   0  0  0  0  0  0  0  0  0  0  0  0
   -1.1673   -5.2834    7.5762 H   0  0  0  0  0  0  0  0  0  0  0  0
   -1.1350   -6.8276    9.4041 H   0  0  0  0  0  0  0  0  0  0  0  0
   -0.0334   -8.2367    9.1894 H   0  0  0  0  0  0  0  0  0  0  0  0
    0.4866   -6.8324   10.2032 H   0  0  0  0  0  0  0  0  0  0  0  0
    2.4367   -7.5239    8.3247 H   0  0  0  0  0  0  0  0  0  0  0  0
    3.4450   -6.5793    6.2879 H   0  0  0  0  0  0  0  0  0  0  0  0
   -1.4043   -6.5878   -2.4450 H   0  0  0  0  0  0  0  0  0  0  0  0
   -2.3142   -4.6573   -3.6678 H   0  0  0  0  0  0  0  0  0  0  0  0
   -3.0424   -2.2642   -3.5113 H   0  0  0  0  0  0  0  0  0  0  0  0
   -4.7040   -2.8024   -3.0462 H   0  0  0  0  0  0  0  0  0  0  0  0
   -3.7902   -1.6482   -1.9965 H   0  0  0  0  0  0  0  0  0  0  0  0
   -3.8797   -3.0596    0.0194 H   0  0  0  0  0  0  0  0  0  0  0  0
   -2.9838   -4.9934    1.2441 H   0  0  0  0  0  0  0  0  0  0  0  0
    0.5271   -8.7440    0.1383 H   0  0  0  0  0  0  0  0  0  0  0  0
    0.6044  -10.9829   -0.8802 H   0  0  0  0  0  0  0  0  0  0  0  0
   -0.9789  -12.1844   -3.2291 H   0  0  0  0  0  0  0  0  0  0  0  0
   -2.3933  -12.7594   -2.2603 H   0  0  0  0  0  0  0  0  0  0  0  0
   -0.7283  -12.9748   -1.6226 H   0  0  0  0  0  0  0  0  0  0  0  0
   -3.5059  -10.5695   -2.1088 H   0  0  0  0  0  0  0  0  0  0  0  0
   -3.5852   -8.3276   -1.0898 H   0  0  0  0  0  0  0  0  0  0  0  0
   -2.4715   -9.3240    1.9084 H   0  0  0  0  0  0  0  0  0  0  0  0
   -5.6638  -11.7462    1.4411 H   0  0  0  0  0  0  0  0  0  0  0  0
   -6.5617  -10.8781    2.7330 H   0  0  0  0  0  0  0  0  0  0  0  0
   -6.2948  -13.3423    3.1903 H   0  0  0  0  0  0  0  0  0  0  0  0
   -5.4921  -12.3453    4.4618 H   0  0  0  0  0  0  0  0  0  0  0  0
   -4.5009  -13.1405    3.1719 H   0  0  0  0  0  0  0  0  0  0  0  0
  1  2  2  3
  2  3  1  0
  3  4  3  0
  2  5  1  0
  5  6  2  0
  5  7  1  0
  7  8  1  0
  8  9  1  0
  1 10  1  0
 10 11  2  0
 11 12  1  0
 12 13  1  0
 13 14  1  0
 14 15  1  0
 13 16  1  0
 16 17  2  0
 17 18  1  0
 18 19  1  0
 19 20  2  0
 17 21  1  0
 21 22  2  0
 22 23  1  0
 23 24  2  0
 23 25  1  0
 25 26  2  0
 26 27  1  0
 27 28  2  0
 28 29  1  0
 29 30  2  0
 30 31  1  0
 31 32  1  0
 32 33  1  0
 31 34  2  0
 26 35  1  0
 35 36  1  0
 36 37  1  0
 37 38  1  0
 38 39  1  0
 39 40  1  0
 40 41  2  0
 41 42  1  0
 42 43  1  0
 40 44  1  0
 44 45  1  0
 45 46  1  0
 46 47  1  0
 47 48  1  0
 48 49  1  0
 49 50  2  0
 50 51  1  0
 51 52  2  0
 52 53  1  0
 53 54  1  0
 54 55  1  0
 53 56  2  0
 48 57  2  0
 57 58  1  0
 58 59  1  0
 59 60  1  0
 60 61  1  0
 61 62  1  0
 62 63  1  0
 63 64  1  0
 64 65  1  0
 65 66  1  0
 66 67  1  0
 64 68  1  0
 68 69  1  0
 61 70  1  0
 70 71  1  0
 57 72  1  0
 72 73  2  0
 73 74  1  0
 74 75  1  0
 75 76  2  0
 76 77  1  0
 77 78  2  0
 78 79  1  0
 78 80  1  0
 80 81  2  0
 74 82  1  0
 82 83  2  0
 83 84  1  0
 84 85  2  0
 85 86  1  0
 85 87  1  0
 87 88  2  0
 73 89  1  0
 89 90  1  0
 90 91  1  0
 91 92  2  0
 92 93  1  0
 93 94  1  0
 94 95  2  0
 95 96  1  0
 96 97  2  0
 97 98  1  0
 97 99  1  0
 99100  2  0
 93101  1  0
101102  2  0
102103  1  0
103104  2  0
104105  1  0
104106  1  0
106107  2  0
 92108  1  0
108109  1  0
 91110  1  0
110111  2  3
111112  1  0
112113  3  0
111114  1  0
114115  2  0
114116  1  0
116117  1  0
117118  1  0
 20 10  1  0
 67 25  1  0
109 72  1  0
 18 12  2  0
 34 27  1  0
 66 35  2  0
 81 75  1  0
 88 82  1  0
108 89  2  0
 24 16  1  0
 65 37  2  0
100 94  1  0
107101  1  0
 63 38  2  0
 43 39  2  0
 62 44  2  0
 60 45  2  0
 59 47  2  0
 56 49  1  0
  1119  1  0
  8120  1  0
  8121  1  0
  9122  1  0
  9123  1  0
  9124  1  0
 11125  1  0
 14126  1  0
 14127  1  0
 15128  1  0
 15129  1  0
 15130  1  0
 19131  1  0
 20132  1  0
 21133  1  0
 22134  1  0
 24135  1  0
 28136  1  0
 29137  1  0
 30138  1  0
 32139  1  0
 32140  1  0
 33141  1  0
 33142  1  0
 33143  1  0
 34144  1  0
 50145  1  0
 51146  1  0
 52147  1  0
 54148  1  0
 54149  1  0
 55150  1  0
 55151  1  0
 55152  1  0
 56153  1  0
 68154  1  0
 68155  1  0
 69156  1  0
 69157  1  0
 69158  1  0
 70159  1  0
 70160  1  0
 71161  1  0
 71162  1  0
 71163  1  0
 76164  1  0
 77165  1  0
 79166  1  0
 79167  1  0
 79168  1  0
 80169  1  0
 81170  1  0
 83171  1  0
 84172  1  0
 86173  1  0
 86174  1  0
 86175  1  0
 87176  1  0
 88177  1  0
 95178  1  0
 96179  1  0
 98180  1  0
 98181  1  0
 98182  1  0
 99183  1  0
100184  1  0
102185  1  0
103186  1  0
105187  1  0
105188  1  0
105189  1  0
106190  1  0
107191  1  0
110192  1  0
117193  1  0
117194  1  0
118195  1  0
118196  1  0
118197  1  0
M  END

