
     RDKit          3D

261287  0  0  0  0  0  0  0  0999 V2000
   -2.2979    7.8071   -3.7752 C   0  0  0  0  0  0  0  0  0  0  0  0
   -3.3463    7.2505   -3.1277 C   0  0  0  0  0  0  0  0  0  0  0  0
   -3.5380    5.8125   -2.8899 C   0  0  0  0  0  0  0  0  0  0  0  0
   -2.8418    4.8630   -3.3425 O   0  0  0  0  0  0  0  0  0  0  0  0
   -4.5936    5.6452   -1.9167 C   0  0  0  0  0  0  0  0  0  0  0  0
   -5.1015    4.4508   -1.4067 C   0  0  0  0  0  0  0  0  0  0  0  0
   -6.1446    4.5099   -0.4750 C   0  0  0  0  0  0  0  0  0  0  0  0
   -6.6504    5.7554   -0.0640 C   0  0  0  0  0  0  0  0  0  0  0  0
   -6.1229    6.9476   -0.5873 C   0  0  0  0  0  0  0  0  0  0  0  0
   -5.0774    6.8814   -1.5301 C   0  0  0  0  0  0  0  0  0  0  0  0
   -4.3679    7.9560   -2.2858 C   0  0  0  0  0  0  0  0  0  0  0  0
   -4.6931    9.2738   -2.3346 C   0  0  0  0  0  0  0  0  0  0  0  0
   -4.1703   10.1613   -3.3422 C   0  0  0  0  0  0  0  0  0  0  0  0
   -3.7564   10.8765   -4.1541 N   0  0  0  0  0  0  0  0  0  0  0  0
   -5.6105    9.8879   -1.4109 C   0  0  0  0  0  0  0  0  0  0  0  0
   -6.3405   10.4020   -0.6689 N   0  0  0  0  0  0  0  0  0  0  0  0
   -1.3387    7.0391   -4.5782 C   0  0  0  0  0  0  0  0  0  0  0  0
   -1.7322    5.9863   -5.8375 S   0  0  0  0  0  0  0  0  0  0  0  0
   -0.1645    5.4354   -6.0518 C   0  0  0  0  0  0  0  0  0  0  0  0
    0.2631    4.2559   -6.7696 C   0  0  0  0  0  0  0  0  0  0  0  0
    1.5512    3.8053   -6.6242 C   0  0  0  0  0  0  0  0  0  0  0  0
    2.5047    4.5733   -5.9353 O   0  0  0  0  0  0  0  0  0  0  0  0
    2.1422    5.5823   -4.9615 C   0  0  0  0  0  0  0  0  0  0  0  0
    2.3326    4.9029   -3.5972 C   0  0  0  0  0  0  0  0  0  0  0  0
    3.6292    4.7442   -3.0584 C   0  0  0  0  0  0  0  0  0  0  0  0
    3.8410    3.9884   -1.9012 C   0  0  0  0  0  0  0  0  0  0  0  0
    2.7681    3.3441   -1.2707 C   0  0  0  0  0  0  0  0  0  0  0  0
    2.9990    2.4644   -0.0688 C   0  0  0  0  0  0  0  0  0  0  0  0
    3.2276    1.0106   -0.4861 C   0  0  0  0  0  0  0  0  0  0  0  0
    1.4850    3.4471   -1.8210 C   0  0  0  0  0  0  0  0  0  0  0  0
    1.2689    4.2065   -2.9747 C   0  0  0  0  0  0  0  0  0  0  0  0
    3.0293    6.8159   -5.1555 C   0  0  0  0  0  0  0  0  0  0  0  0
    3.2709    7.7234   -4.1009 C   0  0  0  0  0  0  0  0  0  0  0  0
    3.9642    8.9169   -4.3331 C   0  0  0  0  0  0  0  0  0  0  0  0
    4.4142    9.2360   -5.6264 C   0  0  0  0  0  0  0  0  0  0  0  0
    5.1071   10.5493   -5.8910 C   0  0  0  0  0  0  0  0  0  0  0  0
    4.0886   11.6701   -6.1069 C   0  0  0  0  0  0  0  0  0  0  0  0
    4.1584    8.3504   -6.6826 C   0  0  0  0  0  0  0  0  0  0  0  0
    3.4691    7.1571   -6.4508 C   0  0  0  0  0  0  0  0  0  0  0  0
    0.6946    6.0638   -5.1598 C   0  0  0  0  0  0  0  0  0  0  0  0
    0.0270    6.9842   -4.3358 C   0  0  0  0  0  0  0  0  0  0  0  0
    1.7565    2.5028   -7.0911 C   0  0  0  0  0  0  0  0  0  0  0  0
    0.5707    1.9092   -7.5443 C   0  0  0  0  0  0  0  0  0  0  0  0
   -0.6861    3.0332   -7.4032 S   0  0  0  0  0  0  0  0  0  0  0  0
    0.3358    0.4582   -7.6539 C   0  0  0  0  0  0  0  0  0  0  0  0
   -1.1900   -0.2420   -7.3371 S   0  0  0  0  0  0  0  0  0  0  0  0
   -0.5656   -1.7810   -7.2015 C   0  0  0  0  0  0  0  0  0  0  0  0
   -0.8919   -2.8943   -6.4931 C   0  0  0  0  0  0  0  0  0  0  0  0
   -2.1984   -3.4016   -5.5463 S   0  0  0  0  0  0  0  0  0  0  0  0
   -1.2238   -4.6271   -4.8867 C   0  0  0  0  0  0  0  0  0  0  0  0
   -1.3745   -5.5435   -3.7881 C   0  0  0  0  0  0  0  0  0  0  0  0
   -0.1077   -6.0760   -3.5485 C   0  0  0  0  0  0  0  0  0  0  0  0
    0.8733   -5.7436   -4.6814 C   0  0  0  0  0  0  0  0  0  0  0  0
    2.2434   -5.4168   -4.1034 C   0  0  0  0  0  0  0  0  0  0  0  0
    2.4005   -4.3360   -3.2113 C   0  0  0  0  0  0  0  0  0  0  0  0
    3.6316   -4.0933   -2.5949 C   0  0  0  0  0  0  0  0  0  0  0  0
    4.7224   -4.9597   -2.8284 C   0  0  0  0  0  0  0  0  0  0  0  0
    5.9790   -4.8042   -2.2128 O   0  0  0  0  0  0  0  0  0  0  0  0
    6.3671   -3.7160   -1.3856 C   0  0  0  0  0  0  0  0  0  0  0  0
    6.7224   -2.5019   -2.2295 C   0  0  0  0  0  0  0  0  0  0  0  0
    4.5599   -6.0489   -3.6818 C   0  0  0  0  0  0  0  0  0  0  0  0
    3.3384   -6.2842   -4.3028 C   0  0  0  0  0  0  0  0  0  0  0  0
    0.8968   -6.8514   -5.7448 C   0  0  0  0  0  0  0  0  0  0  0  0
    0.3764   -8.1447   -5.5021 C   0  0  0  0  0  0  0  0  0  0  0  0
    0.2921   -9.0841   -6.5299 C   0  0  0  0  0  0  0  0  0  0  0  0
    0.7386   -8.7607   -7.8241 C   0  0  0  0  0  0  0  0  0  0  0  0
    0.5650   -9.6138   -8.9186 O   0  0  0  0  0  0  0  0  0  0  0  0
   -0.3364  -10.7195   -8.9644 C   0  0  0  0  0  0  0  0  0  0  0  0
   -1.7881  -10.2565   -8.8414 C   0  0  0  0  0  0  0  0  0  0  0  0
    1.3560   -7.5269   -8.0397 C   0  0  0  0  0  0  0  0  0  0  0  0
    1.4275   -6.5802   -7.0221 C   0  0  0  0  0  0  0  0  0  0  0  0
    0.1007   -4.5732   -5.2822 C   0  0  0  0  0  0  0  0  0  0  0  0
    0.2827   -3.5494   -6.2231 C   0  0  0  0  0  0  0  0  0  0  0  0
    1.3625   -2.8694   -6.7251 N   0  0  0  0  0  0  0  0  0  0  0  0
    0.7922   -1.7835   -7.3176 C   0  0  0  0  0  0  0  0  0  0  0  0
    1.3375   -0.5259   -7.6060 C   0  0  0  0  0  0  0  0  0  0  0  0
    2.7915   -3.0071   -6.4184 C   0  0  0  0  0  0  0  0  0  0  0  0
    3.2345   -2.0207   -5.3314 C   0  0  0  0  0  0  0  0  0  0  0  0
    0.2036   -6.5808   -2.2771 C   0  0  0  0  0  0  0  0  0  0  0  0
   -0.8171   -6.5792   -1.3214 C   0  0  0  0  0  0  0  0  0  0  0  0
   -0.6947   -6.6054    0.1057 C   0  0  0  0  0  0  0  0  0  0  0  0
   -1.8948   -6.2559    0.6962 C   0  0  0  0  0  0  0  0  0  0  0  0
   -3.0139   -6.3413   -0.3620 C   0  0  0  0  0  0  0  0  0  0  0  0
   -2.1238   -6.2017   -1.6080 C   0  0  0  0  0  0  0  0  0  0  0  0
   -2.4282   -5.6507   -2.8691 C   0  0  0  0  0  0  0  0  0  0  0  0
   -4.1392   -5.2905   -0.3140 C   0  0  0  0  0  0  0  0  0  0  0  0
   -5.4555   -5.6607    0.0511 C   0  0  0  0  0  0  0  0  0  0  0  0
   -6.5165   -4.7687   -0.0725 C   0  0  0  0  0  0  0  0  0  0  0  0
   -6.3127   -3.4844   -0.5702 C   0  0  0  0  0  0  0  0  0  0  0  0
   -7.4433   -2.6657   -0.7321 O   0  0  0  0  0  0  0  0  0  0  0  0
   -7.4568   -1.3904   -1.3736 C   0  0  0  0  0  0  0  0  0  0  0  0
   -7.0566   -0.2935   -0.3977 C   0  0  0  0  0  0  0  0  0  0  0  0
   -5.0068   -3.0794   -0.8965 C   0  0  0  0  0  0  0  0  0  0  0  0
   -3.9284   -3.9657   -0.7544 C   0  0  0  0  0  0  0  0  0  0  0  0
   -3.5865   -7.7754   -0.3946 C   0  0  0  0  0  0  0  0  0  0  0  0
   -4.1169   -8.3004   -1.5926 C   0  0  0  0  0  0  0  0  0  0  0  0
   -4.5527   -9.6236   -1.6614 C   0  0  0  0  0  0  0  0  0  0  0  0
   -4.5221  -10.4445   -0.5364 C   0  0  0  0  0  0  0  0  0  0  0  0
   -4.9054  -11.7898   -0.6901 O   0  0  0  0  0  0  0  0  0  0  0  0
   -4.8922  -12.7783    0.3359 C   0  0  0  0  0  0  0  0  0  0  0  0
   -6.1882  -12.7285    1.1327 C   0  0  0  0  0  0  0  0  0  0  0  0
   -4.1037   -9.9029    0.6924 C   0  0  0  0  0  0  0  0  0  0  0  0
   -3.6503   -8.5782    0.7617 C   0  0  0  0  0  0  0  0  0  0  0  0
   -1.6661   -5.9172    2.0517 C   0  0  0  0  0  0  0  0  0  0  0  0
   -0.3320   -6.0112    2.3862 C   0  0  0  0  0  0  0  0  0  0  0  0
    0.6666   -6.3859    1.0882 S   0  0  0  0  0  0  0  0  0  0  0  0
   -0.1502   -5.2936    3.5264 C   0  0  0  0  0  0  0  0  0  0  0  0
    1.0847   -4.3025    4.0691 S   0  0  0  0  0  0  0  0  0  0  0  0
    0.0190   -3.2405    4.8736 C   0  0  0  0  0  0  0  0  0  0  0  0
   -1.3069   -3.6509    4.6644 C   0  0  0  0  0  0  0  0  0  0  0  0
   -1.3674   -4.7909    3.8615 C   0  0  0  0  0  0  0  0  0  0  0  0
   -2.3404   -5.1702    2.9790 N   0  0  0  0  0  0  0  0  0  0  0  0
   -3.6942   -4.6070    2.9222 C   0  0  0  0  0  0  0  0  0  0  0  0
   -3.6759   -3.1893    2.3429 C   0  0  0  0  0  0  0  0  0  0  0  0
    0.4042   -1.9079    5.3691 C   0  0  0  0  0  0  0  0  0  0  0  0
   -0.6530   -0.6000    5.4834 S   0  0  0  0  0  0  0  0  0  0  0  0
    0.5367    0.5205    5.8296 C   0  0  0  0  0  0  0  0  0  0  0  0
    0.4111    1.9581    5.9460 C   0  0  0  0  0  0  0  0  0  0  0  0
    1.5438    2.7360    5.9468 C   0  0  0  0  0  0  0  0  0  0  0  0
    2.8185    2.1481    5.9293 O   0  0  0  0  0  0  0  0  0  0  0  0
    3.0407    0.7377    6.1866 C   0  0  0  0  0  0  0  0  0  0  0  0
    4.1932    0.2485    5.3077 C   0  0  0  0  0  0  0  0  0  0  0  0
    5.0208   -0.8220    5.7080 C   0  0  0  0  0  0  0  0  0  0  0  0
    6.0395   -1.2926    4.8700 C   0  0  0  0  0  0  0  0  0  0  0  0
    6.2366   -0.7194    3.6086 C   0  0  0  0  0  0  0  0  0  0  0  0
    7.2876   -1.2709    2.6861 C   0  0  0  0  0  0  0  0  0  0  0  0
    6.7088   -2.3927    1.8325 C   0  0  0  0  0  0  0  0  0  0  0  0
    5.3846    0.3091    3.1777 C   0  0  0  0  0  0  0  0  0  0  0  0
    4.3690    0.7827    4.0158 C   0  0  0  0  0  0  0  0  0  0  0  0
    3.3978    0.6451    7.6753 C   0  0  0  0  0  0  0  0  0  0  0  0
    4.5777    1.2704    8.1279 C   0  0  0  0  0  0  0  0  0  0  0  0
    4.9392    1.2336    9.4729 C   0  0  0  0  0  0  0  0  0  0  0  0
    4.1146    0.5923   10.4075 C   0  0  0  0  0  0  0  0  0  0  0  0
    4.4802    0.5882   11.8652 C   0  0  0  0  0  0  0  0  0  0  0  0
    4.0516    1.8887   12.5375 C   0  0  0  0  0  0  0  0  0  0  0  0
    2.9184   -0.0028    9.9771 C   0  0  0  0  0  0  0  0  0  0  0  0
    2.5589    0.0247    8.6294 C   0  0  0  0  0  0  0  0  0  0  0  0
    1.7821   -0.0808    5.8361 C   0  0  0  0  0  0  0  0  0  0  0  0
    1.7072   -1.4630    5.5972 C   0  0  0  0  0  0  0  0  0  0  0  0
    1.2776    4.1101    5.9140 C   0  0  0  0  0  0  0  0  0  0  0  0
   -0.0889    4.3854    5.8825 C   0  0  0  0  0  0  0  0  0  0  0  0
   -0.9507    2.9219    5.8513 S   0  0  0  0  0  0  0  0  0  0  0  0
   -0.6697    5.7331    5.7235 C   0  0  0  0  0  0  0  0  0  0  0  0
   -1.8610    6.0947    6.2255 C   0  0  0  0  0  0  0  0  0  0  0  0
   -2.8372    5.1938    7.2586 S   0  0  0  0  0  0  0  0  0  0  0  0
   -4.0443    6.3606    7.4142 C   0  0  0  0  0  0  0  0  0  0  0  0
   -5.1544    6.1814    8.1747 C   0  0  0  0  0  0  0  0  0  0  0  0
   -5.3276    4.9610    8.9110 C   0  0  0  0  0  0  0  0  0  0  0  0
   -5.4570    3.9717    9.4917 N   0  0  0  0  0  0  0  0  0  0  0  0
   -6.2491    7.1121    8.2363 C   0  0  0  0  0  0  0  0  0  0  0  0
   -7.1492    7.8349    8.2908 N   0  0  0  0  0  0  0  0  0  0  0  0
   -3.7021    7.4681    6.6764 N   0  0  0  0  0  0  0  0  0  0  0  0
   -4.4496    8.6913    6.5679 C   0  0  0  0  0  0  0  0  0  0  0  0
   -5.5545    8.7678    5.7055 C   0  0  0  0  0  0  0  0  0  0  0  0
   -6.2624    9.9667    5.5876 C   0  0  0  0  0  0  0  0  0  0  0  0
   -5.8481   11.0941    6.2975 C   0  0  0  0  0  0  0  0  0  0  0  0
   -4.7289   11.0301    7.1326 C   0  0  0  0  0  0  0  0  0  0  0  0
   -4.0369    9.8250    7.2779 C   0  0  0  0  0  0  0  0  0  0  0  0
   -2.4953    7.3197    6.0418 C   0  0  0  0  0  0  0  0  0  0  0  0
   -2.0027    8.2323    5.3192 O   0  0  0  0  0  0  0  0  0  0  0  0
   -2.0683    8.8476   -3.6403 H   0  0  0  0  0  0  0  0  0  0  0  0
   -4.7087    3.4991   -1.7296 H   0  0  0  0  0  0  0  0  0  0  0  0
   -6.5588    3.5916   -0.0782 H   0  0  0  0  0  0  0  0  0  0  0  0
   -7.4604    5.7929    0.6462 H   0  0  0  0  0  0  0  0  0  0  0  0
   -6.5568    7.8732   -0.2587 H   0  0  0  0  0  0  0  0  0  0  0  0
    4.4884    5.1828   -3.5509 H   0  0  0  0  0  0  0  0  0  0  0  0
    4.8477    3.8807   -1.5120 H   0  0  0  0  0  0  0  0  0  0  0  0
    2.1300    2.5243    0.6189 H   0  0  0  0  0  0  0  0  0  0  0  0
    3.8802    2.8218    0.5042 H   0  0  0  0  0  0  0  0  0  0  0  0
    3.3087    0.3701    0.4128 H   0  0  0  0  0  0  0  0  0  0  0  0
    4.1631    0.9227   -1.0831 H   0  0  0  0  0  0  0  0  0  0  0  0
    2.3751    0.6506   -1.0983 H   0  0  0  0  0  0  0  0  0  0  0  0
    0.6552    2.9143   -1.3662 H   0  0  0  0  0  0  0  0  0  0  0  0
    0.2715    4.2117   -3.3909 H   0  0  0  0  0  0  0  0  0  0  0  0
    2.8959    7.5224   -3.1033 H   0  0  0  0  0  0  0  0  0  0  0  0
    4.1330    9.6036   -3.5126 H   0  0  0  0  0  0  0  0  0  0  0  0
    5.7674   10.8131   -5.0347 H   0  0  0  0  0  0  0  0  0  0  0  0
    5.7483   10.4667   -6.7945 H   0  0  0  0  0  0  0  0  0  0  0  0
    4.6103   12.5748   -6.4867 H   0  0  0  0  0  0  0  0  0  0  0  0
    3.5907   11.9223   -5.1463 H   0  0  0  0  0  0  0  0  0  0  0  0
    3.3236   11.3634   -6.8496 H   0  0  0  0  0  0  0  0  0  0  0  0
    4.4844    8.5848   -7.6875 H   0  0  0  0  0  0  0  0  0  0  0  0
    3.2556    6.5150   -7.2949 H   0  0  0  0  0  0  0  0  0  0  0  0
    0.5004    7.5267   -3.5320 H   0  0  0  0  0  0  0  0  0  0  0  0
    2.6926    1.9772   -6.9647 H   0  0  0  0  0  0  0  0  0  0  0  0
    1.5625   -3.6932   -2.9843 H   0  0  0  0  0  0  0  0  0  0  0  0
    3.7237   -3.2441   -1.9287 H   0  0  0  0  0  0  0  0  0  0  0  0
    7.2688   -4.0236   -0.8189 H   0  0  0  0  0  0  0  0  0  0  0  0
    5.5654   -3.4737   -0.6553 H   0  0  0  0  0  0  0  0  0  0  0  0
    7.5873   -2.7380   -2.8858 H   0  0  0  0  0  0  0  0  0  0  0  0
    6.9938   -1.6528   -1.5694 H   0  0  0  0  0  0  0  0  0  0  0  0
    5.8638   -2.2001   -2.8638 H   0  0  0  0  0  0  0  0  0  0  0  0
    5.3857   -6.7353   -3.8453 H   0  0  0  0  0  0  0  0  0  0  0  0
    3.2579   -7.1697   -4.9143 H   0  0  0  0  0  0  0  0  0  0  0  0
    0.0010   -8.4241   -4.5247 H   0  0  0  0  0  0  0  0  0  0  0  0
   -0.1257  -10.0548   -6.3114 H   0  0  0  0  0  0  0  0  0  0  0  0
   -0.0906  -11.4587   -8.1708 H   0  0  0  0  0  0  0  0  0  0  0  0
   -0.2149  -11.2288   -9.9461 H   0  0  0  0  0  0  0  0  0  0  0  0
   -1.9864   -9.4318   -9.5572 H   0  0  0  0  0  0  0  0  0  0  0  0
   -2.4674  -11.1010   -9.0683 H   0  0  0  0  0  0  0  0  0  0  0  0
   -2.0053   -9.9014   -7.8135 H   0  0  0  0  0  0  0  0  0  0  0  0
    1.7387   -7.2818   -9.0237 H   0  0  0  0  0  0  0  0  0  0  0  0
    1.8799   -5.6273   -7.2444 H   0  0  0  0  0  0  0  0  0  0  0  0
    2.3948   -0.3162   -7.6495 H   0  0  0  0  0  0  0  0  0  0  0  0
    3.0247   -4.0344   -6.1060 H   0  0  0  0  0  0  0  0  0  0  0  0
    3.3789   -2.8153   -7.3386 H   0  0  0  0  0  0  0  0  0  0  0  0
    3.3134   -0.9933   -5.7288 H   0  0  0  0  0  0  0  0  0  0  0  0
    4.2357   -2.3065   -4.9513 H   0  0  0  0  0  0  0  0  0  0  0  0
    2.5086   -2.0036   -4.4992 H   0  0  0  0  0  0  0  0  0  0  0  0
    1.2181   -6.8603   -2.0098 H   0  0  0  0  0  0  0  0  0  0  0  0
   -3.4030   -5.2357   -3.0873 H   0  0  0  0  0  0  0  0  0  0  0  0
   -5.6831   -6.6477    0.4390 H   0  0  0  0  0  0  0  0  0  0  0  0
   -7.5187   -5.0920    0.1870 H   0  0  0  0  0  0  0  0  0  0  0  0
   -6.7991   -1.3790   -2.2666 H   0  0  0  0  0  0  0  0  0  0  0  0
   -8.4959   -1.1846   -1.7135 H   0  0  0  0  0  0  0  0  0  0  0  0
   -7.7983   -0.2442    0.4276 H   0  0  0  0  0  0  0  0  0  0  0  0
   -7.0408    0.6813   -0.9204 H   0  0  0  0  0  0  0  0  0  0  0  0
   -6.0496   -0.4904    0.0285 H   0  0  0  0  0  0  0  0  0  0  0  0
   -4.8102   -2.0792   -1.2672 H   0  0  0  0  0  0  0  0  0  0  0  0
   -2.9347   -3.6264   -1.0220 H   0  0  0  0  0  0  0  0  0  0  0  0
   -4.1649   -7.6984   -2.4887 H   0  0  0  0  0  0  0  0  0  0  0  0
   -4.9320  -10.0120   -2.6035 H   0  0  0  0  0  0  0  0  0  0  0  0
   -4.0105  -12.6458    1.0017 H   0  0  0  0  0  0  0  0  0  0  0  0
   -4.8005  -13.7742   -0.1386 H   0  0  0  0  0  0  0  0  0  0  0  0
   -6.3919  -11.6987    1.4956 H   0  0  0  0  0  0  0  0  0  0  0  0
   -6.1061  -13.4129    2.0013 H   0  0  0  0  0  0  0  0  0  0  0  0
   -7.0319  -13.0546    0.4885 H   0  0  0  0  0  0  0  0  0  0  0  0
   -4.1162  -10.4878    1.5980 H   0  0  0  0  0  0  0  0  0  0  0  0
   -3.3456   -8.1943    1.7249 H   0  0  0  0  0  0  0  0  0  0  0  0
   -2.1701   -3.0556    4.9449 H   0  0  0  0  0  0  0  0  0  0  0  0
   -4.3419   -5.2805    2.3371 H   0  0  0  0  0  0  0  0  0  0  0  0
   -4.1231   -4.5781    3.9463 H   0  0  0  0  0  0  0  0  0  0  0  0
   -3.4036   -2.4493    3.1232 H   0  0  0  0  0  0  0  0  0  0  0  0
   -2.9352   -3.1094    1.5246 H   0  0  0  0  0  0  0  0  0  0  0  0
   -4.6904   -2.9295    1.9656 H   0  0  0  0  0  0  0  0  0  0  0  0
    4.8810   -1.3100    6.6669 H   0  0  0  0  0  0  0  0  0  0  0  0
    6.6589   -2.1199    5.1956 H   0  0  0  0  0  0  0  0  0  0  0  0
    7.6739   -0.4695    2.0207 H   0  0  0  0  0  0  0  0  0  0  0  0
    8.1489   -1.6671    3.2657 H   0  0  0  0  0  0  0  0  0  0  0  0
    5.8564   -2.0051    1.2311 H   0  0  0  0  0  0  0  0  0  0  0  0
    7.4921   -2.7731    1.1465 H   0  0  0  0  0  0  0  0  0  0  0  0
    6.3591   -3.2277    2.4727 H   0  0  0  0  0  0  0  0  0  0  0  0
    5.5007    0.7314    2.1848 H   0  0  0  0  0  0  0  0  0  0  0  0
    3.7100    1.5595    3.6411 H   0  0  0  0  0  0  0  0  0  0  0  0
    5.2256    1.7827    7.4268 H   0  0  0  0  0  0  0  0  0  0  0  0
    5.8543    1.7171    9.7941 H   0  0  0  0  0  0  0  0  0  0  0  0
    3.9896   -0.2674   12.3838 H   0  0  0  0  0  0  0  0  0  0  0  0
    5.5779    0.4523   11.9841 H   0  0  0  0  0  0  0  0  0  0  0  0
    4.2840    1.8395   13.6181 H   0  0  0  0  0  0  0  0  0  0  0  0
    4.5946    2.7495   12.0902 H   0  0  0  0  0  0  0  0  0  0  0  0
    2.9587    2.0473   12.4117 H   0  0  0  0  0  0  0  0  0  0  0  0
    2.2554   -0.4740   10.6953 H   0  0  0  0  0  0  0  0  0  0  0  0
    1.6270   -0.4382    8.3473 H   0  0  0  0  0  0  0  0  0  0  0  0
    2.5755   -2.1075    5.5604 H   0  0  0  0  0  0  0  0  0  0  0  0
    2.0457    4.8646    5.9035 H   0  0  0  0  0  0  0  0  0  0  0  0
   -0.0841    6.4618    5.1789 H   0  0  0  0  0  0  0  0  0  0  0  0
   -5.8796    7.8885    5.1635 H   0  0  0  0  0  0  0  0  0  0  0  0
   -7.1330   10.0204    4.9546 H   0  0  0  0  0  0  0  0  0  0  0  0
   -6.3939   12.0240    6.2026 H   0  0  0  0  0  0  0  0  0  0  0  0
   -4.4063   11.9043    7.6799 H   0  0  0  0  0  0  0  0  0  0  0  0
   -3.1733    9.7796    7.9309 H   0  0  0  0  0  0  0  0  0  0  0  0
  1  2  2  3
  2  3  1  0
  3  4  2  0
  3  5  1  0
  5  6  2  0
  6  7  1  0
  7  8  2  0
  8  9  1  0
  9 10  2  0
 10 11  1  0
 11 12  2  3
 12 13  1  0
 13 14  3  0
 12 15  1  0
 15 16  3  0
  1 17  1  0
 17 18  1  0
 18 19  1  0
 19 20  1  0
 20 21  2  0
 21 22  1  0
 22 23  1  0
 23 24  1  0
 24 25  2  0
 25 26  1  0
 26 27  2  0
 27 28  1  0
 28 29  1  0
 27 30  1  0
 30 31  2  0
 23 32  1  0
 32 33  2  0
 33 34  1  0
 34 35  2  0
 35 36  1  0
 36 37  1  0
 35 38  1  0
 38 39  2  0
 23 40  1  0
 40 41  1  0
 21 42  1  0
 42 43  2  0
 43 44  1  0
 43 45  1  0
 45 46  1  0
 46 47  1  0
 47 48  1  0
 48 49  1  0
 49 50  1  0
 50 51  1  0
 51 52  2  0
 52 53  1  0
 53 54  1  0
 54 55  2  0
 55 56  1  0
 56 57  2  0
 57 58  1  0
 58 59  1  0
 59 60  1  0
 57 61  1  0
 61 62  2  0
 53 63  1  0
 63 64  2  0
 64 65  1  0
 65 66  2  0
 66 67  1  0
 67 68  1  0
 68 69  1  0
 66 70  1  0
 70 71  2  0
 53 72  1  0
 72 73  1  0
 73 74  1  0
 74 75  1  0
 75 76  1  0
 74 77  1  0
 77 78  1  0
 52 79  1  0
 79 80  2  0
 80 81  1  0
 81 82  2  0
 82 83  1  0
 83 84  1  0
 84 85  2  0
 83 86  1  0
 86 87  2  0
 87 88  1  0
 88 89  2  0
 89 90  1  0
 90 91  1  0
 91 92  1  0
 89 93  1  0
 93 94  2  0
 83 95  1  0
 95 96  2  0
 96 97  1  0
 97 98  2  0
 98 99  1  0
 99100  1  0
100101  1  0
 98102  1  0
102103  2  0
 82104  1  0
104105  2  0
105106  1  0
105107  1  0
107108  1  0
108109  1  0
109110  2  0
110111  1  0
111112  1  0
112113  1  0
113114  1  0
109115  1  0
115116  1  0
116117  1  0
117118  1  0
118119  2  0
119120  1  0
120121  1  0
121122  1  0
122123  2  0
123124  1  0
124125  2  0
125126  1  0
126127  1  0
125128  1  0
128129  2  0
121130  1  0
130131  2  0
131132  1  0
132133  2  0
133134  1  0
134135  1  0
133136  1  0
136137  2  0
121138  1  0
138139  1  0
119140  1  0
140141  2  0
141142  1  0
141143  1  0
143144  2  3
144145  1  0
145146  1  0
146147  2  3
147148  1  0
148149  3  0
147150  1  0
150151  3  0
146152  1  0
152153  1  0
153154  2  0
154155  1  0
155156  2  0
156157  1  0
157158  2  0
152159  1  0
159160  2  0
 11  2  1  0
 41 17  2  0
 76 45  2  0
 84 80  1  0
 94 86  1  0
103 95  1  0
112104  1  0
139115  2  0
159144  1  0
 10  5  1  0
 40 19  2  0
 75 47  2  0
106 81  1  0
111107  2  0
138117  2  0
158153  1  0
 44 20  1  0
 73 48  2  0
142118  1  0
 31 24  1  0
 39 32  1  0
 72 50  2  0
129122  1  0
137130  1  0
 85 51  1  0
 62 54  1  0
 71 63  1  0
  1161  1  0
  6162  1  0
  7163  1  0
  8164  1  0
  9165  1  0
 25166  1  0
 26167  1  0
 28168  1  0
 28169  1  0
 29170  1  0
 29171  1  0
 29172  1  0
 30173  1  0
 31174  1  0
 33175  1  0
 34176  1  0
 36177  1  0
 36178  1  0
 37179  1  0
 37180  1  0
 37181  1  0
 38182  1  0
 39183  1  0
 41184  1  0
 42185  1  0
 55186  1  0
 56187  1  0
 59188  1  0
 59189  1  0
 60190  1  0
 60191  1  0
 60192  1  0
 61193  1  0
 62194  1  0
 64195  1  0
 65196  1  0
 68197  1  0
 68198  1  0
 69199  1  0
 69200  1  0
 69201  1  0
 70202  1  0
 71203  1  0
 76204  1  0
 77205  1  0
 77206  1  0
 78207  1  0
 78208  1  0
 78209  1  0
 79210  1  0
 85211  1  0
 87212  1  0
 88213  1  0
 91214  1  0
 91215  1  0
 92216  1  0
 92217  1  0
 92218  1  0
 93219  1  0
 94220  1  0
 96221  1  0
 97222  1  0
100223  1  0
100224  1  0
101225  1  0
101226  1  0
101227  1  0
102228  1  0
103229  1  0
110230  1  0
113231  1  0
113232  1  0
114233  1  0
114234  1  0
114235  1  0
123236  1  0
124237  1  0
126238  1  0
126239  1  0
127240  1  0
127241  1  0
127242  1  0
128243  1  0
129244  1  0
131245  1  0
132246  1  0
134247  1  0
134248  1  0
135249  1  0
135250  1  0
135251  1  0
136252  1  0
137253  1  0
139254  1  0
140255  1  0
143256  1  0
154257  1  0
155258  1  0
156259  1  0
157260  1  0
158261  1  0
M  END

