
     RDKit          3D

249274  0  0  0  0  0  0  0  0999 V2000
   -0.1781   -6.6691    3.7822 C   0  0  0  0  0  0  0  0  0  0  0  0
   -0.4655   -6.0659    4.9510 C   0  0  0  0  0  0  0  0  0  0  0  0
   -1.4413   -4.9841    5.1412 C   0  0  0  0  0  0  0  0  0  0  0  0
   -2.3142   -4.5982    4.3197 O   0  0  0  0  0  0  0  0  0  0  0  0
   -1.1611   -4.3304    6.3997 C   0  0  0  0  0  0  0  0  0  0  0  0
   -1.7475   -3.1758    6.9151 C   0  0  0  0  0  0  0  0  0  0  0  0
   -1.2455   -2.6521    8.1129 C   0  0  0  0  0  0  0  0  0  0  0  0
   -0.1572   -3.2700    8.7558 C   0  0  0  0  0  0  0  0  0  0  0  0
    0.4320   -4.4220    8.2083 C   0  0  0  0  0  0  0  0  0  0  0  0
   -0.0986   -4.9593    7.0271 C   0  0  0  0  0  0  0  0  0  0  0  0
    0.3348   -6.1357    6.2124 C   0  0  0  0  0  0  0  0  0  0  0  0
    1.0950   -7.1781    6.6342 C   0  0  0  0  0  0  0  0  0  0  0  0
    1.2771   -8.3681    5.8378 C   0  0  0  0  0  0  0  0  0  0  0  0
    1.4200   -9.3276    5.2057 N   0  0  0  0  0  0  0  0  0  0  0  0
    1.6599   -7.2444    7.9565 C   0  0  0  0  0  0  0  0  0  0  0  0
    2.1108   -7.3218    9.0172 N   0  0  0  0  0  0  0  0  0  0  0  0
   -1.0178   -6.5407    2.5841 C   0  0  0  0  0  0  0  0  0  0  0  0
   -0.5935   -6.0363    1.3563 C   0  0  0  0  0  0  0  0  0  0  0  0
    0.7116   -5.5116    1.0801 N   0  0  0  0  0  0  0  0  0  0  0  0
    1.7706   -6.4402    0.7630 C   0  0  0  0  0  0  0  0  0  0  0  0
    3.0832   -6.1861    1.1880 C   0  0  0  0  0  0  0  0  0  0  0  0
    4.1121   -7.0863    0.8836 C   0  0  0  0  0  0  0  0  0  0  0  0
    3.8338   -8.2598    0.1629 C   0  0  0  0  0  0  0  0  0  0  0  0
    4.9254   -9.2489   -0.1288 C   0  0  0  0  0  0  0  0  0  0  0  0
    2.5190   -8.5295   -0.2419 C   0  0  0  0  0  0  0  0  0  0  0  0
    1.4970   -7.6262    0.0559 C   0  0  0  0  0  0  0  0  0  0  0  0
    0.8562   -4.0837    0.9109 C   0  0  0  0  0  0  0  0  0  0  0  0
    0.0950   -3.1936    1.6931 C   0  0  0  0  0  0  0  0  0  0  0  0
    0.1742   -1.8167    1.4894 C   0  0  0  0  0  0  0  0  0  0  0  0
    1.0014   -1.2951    0.4879 C   0  0  0  0  0  0  0  0  0  0  0  0
    1.1040    0.1873    0.3026 C   0  0  0  0  0  0  0  0  0  0  0  0
    1.7658   -2.1732   -0.2976 C   0  0  0  0  0  0  0  0  0  0  0  0
    1.6883   -3.5538   -0.0958 C   0  0  0  0  0  0  0  0  0  0  0  0
   -1.6261   -6.0098    0.4328 C   0  0  0  0  0  0  0  0  0  0  0  0
   -1.7777   -5.3944   -1.1121 S   0  0  0  0  0  0  0  0  0  0  0  0
   -3.4324   -5.7895   -1.2266 C   0  0  0  0  0  0  0  0  0  0  0  0
   -3.8639   -6.3361   -0.0094 C   0  0  0  0  0  0  0  0  0  0  0  0
   -5.2361   -6.4615    0.3796 N   0  0  0  0  0  0  0  0  0  0  0  0
   -5.7683   -5.5436    1.3711 C   0  0  0  0  0  0  0  0  0  0  0  0
   -5.2206   -4.2541    1.5086 C   0  0  0  0  0  0  0  0  0  0  0  0
   -5.6609   -3.3914    2.5164 C   0  0  0  0  0  0  0  0  0  0  0  0
   -6.6748   -3.7896    3.3920 C   0  0  0  0  0  0  0  0  0  0  0  0
   -7.1065   -2.8708    4.4971 C   0  0  0  0  0  0  0  0  0  0  0  0
   -7.2315   -5.0704    3.2632 C   0  0  0  0  0  0  0  0  0  0  0  0
   -6.7802   -5.9435    2.2640 C   0  0  0  0  0  0  0  0  0  0  0  0
   -5.9687   -7.6142   -0.0815 C   0  0  0  0  0  0  0  0  0  0  0  0
   -7.2736   -7.4748   -0.5763 C   0  0  0  0  0  0  0  0  0  0  0  0
   -7.9685   -8.5897   -1.0537 C   0  0  0  0  0  0  0  0  0  0  0  0
   -7.3657   -9.8591   -1.0452 C   0  0  0  0  0  0  0  0  0  0  0  0
   -8.1147  -11.0573   -1.5420 C   0  0  0  0  0  0  0  0  0  0  0  0
   -6.0665  -10.0016   -0.5353 C   0  0  0  0  0  0  0  0  0  0  0  0
   -5.3708   -8.8841   -0.0653 C   0  0  0  0  0  0  0  0  0  0  0  0
   -2.8091   -6.4733    0.8835 C   0  0  0  0  0  0  0  0  0  0  0  0
   -2.6733   -6.9557    2.4884 S   0  0  0  0  0  0  0  0  0  0  0  0
   -4.2735   -5.2450   -2.2890 C   0  0  0  0  0  0  0  0  0  0  0  0
   -4.1438   -5.5822   -3.6560 C   0  0  0  0  0  0  0  0  0  0  0  0
   -3.8090   -6.9279   -4.1993 C   0  0  0  0  0  0  0  0  0  0  0  0
   -4.5772   -7.4501   -5.2510 C   0  0  0  0  0  0  0  0  0  0  0  0
   -4.3723   -8.7472   -5.7117 C   0  0  0  0  0  0  0  0  0  0  0  0
   -3.3722   -9.5433   -5.1435 C   0  0  0  0  0  0  0  0  0  0  0  0
   -2.5702   -9.0347   -4.1137 C   0  0  0  0  0  0  0  0  0  0  0  0
   -1.5175   -9.8923   -3.4584 C   0  0  0  0  0  0  0  0  0  0  0  0
   -2.0323  -10.4609   -2.1386 C   0  0  0  0  0  0  0  0  0  0  0  0
   -2.7869   -7.7291   -3.6525 C   0  0  0  0  0  0  0  0  0  0  0  0
   -4.4876   -4.4923   -4.4698 C   0  0  0  0  0  0  0  0  0  0  0  0
   -3.8090   -4.0429   -5.9759 S   0  0  0  0  0  0  0  0  0  0  0  0
   -4.1642   -2.4031   -5.7181 C   0  0  0  0  0  0  0  0  0  0  0  0
   -3.5219   -1.2285   -6.0328 C   0  0  0  0  0  0  0  0  0  0  0  0
   -2.6678   -0.8815   -7.0901 C   0  0  0  0  0  0  0  0  0  0  0  0
   -2.0546    0.4005   -7.0788 C   0  0  0  0  0  0  0  0  0  0  0  0
   -1.2350    0.6942   -8.1212 N   0  0  0  0  0  0  0  0  0  0  0  0
   -1.3573   -0.7143   -8.9802 S   0  0  0  0  0  0  0  0  0  0  0  0
   -2.3874   -1.6972   -8.1341 N   0  0  0  0  0  0  0  0  0  0  0  0
   -2.2782    1.2536   -5.9900 C   0  0  0  0  0  0  0  0  0  0  0  0
   -1.6115    2.3856   -5.6023 C   0  0  0  0  0  0  0  0  0  0  0  0
   -0.2447    3.2585   -6.0990 S   0  0  0  0  0  0  0  0  0  0  0  0
   -0.1259    4.0151   -4.5704 C   0  0  0  0  0  0  0  0  0  0  0  0
    0.8246    4.8632   -3.9993 C   0  0  0  0  0  0  0  0  0  0  0  0
    2.0456    5.2896   -4.6967 C   0  0  0  0  0  0  0  0  0  0  0  0
    2.1418    6.5809   -5.2280 C   0  0  0  0  0  0  0  0  0  0  0  0
    3.3503    7.0265   -5.7682 C   0  0  0  0  0  0  0  0  0  0  0  0
    4.4659    6.1853   -5.7827 C   0  0  0  0  0  0  0  0  0  0  0  0
    4.3736    4.8780   -5.2678 C   0  0  0  0  0  0  0  0  0  0  0  0
    5.5935    3.9898   -5.2108 C   0  0  0  0  0  0  0  0  0  0  0  0
    6.2599    4.0749   -3.8421 C   0  0  0  0  0  0  0  0  0  0  0  0
    3.1550    4.4374   -4.7276 C   0  0  0  0  0  0  0  0  0  0  0  0
    0.5667    5.0777   -2.6209 C   0  0  0  0  0  0  0  0  0  0  0  0
   -0.8078    4.1674   -2.1833 S   0  0  0  0  0  0  0  0  0  0  0  0
   -1.0807    3.5472   -3.7123 C   0  0  0  0  0  0  0  0  0  0  0  0
   -1.9301    2.6079   -4.2998 C   0  0  0  0  0  0  0  0  0  0  0  0
   -2.7682    1.6635   -3.7926 N   0  0  0  0  0  0  0  0  0  0  0  0
   -3.0515    0.8683   -4.8835 C   0  0  0  0  0  0  0  0  0  0  0  0
   -3.7633   -0.3634   -4.9600 C   0  0  0  0  0  0  0  0  0  0  0  0
   -4.5965   -0.9427   -4.0452 N   0  0  0  0  0  0  0  0  0  0  0  0
   -4.7686   -2.2022   -4.5111 C   0  0  0  0  0  0  0  0  0  0  0  0
   -4.9353   -3.3794   -3.7996 C   0  0  0  0  0  0  0  0  0  0  0  0
   -4.8331   -3.6511   -2.1536 S   0  0  0  0  0  0  0  0  0  0  0  0
   -5.5871   -0.2569   -3.2014 C   0  0  0  0  0  0  0  0  0  0  0  0
   -7.0220   -0.6561   -3.5595 C   0  0  0  0  0  0  0  0  0  0  0  0
   -2.8164    1.3033   -2.3629 C   0  0  0  0  0  0  0  0  0  0  0  0
   -1.8906    0.1330   -2.0558 C   0  0  0  0  0  0  0  0  0  0  0  0
    1.4789    5.7063   -1.6197 C   0  0  0  0  0  0  0  0  0  0  0  0
    1.2570    5.7629   -0.2271 C   0  0  0  0  0  0  0  0  0  0  0  0
   -0.0320    5.9562    0.3746 N   0  0  0  0  0  0  0  0  0  0  0  0
   -0.7275    4.8485    0.9849 C   0  0  0  0  0  0  0  0  0  0  0  0
   -2.1323    4.8322    1.0130 C   0  0  0  0  0  0  0  0  0  0  0  0
   -2.8169    3.7655    1.5936 C   0  0  0  0  0  0  0  0  0  0  0  0
   -2.1076    2.6861    2.1468 C   0  0  0  0  0  0  0  0  0  0  0  0
   -2.8398    1.5492    2.7916 C   0  0  0  0  0  0  0  0  0  0  0  0
   -0.7076    2.7079    2.1371 C   0  0  0  0  0  0  0  0  0  0  0  0
   -0.0218    3.7668    1.5437 C   0  0  0  0  0  0  0  0  0  0  0  0
   -0.4661    7.3251    0.5799 C   0  0  0  0  0  0  0  0  0  0  0  0
   -0.9889    7.7426    1.8210 C   0  0  0  0  0  0  0  0  0  0  0  0
   -1.2718    9.0895    2.0621 C   0  0  0  0  0  0  0  0  0  0  0  0
   -1.0458   10.0513    1.0633 C   0  0  0  0  0  0  0  0  0  0  0  0
   -1.2648   11.5087    1.3569 C   0  0  0  0  0  0  0  0  0  0  0  0
   -0.5346    9.6442   -0.1753 C   0  0  0  0  0  0  0  0  0  0  0  0
   -0.2644    8.2941   -0.4210 C   0  0  0  0  0  0  0  0  0  0  0  0
    2.4293    6.0886    0.4522 C   0  0  0  0  0  0  0  0  0  0  0  0
    2.9157    5.9891    2.0441 S   0  0  0  0  0  0  0  0  0  0  0  0
    4.5544    6.3938    1.7395 C   0  0  0  0  0  0  0  0  0  0  0  0
    4.6809    6.6238    0.3576 C   0  0  0  0  0  0  0  0  0  0  0  0
    5.8051    7.2623   -0.2798 N   0  0  0  0  0  0  0  0  0  0  0  0
    7.0878    6.6039   -0.3254 C   0  0  0  0  0  0  0  0  0  0  0  0
    8.2655    7.3350   -0.0783 C   0  0  0  0  0  0  0  0  0  0  0  0
    9.4991    6.6858   -0.0399 C   0  0  0  0  0  0  0  0  0  0  0  0
    9.5731    5.2959   -0.2279 C   0  0  0  0  0  0  0  0  0  0  0  0
   10.9027    4.6051   -0.1877 C   0  0  0  0  0  0  0  0  0  0  0  0
    8.4042    4.5693   -0.4940 C   0  0  0  0  0  0  0  0  0  0  0  0
    7.1704    5.2169   -0.5329 C   0  0  0  0  0  0  0  0  0  0  0  0
    5.6169    8.5932   -0.8202 C   0  0  0  0  0  0  0  0  0  0  0  0
    4.7528    9.5077   -0.1836 C   0  0  0  0  0  0  0  0  0  0  0  0
    4.5361   10.7766   -0.7218 C   0  0  0  0  0  0  0  0  0  0  0  0
    5.1990   11.1675   -1.8928 C   0  0  0  0  0  0  0  0  0  0  0  0
    4.9441   12.5220   -2.4859 C   0  0  0  0  0  0  0  0  0  0  0  0
    6.0457   10.2596   -2.5456 C   0  0  0  0  0  0  0  0  0  0  0  0
    6.2512    8.9818   -2.0159 C   0  0  0  0  0  0  0  0  0  0  0  0
    3.4880    6.3924   -0.3156 C   0  0  0  0  0  0  0  0  0  0  0  0
    3.0891    6.1957   -1.9274 S   0  0  0  0  0  0  0  0  0  0  0  0
    5.7126    6.1288    2.6367 C   0  0  0  0  0  0  0  0  0  0  0  0
    5.6418    5.5642    3.8546 C   0  0  0  0  0  0  0  0  0  0  0  0
    6.5922    4.5232    4.2603 C   0  0  0  0  0  0  0  0  0  0  0  0
    7.7319    4.3229    3.7557 O   0  0  0  0  0  0  0  0  0  0  0  0
    5.9415    3.6739    5.2343 C   0  0  0  0  0  0  0  0  0  0  0  0
    6.3767    2.4522    5.7490 C   0  0  0  0  0  0  0  0  0  0  0  0
    5.5005    1.7190    6.5639 C   0  0  0  0  0  0  0  0  0  0  0  0
    4.2079    2.2107    6.8352 C   0  0  0  0  0  0  0  0  0  0  0  0
    3.7838    3.4445    6.3126 C   0  0  0  0  0  0  0  0  0  0  0  0
    4.6829    4.1765    5.5152 C   0  0  0  0  0  0  0  0  0  0  0  0
    4.4816    5.4561    4.7844 C   0  0  0  0  0  0  0  0  0  0  0  0
    3.7086    6.4979    5.1702 C   0  0  0  0  0  0  0  0  0  0  0  0
    3.9271    7.8241    4.6461 C   0  0  0  0  0  0  0  0  0  0  0  0
    4.1154    8.8911    4.2421 N   0  0  0  0  0  0  0  0  0  0  0  0
    2.7602    6.3962    6.2536 C   0  0  0  0  0  0  0  0  0  0  0  0
    2.0081    6.3148    7.1289 N   0  0  0  0  0  0  0  0  0  0  0  0
    0.7484   -7.2038    3.6595 H   0  0  0  0  0  0  0  0  0  0  0  0
   -2.5664   -2.6889    6.4007 H   0  0  0  0  0  0  0  0  0  0  0  0
   -1.6847   -1.7567    8.5374 H   0  0  0  0  0  0  0  0  0  0  0  0
    0.2340   -2.8495    9.6694 H   0  0  0  0  0  0  0  0  0  0  0  0
    1.2986   -4.8381    8.6999 H   0  0  0  0  0  0  0  0  0  0  0  0
    3.3018   -5.2962    1.7667 H   0  0  0  0  0  0  0  0  0  0  0  0
    5.1177   -6.8683    1.2218 H   0  0  0  0  0  0  0  0  0  0  0  0
    5.9157   -8.7521   -0.1553 H   0  0  0  0  0  0  0  0  0  0  0  0
    4.9256  -10.0316    0.6611 H   0  0  0  0  0  0  0  0  0  0  0  0
    4.7540   -9.7363   -1.1105 H   0  0  0  0  0  0  0  0  0  0  0  0
    2.2885   -9.4414   -0.7747 H   0  0  0  0  0  0  0  0  0  0  0  0
    0.4951   -7.8507   -0.2842 H   0  0  0  0  0  0  0  0  0  0  0  0
   -0.5565   -3.5681    2.4705 H   0  0  0  0  0  0  0  0  0  0  0  0
   -0.4115   -1.1527    2.1154 H   0  0  0  0  0  0  0  0  0  0  0  0
    1.5968    0.4414   -0.6592 H   0  0  0  0  0  0  0  0  0  0  0  0
    0.0892    0.6361    0.3015 H   0  0  0  0  0  0  0  0  0  0  0  0
    1.6942    0.6218    1.1353 H   0  0  0  0  0  0  0  0  0  0  0  0
    2.4158   -1.7844   -1.0743 H   0  0  0  0  0  0  0  0  0  0  0  0
    2.2711   -4.2087   -0.7289 H   0  0  0  0  0  0  0  0  0  0  0  0
   -4.4305   -3.9149    0.8478 H   0  0  0  0  0  0  0  0  0  0  0  0
   -5.1977   -2.4166    2.6094 H   0  0  0  0  0  0  0  0  0  0  0  0
   -6.4058   -2.9746    5.3517 H   0  0  0  0  0  0  0  0  0  0  0  0
   -8.1345   -3.1132    4.8401 H   0  0  0  0  0  0  0  0  0  0  0  0
   -7.0992   -1.8160    4.1485 H   0  0  0  0  0  0  0  0  0  0  0  0
   -8.0034   -5.4021    3.9463 H   0  0  0  0  0  0  0  0  0  0  0  0
   -7.1964   -6.9403    2.2195 H   0  0  0  0  0  0  0  0  0  0  0  0
   -7.7417   -6.4997   -0.6005 H   0  0  0  0  0  0  0  0  0  0  0  0
   -8.9763   -8.4651   -1.4300 H   0  0  0  0  0  0  0  0  0  0  0  0
   -8.6642  -11.5349   -0.7087 H   0  0  0  0  0  0  0  0  0  0  0  0
   -8.8397  -10.7685   -2.3304 H   0  0  0  0  0  0  0  0  0  0  0  0
   -7.4132  -11.8045   -1.9802 H   0  0  0  0  0  0  0  0  0  0  0  0
   -5.5893  -10.9738   -0.5002 H   0  0  0  0  0  0  0  0  0  0  0  0
   -4.3676   -9.0142    0.3249 H   0  0  0  0  0  0  0  0  0  0  0  0
   -5.3810   -6.8663   -5.6828 H   0  0  0  0  0  0  0  0  0  0  0  0
   -4.9897   -9.1491   -6.5026 H   0  0  0  0  0  0  0  0  0  0  0  0
   -3.2235  -10.5538   -5.4997 H   0  0  0  0  0  0  0  0  0  0  0  0
   -1.2255  -10.7289   -4.1288 H   0  0  0  0  0  0  0  0  0  0  0  0
   -0.6039   -9.2876   -3.2696 H   0  0  0  0  0  0  0  0  0  0  0  0
   -2.8884  -11.1418   -2.3234 H   0  0  0  0  0  0  0  0  0  0  0  0
   -1.2184  -11.0280   -1.6408 H   0  0  0  0  0  0  0  0  0  0  0  0
   -2.3561   -9.6430   -1.4605 H   0  0  0  0  0  0  0  0  0  0  0  0
   -2.1536   -7.3609   -2.8713 H   0  0  0  0  0  0  0  0  0  0  0  0
    1.2953    7.2503   -5.1950 H   0  0  0  0  0  0  0  0  0  0  0  0
    3.4336    8.0269   -6.1647 H   0  0  0  0  0  0  0  0  0  0  0  0
    5.4033    6.5463   -6.1839 H   0  0  0  0  0  0  0  0  0  0  0  0
    6.3206    4.2905   -5.9964 H   0  0  0  0  0  0  0  0  0  0  0  0
    5.2979    2.9379   -5.4108 H   0  0  0  0  0  0  0  0  0  0  0  0
    5.5585    3.7464   -3.0409 H   0  0  0  0  0  0  0  0  0  0  0  0
    7.1544    3.4187   -3.8155 H   0  0  0  0  0  0  0  0  0  0  0  0
    6.5731    5.1184   -3.6267 H   0  0  0  0  0  0  0  0  0  0  0  0
    3.0913    3.4480   -4.2817 H   0  0  0  0  0  0  0  0  0  0  0  0
   -5.4044   -0.5015   -2.1298 H   0  0  0  0  0  0  0  0  0  0  0  0
   -5.5242    0.8445   -3.3657 H   0  0  0  0  0  0  0  0  0  0  0  0
   -7.1388   -0.7461   -4.6614 H   0  0  0  0  0  0  0  0  0  0  0  0
   -7.7437    0.1094   -3.1897 H   0  0  0  0  0  0  0  0  0  0  0  0
   -7.2759   -1.6274   -3.0750 H   0  0  0  0  0  0  0  0  0  0  0  0
   -2.5195    2.1573   -1.7330 H   0  0  0  0  0  0  0  0  0  0  0  0
   -3.8349    1.0950   -2.0339 H   0  0  0  0  0  0  0  0  0  0  0  0
   -1.9625   -0.1181   -0.9730 H   0  0  0  0  0  0  0  0  0  0  0  0
   -2.1819   -0.7676   -2.6424 H   0  0  0  0  0  0  0  0  0  0  0  0
   -0.8434    0.4017   -2.3076 H   0  0  0  0  0  0  0  0  0  0  0  0
   -2.6930    5.6535    0.5741 H   0  0  0  0  0  0  0  0  0  0  0  0
   -3.8997    3.7766    1.6098 H   0  0  0  0  0  0  0  0  0  0  0  0
   -2.9636    1.7488    3.8777 H   0  0  0  0  0  0  0  0  0  0  0  0
   -3.8367    1.4113    2.3271 H   0  0  0  0  0  0  0  0  0  0  0  0
   -2.2689    0.6046    2.6609 H   0  0  0  0  0  0  0  0  0  0  0  0
   -0.1440    1.8988    2.5863 H   0  0  0  0  0  0  0  0  0  0  0  0
    1.0587    3.7455    1.5344 H   0  0  0  0  0  0  0  0  0  0  0  0
   -1.1385    7.0240    2.6164 H   0  0  0  0  0  0  0  0  0  0  0  0
   -1.6471    9.3919    3.0350 H   0  0  0  0  0  0  0  0  0  0  0  0
   -2.1958   11.6462    1.9433 H   0  0  0  0  0  0  0  0  0  0  0  0
   -0.4036   11.8919    1.9399 H   0  0  0  0  0  0  0  0  0  0  0  0
   -1.3558   12.0982    0.4179 H   0  0  0  0  0  0  0  0  0  0  0  0
   -0.3306   10.3780   -0.9504 H   0  0  0  0  0  0  0  0  0  0  0  0
    0.1208    8.0130   -1.3883 H   0  0  0  0  0  0  0  0  0  0  0  0
    8.2184    8.3996    0.1095 H   0  0  0  0  0  0  0  0  0  0  0  0
   10.3955    7.2584    0.1514 H   0  0  0  0  0  0  0  0  0  0  0  0
   10.7846    3.5477    0.1390 H   0  0  0  0  0  0  0  0  0  0  0  0
   11.5783    5.1109    0.5331 H   0  0  0  0  0  0  0  0  0  0  0  0
   11.3596    4.6228   -1.1960 H   0  0  0  0  0  0  0  0  0  0  0  0
    8.4479    3.5020   -0.6573 H   0  0  0  0  0  0  0  0  0  0  0  0
    6.2762    4.6386   -0.7267 H   0  0  0  0  0  0  0  0  0  0  0  0
    4.2540    9.2423    0.7427 H   0  0  0  0  0  0  0  0  0  0  0  0
    3.8612   11.4589   -0.2271 H   0  0  0  0  0  0  0  0  0  0  0  0
    4.1511   12.4503   -3.2597 H   0  0  0  0  0  0  0  0  0  0  0  0
    4.6141   13.2400   -1.7026 H   0  0  0  0  0  0  0  0  0  0  0  0
    5.8673   12.9275   -2.9568 H   0  0  0  0  0  0  0  0  0  0  0  0
    6.5432   10.5385   -3.4655 H   0  0  0  0  0  0  0  0  0  0  0  0
    6.9017    8.2927   -2.5334 H   0  0  0  0  0  0  0  0  0  0  0  0
    6.6810    6.1026    2.1604 H   0  0  0  0  0  0  0  0  0  0  0  0
    7.3465    2.0479    5.5020 H   0  0  0  0  0  0  0  0  0  0  0  0
    5.8085    0.7567    6.9581 H   0  0  0  0  0  0  0  0  0  0  0  0
    3.5243    1.6063    7.4204 H   0  0  0  0  0  0  0  0  0  0  0  0
    2.7810    3.7819    6.4914 H   0  0  0  0  0  0  0  0  0  0  0  0
  1  2  2  3
  2  3  1  0
  3  4  2  0
  3  5  1  0
  5  6  2  0
  6  7  1  0
  7  8  2  0
  8  9  1  0
  9 10  2  0
 10 11  1  0
 11 12  2  3
 12 13  1  0
 13 14  3  0
 12 15  1  0
 15 16  3  0
  1 17  1  0
 17 18  2  0
 18 19  1  0
 19 20  1  0
 20 21  2  0
 21 22  1  0
 22 23  2  0
 23 24  1  0
 23 25  1  0
 25 26  2  0
 19 27  1  0
 27 28  2  0
 28 29  1  0
 29 30  2  0
 30 31  1  0
 30 32  1  0
 32 33  2  0
 18 34  1  0
 34 35  1  0
 35 36  1  0
 36 37  2  0
 37 38  1  0
 38 39  1  0
 39 40  2  0
 40 41  1  0
 41 42  2  0
 42 43  1  0
 42 44  1  0
 44 45  2  0
 38 46  1  0
 46 47  2  0
 47 48  1  0
 48 49  2  0
 49 50  1  0
 49 51  1  0
 51 52  2  0
 37 53  1  0
 53 54  1  0
 36 55  1  0
 55 56  2  0
 56 57  1  0
 57 58  2  0
 58 59  1  0
 59 60  2  0
 60 61  1  0
 61 62  1  0
 62 63  1  0
 61 64  2  0
 56 65  1  0
 65 66  1  0
 66 67  1  0
 67 68  1  0
 68 69  1  0
 69 70  1  0
 70 71  2  0
 71 72  1  0
 72 73  1  0
 70 74  1  0
 74 75  1  0
 75 76  1  0
 76 77  1  0
 77 78  1  0
 78 79  1  0
 79 80  2  0
 80 81  1  0
 81 82  2  0
 82 83  1  0
 83 84  1  0
 84 85  1  0
 83 86  2  0
 78 87  2  0
 87 88  1  0
 88 89  1  0
 89 90  1  0
 90 91  1  0
 91 92  1  0
 92 93  1  0
 93 94  1  0
 94 95  1  0
 95 96  1  0
 96 97  1  0
 94 98  1  0
 98 99  1  0
 91100  1  0
100101  1  0
 87102  1  0
102103  2  0
103104  1  0
104105  1  0
105106  2  0
106107  1  0
107108  2  0
108109  1  0
108110  1  0
110111  2  0
104112  1  0
112113  2  0
113114  1  0
114115  2  0
115116  1  0
115117  1  0
117118  2  0
103119  1  0
119120  1  0
120121  1  0
121122  2  0
122123  1  0
123124  1  0
124125  2  0
125126  1  0
126127  2  0
127128  1  0
127129  1  0
129130  2  0
123131  1  0
131132  2  0
132133  1  0
133134  2  0
134135  1  0
134136  1  0
136137  2  0
122138  1  0
138139  1  0
121140  1  0
140141  2  3
141142  1  0
142143  2  0
142144  1  0
144145  2  0
145146  1  0
146147  2  0
147148  1  0
148149  2  0
149150  1  0
150151  2  3
151152  1  0
152153  3  0
151154  1  0
154155  3  0
 11  2  1  0
 54 17  1  0
 97 55  1  0
139102  1  0
150141  1  0
 10  5  1  0
 26 20  1  0
 33 27  1  0
 53 34  2  0
 64 57  1  0
 96 65  2  0
111105  1  0
118112  1  0
138119  2  0
149144  1  0
 45 39  1  0
 52 46  1  0
 95 67  2  0
130124  1  0
137131  1  0
 93 68  2  0
 73 69  2  0
 92 74  2  0
 90 75  2  0
 89 77  2  0
 86 79  1  0
  1156  1  0
  6157  1  0
  7158  1  0
  8159  1  0
  9160  1  0
 21161  1  0
 22162  1  0
 24163  1  0
 24164  1  0
 24165  1  0
 25166  1  0
 26167  1  0
 28168  1  0
 29169  1  0
 31170  1  0
 31171  1  0
 31172  1  0
 32173  1  0
 33174  1  0
 40175  1  0
 41176  1  0
 43177  1  0
 43178  1  0
 43179  1  0
 44180  1  0
 45181  1  0
 47182  1  0
 48183  1  0
 50184  1  0
 50185  1  0
 50186  1  0
 51187  1  0
 52188  1  0
 58189  1  0
 59190  1  0
 60191  1  0
 62192  1  0
 62193  1  0
 63194  1  0
 63195  1  0
 63196  1  0
 64197  1  0
 80198  1  0
 81199  1  0
 82200  1  0
 84201  1  0
 84202  1  0
 85203  1  0
 85204  1  0
 85205  1  0
 86206  1  0
 98207  1  0
 98208  1  0
 99209  1  0
 99210  1  0
 99211  1  0
100212  1  0
100213  1  0
101214  1  0
101215  1  0
101216  1  0
106217  1  0
107218  1  0
109219  1  0
109220  1  0
109221  1  0
110222  1  0
111223  1  0
113224  1  0
114225  1  0
116226  1  0
116227  1  0
116228  1  0
117229  1  0
118230  1  0
125231  1  0
126232  1  0
128233  1  0
128234  1  0
128235  1  0
129236  1  0
130237  1  0
132238  1  0
133239  1  0
135240  1  0
135241  1  0
135242  1  0
136243  1  0
137244  1  0
140245  1  0
145246  1  0
146247  1  0
147248  1  0
148249  1  0
M  END

