
     RDKit          3D

209229  0  0  0  0  0  0  0  0999 V2000
    1.0502   -9.3268   -6.3528 C   0  0  0  0  0  0  0  0  0  0  0  0
   -0.3502   -9.0715   -5.7772 C   0  0  0  0  0  0  0  0  0  0  0  0
   -0.3888   -9.3598   -4.2736 C   0  0  0  0  0  0  0  0  0  0  0  0
   -0.8421   -7.6723   -6.1085 C   0  0  0  0  0  0  0  0  0  0  0  0
   -1.9807   -7.7409   -6.8004 C   0  0  0  0  0  0  0  0  0  0  0  0
   -2.7291   -6.6075   -7.2864 C   0  0  0  0  0  0  0  0  0  0  0  0
   -3.3231   -5.6949   -7.6792 N   0  0  0  0  0  0  0  0  0  0  0  0
   -2.3126   -9.1529   -6.9871 C   0  0  0  0  0  0  0  0  0  0  0  0
   -3.3812   -9.7003   -7.5846 C   0  0  0  0  0  0  0  0  0  0  0  0
   -3.5224  -11.1322   -7.6176 C   0  0  0  0  0  0  0  0  0  0  0  0
   -3.6292  -12.2873   -7.6252 N   0  0  0  0  0  0  0  0  0  0  0  0
   -4.4077   -8.9036   -8.2075 C   0  0  0  0  0  0  0  0  0  0  0  0
   -5.2334   -8.2656   -8.7082 N   0  0  0  0  0  0  0  0  0  0  0  0
   -1.2974   -9.9104   -6.4242 O   0  0  0  0  0  0  0  0  0  0  0  0
   -0.0365   -6.4408   -5.9501 C   0  0  0  0  0  0  0  0  0  0  0  0
    0.4720   -5.9243   -4.7461 C   0  0  0  0  0  0  0  0  0  0  0  0
   -0.1101   -6.1951   -3.4531 N   0  0  0  0  0  0  0  0  0  0  0  0
    0.7470   -6.2527   -2.2896 C   0  0  0  0  0  0  0  0  0  0  0  0
    0.3626   -5.6383   -1.0804 C   0  0  0  0  0  0  0  0  0  0  0  0
    1.2184   -5.6478    0.0251 C   0  0  0  0  0  0  0  0  0  0  0  0
    2.4775   -6.2592   -0.0585 C   0  0  0  0  0  0  0  0  0  0  0  0
    3.3796   -6.2701    1.1389 C   0  0  0  0  0  0  0  0  0  0  0  0
    2.8712   -6.8628   -1.2621 C   0  0  0  0  0  0  0  0  0  0  0  0
    2.0150   -6.8574   -2.3673 C   0  0  0  0  0  0  0  0  0  0  0  0
   -1.5432   -6.0496   -3.2990 C   0  0  0  0  0  0  0  0  0  0  0  0
   -2.2361   -5.0264   -3.9749 C   0  0  0  0  0  0  0  0  0  0  0  0
   -3.6134   -4.8670   -3.8031 C   0  0  0  0  0  0  0  0  0  0  0  0
   -4.3194   -5.7151   -2.9418 C   0  0  0  0  0  0  0  0  0  0  0  0
   -5.8032   -5.5564   -2.7678 C   0  0  0  0  0  0  0  0  0  0  0  0
   -3.6379   -6.7450   -2.2757 C   0  0  0  0  0  0  0  0  0  0  0  0
   -2.2594   -6.9070   -2.4482 C   0  0  0  0  0  0  0  0  0  0  0  0
    1.1947   -4.7547   -4.9803 C   0  0  0  0  0  0  0  0  0  0  0  0
    1.6318   -3.5315   -3.9395 S   0  0  0  0  0  0  0  0  0  0  0  0
    1.8077   -2.3503   -5.1457 C   0  0  0  0  0  0  0  0  0  0  0  0
    1.4798   -2.9169   -6.4006 C   0  0  0  0  0  0  0  0  0  0  0  0
    1.1858   -2.1740   -7.6076 N   0  0  0  0  0  0  0  0  0  0  0  0
    0.5064   -0.9049   -7.5382 C   0  0  0  0  0  0  0  0  0  0  0  0
    0.9995    0.2024   -8.2501 C   0  0  0  0  0  0  0  0  0  0  0  0
    0.4471    1.4698   -8.0557 C   0  0  0  0  0  0  0  0  0  0  0  0
   -0.6209    1.6440   -7.1603 C   0  0  0  0  0  0  0  0  0  0  0  0
   -1.1692    3.0189   -6.9048 C   0  0  0  0  0  0  0  0  0  0  0  0
   -1.1788    0.5271   -6.5263 C   0  0  0  0  0  0  0  0  0  0  0  0
   -0.6198   -0.7422   -6.7142 C   0  0  0  0  0  0  0  0  0  0  0  0
    1.5223   -2.7347   -8.8925 C   0  0  0  0  0  0  0  0  0  0  0  0
    2.7546   -3.3765   -9.0905 C   0  0  0  0  0  0  0  0  0  0  0  0
    3.0552   -3.9571  -10.3274 C   0  0  0  0  0  0  0  0  0  0  0  0
    2.1290   -3.9107  -11.3799 C   0  0  0  0  0  0  0  0  0  0  0  0
    2.4500   -4.5280  -12.7105 C   0  0  0  0  0  0  0  0  0  0  0  0
    0.9112   -3.2429  -11.1947 C   0  0  0  0  0  0  0  0  0  0  0  0
    0.6081   -2.6621   -9.9604 C   0  0  0  0  0  0  0  0  0  0  0  0
    1.1800   -4.2813   -6.2586 C   0  0  0  0  0  0  0  0  0  0  0  0
    0.3332   -5.3644   -7.2211 S   0  0  0  0  0  0  0  0  0  0  0  0
    1.7984   -0.9332   -4.7681 C   0  0  0  0  0  0  0  0  0  0  0  0
    2.5784    0.1388   -5.2674 C   0  0  0  0  0  0  0  0  0  0  0  0
    3.7453   -0.0020   -6.1721 C   0  0  0  0  0  0  0  0  0  0  0  0
    4.6205   -1.0904   -6.0409 C   0  0  0  0  0  0  0  0  0  0  0  0
    5.7491   -1.1961   -6.8586 C   0  0  0  0  0  0  0  0  0  0  0  0
    6.0184   -0.2126   -7.8097 C   0  0  0  0  0  0  0  0  0  0  0  0
    5.1683    0.8921   -7.9437 C   0  0  0  0  0  0  0  0  0  0  0  0
    5.4539    1.9466   -8.9783 C   0  0  0  0  0  0  0  0  0  0  0  0
    4.8319    1.5670  -10.3176 C   0  0  0  0  0  0  0  0  0  0  0  0
    4.0312    0.9932   -7.1252 C   0  0  0  0  0  0  0  0  0  0  0  0
    2.2146    1.3355   -4.6234 C   0  0  0  0  0  0  0  0  0  0  0  0
    2.8946    2.9123   -4.5350 S   0  0  0  0  0  0  0  0  0  0  0  0
    1.9080    3.3110   -3.2046 C   0  0  0  0  0  0  0  0  0  0  0  0
    1.7397    4.2789   -2.2463 C   0  0  0  0  0  0  0  0  0  0  0  0
    2.1398    5.6188   -2.1478 C   0  0  0  0  0  0  0  0  0  0  0  0
    1.6874    6.3898   -1.0224 C   0  0  0  0  0  0  0  0  0  0  0  0
    2.0932    7.6836   -0.9642 N   0  0  0  0  0  0  0  0  0  0  0  0
    2.9475    7.7701   -2.3802 S   0  0  0  0  0  0  0  0  0  0  0  0
    2.8774    6.2661   -3.0799 N   0  0  0  0  0  0  0  0  0  0  0  0
    0.9320    5.7484   -0.0250 C   0  0  0  0  0  0  0  0  0  0  0  0
    0.5252    6.1277    1.2299 C   0  0  0  0  0  0  0  0  0  0  0  0
    0.4283    7.4958    2.2379 S   0  0  0  0  0  0  0  0  0  0  0  0
   -0.0946    6.5311    3.5551 C   0  0  0  0  0  0  0  0  0  0  0  0
   -0.5317    6.7981    4.8610 C   0  0  0  0  0  0  0  0  0  0  0  0
   -0.7108    8.1750    5.3579 C   0  0  0  0  0  0  0  0  0  0  0  0
    0.3833    9.0506    5.4138 C   0  0  0  0  0  0  0  0  0  0  0  0
    0.2016   10.3753    5.8229 C   0  0  0  0  0  0  0  0  0  0  0  0
   -1.0663   10.8332    6.1881 C   0  0  0  0  0  0  0  0  0  0  0  0
   -2.1712    9.9688    6.1333 C   0  0  0  0  0  0  0  0  0  0  0  0
   -3.5462   10.4673    6.4923 C   0  0  0  0  0  0  0  0  0  0  0  0
   -4.3108   10.8856    5.2406 C   0  0  0  0  0  0  0  0  0  0  0  0
   -1.9890    8.6452    5.6970 C   0  0  0  0  0  0  0  0  0  0  0  0
   -0.8678    5.5953    5.5555 C   0  0  0  0  0  0  0  0  0  0  0  0
   -0.6103    4.2843    4.4928 S   0  0  0  0  0  0  0  0  0  0  0  0
   -0.1298    5.2139    3.2036 C   0  0  0  0  0  0  0  0  0  0  0  0
    0.1742    4.9940    1.8789 C   0  0  0  0  0  0  0  0  0  0  0  0
    0.2811    3.8773    1.1283 N   0  0  0  0  0  0  0  0  0  0  0  0
    0.6513    4.3769   -0.0893 C   0  0  0  0  0  0  0  0  0  0  0  0
    0.9290    3.6815   -1.2741 C   0  0  0  0  0  0  0  0  0  0  0  0
    0.4673    2.4621   -1.6771 N   0  0  0  0  0  0  0  0  0  0  0  0
    1.1150    2.2757   -2.8438 C   0  0  0  0  0  0  0  0  0  0  0  0
    1.2602    1.1780   -3.6543 C   0  0  0  0  0  0  0  0  0  0  0  0
    0.7751   -0.3970   -3.5201 S   0  0  0  0  0  0  0  0  0  0  0  0
   -0.7842    1.7923   -1.2853 C   0  0  0  0  0  0  0  0  0  0  0  0
   -1.8644    1.9790   -2.3509 C   0  0  0  0  0  0  0  0  0  0  0  0
    0.6029    2.5487    1.6742 C   0  0  0  0  0  0  0  0  0  0  0  0
    2.0245    2.5255    2.2339 C   0  0  0  0  0  0  0  0  0  0  0  0
   -1.2461    5.4402    6.9985 C   0  0  0  0  0  0  0  0  0  0  0  0
   -1.2859    6.7084    8.1122 S   0  0  0  0  0  0  0  0  0  0  0  0
   -1.4877    5.8028    9.5038 C   0  0  0  0  0  0  0  0  0  0  0  0
   -1.4643    4.4583    9.1445 C   0  0  0  0  0  0  0  0  0  0  0  0
   -1.3321    3.3229   10.0883 C   0  0  0  0  0  0  0  0  0  0  0  0
   -1.3170    3.5171   11.3286 O   0  0  0  0  0  0  0  0  0  0  0  0
   -1.1505    1.9604    9.5307 C   0  0  0  0  0  0  0  0  0  0  0  0
   -0.8485    0.7998   10.2524 C   0  0  0  0  0  0  0  0  0  0  0  0
   -0.6167    0.6578   11.7289 C   0  0  0  0  0  0  0  0  0  0  0  0
    0.7758    1.1501   12.1137 C   0  0  0  0  0  0  0  0  0  0  0  0
   -0.7054   -0.4664    9.1528 S   0  0  0  0  0  0  0  0  0  0  0  0
   -1.0274    0.4192    7.7534 C   0  0  0  0  0  0  0  0  0  0  0  0
   -1.0585   -0.1131    6.3445 C   0  0  0  0  0  0  0  0  0  0  0  0
   -0.5619   -1.5534    6.2260 C   0  0  0  0  0  0  0  0  0  0  0  0
   -1.2520    1.7468    8.1429 C   0  0  0  0  0  0  0  0  0  0  0  0
   -1.5851    2.8649    7.2361 C   0  0  0  0  0  0  0  0  0  0  0  0
   -2.1723    2.6358    6.1460 O   0  0  0  0  0  0  0  0  0  0  0  0
   -1.4193    4.2506    7.7457 C   0  0  0  0  0  0  0  0  0  0  0  0
   -1.6685    6.3826   10.8462 C   0  0  0  0  0  0  0  0  0  0  0  0
   -0.6976    6.9710   11.5331 C   0  0  0  0  0  0  0  0  0  0  0  0
    0.6964    6.9644   11.1588 C   0  0  0  0  0  0  0  0  0  0  0  0
    1.8169    6.9463   10.8586 N   0  0  0  0  0  0  0  0  0  0  0  0
   -1.2986    7.6239   12.6928 C   0  0  0  0  0  0  0  0  0  0  0  0
   -0.7037    8.3553   13.6468 C   0  0  0  0  0  0  0  0  0  0  0  0
    0.7069    8.6536   13.6243 C   0  0  0  0  0  0  0  0  0  0  0  0
    1.8346    8.9102   13.5851 N   0  0  0  0  0  0  0  0  0  0  0  0
   -1.4703    8.8764   14.7514 C   0  0  0  0  0  0  0  0  0  0  0  0
   -2.0655    9.2850   15.6532 N   0  0  0  0  0  0  0  0  0  0  0  0
   -2.6669    7.3982   12.6591 O   0  0  0  0  0  0  0  0  0  0  0  0
   -3.0141    6.6290   11.5096 C   0  0  0  0  0  0  0  0  0  0  0  0
   -3.9412    7.4404   10.6019 C   0  0  0  0  0  0  0  0  0  0  0  0
   -3.6809    5.3190   11.9477 C   0  0  0  0  0  0  0  0  0  0  0  0
    1.8043   -8.7071   -5.8295 H   0  0  0  0  0  0  0  0  0  0  0  0
    1.3161  -10.3965   -6.2392 H   0  0  0  0  0  0  0  0  0  0  0  0
    1.0746   -9.0728   -7.4339 H   0  0  0  0  0  0  0  0  0  0  0  0
    0.3445   -8.7408   -3.7264 H   0  0  0  0  0  0  0  0  0  0  0  0
   -0.1498  -10.4268   -4.0903 H   0  0  0  0  0  0  0  0  0  0  0  0
   -1.4109   -9.1633   -3.8823 H   0  0  0  0  0  0  0  0  0  0  0  0
   -0.5864   -5.1265   -0.9911 H   0  0  0  0  0  0  0  0  0  0  0  0
    0.9061   -5.1699    0.9435 H   0  0  0  0  0  0  0  0  0  0  0  0
    3.4318   -5.2519    1.5813 H   0  0  0  0  0  0  0  0  0  0  0  0
    2.9819   -6.9737    1.9007 H   0  0  0  0  0  0  0  0  0  0  0  0
    4.4109   -6.5835    0.8677 H   0  0  0  0  0  0  0  0  0  0  0  0
    3.8461   -7.3282   -1.3474 H   0  0  0  0  0  0  0  0  0  0  0  0
    2.3481   -7.3143   -3.2906 H   0  0  0  0  0  0  0  0  0  0  0  0
   -1.7099   -4.3354   -4.6208 H   0  0  0  0  0  0  0  0  0  0  0  0
   -4.1222   -4.0709   -4.3351 H   0  0  0  0  0  0  0  0  0  0  0  0
   -6.0890   -5.7376   -1.7108 H   0  0  0  0  0  0  0  0  0  0  0  0
   -6.3323   -6.2824   -3.4196 H   0  0  0  0  0  0  0  0  0  0  0  0
   -6.1258   -4.5285   -3.0368 H   0  0  0  0  0  0  0  0  0  0  0  0
   -4.1729   -7.4190   -1.6183 H   0  0  0  0  0  0  0  0  0  0  0  0
   -1.7441   -7.6936   -1.9106 H   0  0  0  0  0  0  0  0  0  0  0  0
    1.8493    0.0900   -8.9102 H   0  0  0  0  0  0  0  0  0  0  0  0
    0.8749    2.3215   -8.5713 H   0  0  0  0  0  0  0  0  0  0  0  0
   -0.3393    3.7541   -6.8552 H   0  0  0  0  0  0  0  0  0  0  0  0
   -1.7142    3.0545   -5.9370 H   0  0  0  0  0  0  0  0  0  0  0  0
   -1.8621    3.3022   -7.7221 H   0  0  0  0  0  0  0  0  0  0  0  0
   -2.0239    0.6393   -5.8582 H   0  0  0  0  0  0  0  0  0  0  0  0
   -1.0371   -1.5894   -6.1867 H   0  0  0  0  0  0  0  0  0  0  0  0
    3.4828   -3.4315   -8.2877 H   0  0  0  0  0  0  0  0  0  0  0  0
    4.0086   -4.4501  -10.4606 H   0  0  0  0  0  0  0  0  0  0  0  0
    2.7885   -3.7406  -13.4162 H   0  0  0  0  0  0  0  0  0  0  0  0
    3.2471   -5.2951  -12.6138 H   0  0  0  0  0  0  0  0  0  0  0  0
    1.5502   -5.0242  -13.1322 H   0  0  0  0  0  0  0  0  0  0  0  0
    0.1924   -3.1813  -12.0030 H   0  0  0  0  0  0  0  0  0  0  0  0
   -0.3504   -2.1741   -9.8301 H   0  0  0  0  0  0  0  0  0  0  0  0
    4.4570   -1.8494   -5.2849 H   0  0  0  0  0  0  0  0  0  0  0  0
    6.4246   -2.0308   -6.7432 H   0  0  0  0  0  0  0  0  0  0  0  0
    6.8958   -0.3090   -8.4396 H   0  0  0  0  0  0  0  0  0  0  0  0
    6.5528    2.0646   -9.1060 H   0  0  0  0  0  0  0  0  0  0  0  0
    5.0480    2.9271   -8.6463 H   0  0  0  0  0  0  0  0  0  0  0  0
    5.0387    2.3627  -11.0631 H   0  0  0  0  0  0  0  0  0  0  0  0
    5.2673    0.6140  -10.6853 H   0  0  0  0  0  0  0  0  0  0  0  0
    3.7327    1.4521  -10.2127 H   0  0  0  0  0  0  0  0  0  0  0  0
    3.3622    1.8344   -7.2437 H   0  0  0  0  0  0  0  0  0  0  0  0
    1.3733    8.7140    5.1325 H   0  0  0  0  0  0  0  0  0  0  0  0
    1.0490   11.0469    5.8581 H   0  0  0  0  0  0  0  0  0  0  0  0
   -1.1907   11.8612    6.5042 H   0  0  0  0  0  0  0  0  0  0  0  0
   -3.4689   11.3430    7.1782 H   0  0  0  0  0  0  0  0  0  0  0  0
   -4.1067    9.6679    7.0275 H   0  0  0  0  0  0  0  0  0  0  0  0
   -4.5029   10.0037    4.5932 H   0  0  0  0  0  0  0  0  0  0  0  0
   -5.2894   11.3242    5.5356 H   0  0  0  0  0  0  0  0  0  0  0  0
   -3.7344   11.6439    4.6669 H   0  0  0  0  0  0  0  0  0  0  0  0
   -2.8406    7.9833    5.6195 H   0  0  0  0  0  0  0  0  0  0  0  0
   -0.5948    0.7085   -1.1247 H   0  0  0  0  0  0  0  0  0  0  0  0
   -1.1927    2.2231   -0.3484 H   0  0  0  0  0  0  0  0  0  0  0  0
   -1.5699    1.4893   -3.3033 H   0  0  0  0  0  0  0  0  0  0  0  0
   -2.0290    3.0619   -2.5393 H   0  0  0  0  0  0  0  0  0  0  0  0
   -2.8188    1.5257   -2.0035 H   0  0  0  0  0  0  0  0  0  0  0  0
   -0.1164    2.2755    2.4691 H   0  0  0  0  0  0  0  0  0  0  0  0
    0.5546    1.7646    0.9007 H   0  0  0  0  0  0  0  0  0  0  0  0
    2.1264    3.2171    3.0961 H   0  0  0  0  0  0  0  0  0  0  0  0
    2.7529    2.8232    1.4484 H   0  0  0  0  0  0  0  0  0  0  0  0
    2.2691    1.4943    2.5717 H   0  0  0  0  0  0  0  0  0  0  0  0
   -0.7145   -0.4101   12.0123 H   0  0  0  0  0  0  0  0  0  0  0  0
   -1.3911    1.2180   12.2929 H   0  0  0  0  0  0  0  0  0  0  0  0
    1.5486    0.5843   11.5474 H   0  0  0  0  0  0  0  0  0  0  0  0
    0.8864    2.2343   11.8995 H   0  0  0  0  0  0  0  0  0  0  0  0
    0.9383    0.9826   13.1989 H   0  0  0  0  0  0  0  0  0  0  0  0
   -2.1032   -0.0627    5.9663 H   0  0  0  0  0  0  0  0  0  0  0  0
   -0.4189    0.5311    5.7008 H   0  0  0  0  0  0  0  0  0  0  0  0
    0.4893   -1.6361    6.5839 H   0  0  0  0  0  0  0  0  0  0  0  0
   -1.2101   -2.2396    6.8151 H   0  0  0  0  0  0  0  0  0  0  0  0
   -0.5940   -1.8684    5.1612 H   0  0  0  0  0  0  0  0  0  0  0  0
   -3.4692    8.4144   10.3319 H   0  0  0  0  0  0  0  0  0  0  0  0
   -4.1567    6.8707    9.6679 H   0  0  0  0  0  0  0  0  0  0  0  0
   -4.9083    7.6399   11.1148 H   0  0  0  0  0  0  0  0  0  0  0  0
   -3.0426    4.7984   12.6914 H   0  0  0  0  0  0  0  0  0  0  0  0
   -3.8517    4.6557   11.0735 H   0  0  0  0  0  0  0  0  0  0  0  0
   -4.6592    5.5209   12.4326 H   0  0  0  0  0  0  0  0  0  0  0  0
  1  2  1  0
  2  3  1  0
  2  4  1  0
  4  5  2  0
  5  6  1  0
  6  7  3  0
  5  8  1  0
  8  9  2  3
  9 10  1  0
 10 11  3  0
  9 12  1  0
 12 13  3  0
  8 14  1  0
  4 15  1  0
 15 16  2  0
 16 17  1  0
 17 18  1  0
 18 19  2  0
 19 20  1  0
 20 21  2  0
 21 22  1  0
 21 23  1  0
 23 24  2  0
 17 25  1  0
 25 26  2  0
 26 27  1  0
 27 28  2  0
 28 29  1  0
 28 30  1  0
 30 31  2  0
 16 32  1  0
 32 33  1  0
 33 34  1  0
 34 35  2  0
 35 36  1  0
 36 37  1  0
 37 38  2  0
 38 39  1  0
 39 40  2  0
 40 41  1  0
 40 42  1  0
 42 43  2  0
 36 44  1  0
 44 45  2  0
 45 46  1  0
 46 47  2  0
 47 48  1  0
 47 49  1  0
 49 50  2  0
 35 51  1  0
 51 52  1  0
 34 53  1  0
 53 54  2  0
 54 55  1  0
 55 56  2  0
 56 57  1  0
 57 58  2  0
 58 59  1  0
 59 60  1  0
 60 61  1  0
 59 62  2  0
 54 63  1  0
 63 64  1  0
 64 65  1  0
 65 66  1  0
 66 67  1  0
 67 68  1  0
 68 69  2  0
 69 70  1  0
 70 71  1  0
 68 72  1  0
 72 73  1  0
 73 74  1  0
 74 75  1  0
 75 76  1  0
 76 77  1  0
 77 78  2  0
 78 79  1  0
 79 80  2  0
 80 81  1  0
 81 82  1  0
 82 83  1  0
 81 84  2  0
 76 85  2  0
 85 86  1  0
 86 87  1  0
 87 88  1  0
 88 89  1  0
 89 90  1  0
 90 91  1  0
 91 92  1  0
 92 93  1  0
 93 94  1  0
 94 95  1  0
 92 96  1  0
 96 97  1  0
 89 98  1  0
 98 99  1  0
 85100  1  0
100101  1  0
101102  1  0
102103  2  0
103104  1  0
104105  2  0
104106  1  0
106107  2  0
107108  1  0
108109  1  0
107110  1  0
110111  1  0
111112  1  0
112113  1  0
111114  2  0
114115  1  0
115116  2  0
115117  1  0
102118  1  0
118119  2  0
119120  1  0
120121  3  0
119122  1  0
122123  2  3
123124  1  0
124125  3  0
123126  1  0
126127  3  0
122128  1  0
128129  1  0
129130  1  0
129131  1  0
 14  2  1  0
 52 15  1  0
 95 53  1  0
117100  2  0
129118  1  0
 24 18  1  0
 31 25  1  0
 51 32  2  0
 62 55  1  0
 94 63  2  0
117103  1  0
 43 37  1  0
 50 44  1  0
 93 65  2  0
114106  1  0
 91 66  2  0
 71 67  2  0
 90 72  2  0
 88 73  2  0
 87 75  2  0
 84 77  1  0
  1132  1  0
  1133  1  0
  1134  1  0
  3135  1  0
  3136  1  0
  3137  1  0
 19138  1  0
 20139  1  0
 22140  1  0
 22141  1  0
 22142  1  0
 23143  1  0
 24144  1  0
 26145  1  0
 27146  1  0
 29147  1  0
 29148  1  0
 29149  1  0
 30150  1  0
 31151  1  0
 38152  1  0
 39153  1  0
 41154  1  0
 41155  1  0
 41156  1  0
 42157  1  0
 43158  1  0
 45159  1  0
 46160  1  0
 48161  1  0
 48162  1  0
 48163  1  0
 49164  1  0
 50165  1  0
 56166  1  0
 57167  1  0
 58168  1  0
 60169  1  0
 60170  1  0
 61171  1  0
 61172  1  0
 61173  1  0
 62174  1  0
 78175  1  0
 79176  1  0
 80177  1  0
 82178  1  0
 82179  1  0
 83180  1  0
 83181  1  0
 83182  1  0
 84183  1  0
 96184  1  0
 96185  1  0
 97186  1  0
 97187  1  0
 97188  1  0
 98189  1  0
 98190  1  0
 99191  1  0
 99192  1  0
 99193  1  0
108194  1  0
108195  1  0
109196  1  0
109197  1  0
109198  1  0
112199  1  0
112200  1  0
113201  1  0
113202  1  0
113203  1  0
130204  1  0
130205  1  0
130206  1  0
131207  1  0
131208  1  0
131209  1  0
M  END

