
     RDKit          3D

157176  0  0  0  0  0  0  0  0999 V2000
   -4.2350   -5.1498   -8.4859 C   0  0  0  0  0  0  0  0  0  0  0  0
   -3.1203   -5.0420   -9.2372 C   0  0  0  0  0  0  0  0  0  0  0  0
   -1.7987   -4.6131   -8.7530 C   0  0  0  0  0  0  0  0  0  0  0  0
   -1.4450   -4.4767   -7.5526 O   0  0  0  0  0  0  0  0  0  0  0  0
   -0.9989   -4.2242   -9.8934 C   0  0  0  0  0  0  0  0  0  0  0  0
    0.2866   -3.6871   -9.8927 C   0  0  0  0  0  0  0  0  0  0  0  0
    0.8506   -3.2982  -11.1153 C   0  0  0  0  0  0  0  0  0  0  0  0
    2.6075   -2.5545  -11.1642 Br  0  0  0  0  0  0  0  0  0  0  0  0
    0.1127   -3.4348  -12.3045 C   0  0  0  0  0  0  0  0  0  0  0  0
   -1.1828   -3.9748  -12.2828 C   0  0  0  0  0  0  0  0  0  0  0  0
   -1.7283   -4.3942  -11.0577 C   0  0  0  0  0  0  0  0  0  0  0  0
   -3.0542   -4.9996  -10.7315 C   0  0  0  0  0  0  0  0  0  0  0  0
   -3.9161   -5.5957  -11.5974 C   0  0  0  0  0  0  0  0  0  0  0  0
   -5.0488   -6.3640  -11.1526 C   0  0  0  0  0  0  0  0  0  0  0  0
   -5.9591   -6.9862  -10.8015 N   0  0  0  0  0  0  0  0  0  0  0  0
   -3.7318   -5.5639  -13.0254 C   0  0  0  0  0  0  0  0  0  0  0  0
   -3.6047   -5.5491  -14.1766 N   0  0  0  0  0  0  0  0  0  0  0  0
   -4.2446   -5.1937   -7.0163 C   0  0  0  0  0  0  0  0  0  0  0  0
   -5.3339   -4.2862   -6.0496 S   0  0  0  0  0  0  0  0  0  0  0  0
   -4.7290   -4.9411   -4.6370 C   0  0  0  0  0  0  0  0  0  0  0  0
   -4.8233   -4.8348   -3.2798 C   0  0  0  0  0  0  0  0  0  0  0  0
   -3.8758   -5.6584   -2.7706 C   0  0  0  0  0  0  0  0  0  0  0  0
   -3.1622   -6.2879   -3.7386 N   0  0  0  0  0  0  0  0  0  0  0  0
   -2.0750   -7.2543   -3.5817 C   0  0  0  0  0  0  0  0  0  0  0  0
   -2.6465   -8.6552   -3.4205 C   0  0  0  0  0  0  0  0  0  0  0  0
   -3.7309   -5.8287   -4.8800 C   0  0  0  0  0  0  0  0  0  0  0  0
   -3.4265   -6.0175   -6.2213 C   0  0  0  0  0  0  0  0  0  0  0  0
   -3.7293   -5.6051   -1.3931 C   0  0  0  0  0  0  0  0  0  0  0  0
   -4.6407   -4.6789   -0.8419 C   0  0  0  0  0  0  0  0  0  0  0  0
   -5.5653   -3.9346   -2.0817 S   0  0  0  0  0  0  0  0  0  0  0  0
   -4.6474   -4.2423    0.5673 C   0  0  0  0  0  0  0  0  0  0  0  0
   -4.1672   -4.9791    1.6733 C   0  0  0  0  0  0  0  0  0  0  0  0
   -3.8537   -6.4207    1.6542 C   0  0  0  0  0  0  0  0  0  0  0  0
   -2.5880   -6.8872    2.0378 C   0  0  0  0  0  0  0  0  0  0  0  0
   -2.2934   -8.2516    1.9673 C   0  0  0  0  0  0  0  0  0  0  0  0
   -3.2627   -9.1589    1.5293 C   0  0  0  0  0  0  0  0  0  0  0  0
   -4.5417   -8.7069    1.1642 C   0  0  0  0  0  0  0  0  0  0  0  0
   -5.5846   -9.6799    0.6857 C   0  0  0  0  0  0  0  0  0  0  0  0
   -5.5503   -9.8068   -0.8348 C   0  0  0  0  0  0  0  0  0  0  0  0
   -4.8250   -7.3346    1.2132 C   0  0  0  0  0  0  0  0  0  0  0  0
   -4.0412   -4.1640    2.8001 C   0  0  0  0  0  0  0  0  0  0  0  0
   -3.1805   -4.3451    4.2676 S   0  0  0  0  0  0  0  0  0  0  0  0
   -3.3688   -2.6953    4.6140 C   0  0  0  0  0  0  0  0  0  0  0  0
   -2.7308   -1.7441    5.3624 C   0  0  0  0  0  0  0  0  0  0  0  0
   -1.8233   -1.8382    6.4192 C   0  0  0  0  0  0  0  0  0  0  0  0
   -1.2179   -0.6395    6.9106 C   0  0  0  0  0  0  0  0  0  0  0  0
   -0.3153   -0.7758    7.9111 N   0  0  0  0  0  0  0  0  0  0  0  0
   -0.3680   -2.4186    8.1167 S   0  0  0  0  0  0  0  0  0  0  0  0
   -1.4516   -3.0015    7.0070 N   0  0  0  0  0  0  0  0  0  0  0  0
   -1.5097    0.5775    6.2725 C   0  0  0  0  0  0  0  0  0  0  0  0
   -0.8149    1.7555    6.2860 C   0  0  0  0  0  0  0  0  0  0  0  0
    0.7142    2.2276    6.8658 S   0  0  0  0  0  0  0  0  0  0  0  0
    0.8567    3.4253    5.6604 C   0  0  0  0  0  0  0  0  0  0  0  0
    1.8788    4.3049    5.2764 C   0  0  0  0  0  0  0  0  0  0  0  0
    3.1911    4.4246    5.9513 C   0  0  0  0  0  0  0  0  0  0  0  0
    3.7450    5.6902    6.2056 C   0  0  0  0  0  0  0  0  0  0  0  0
    5.0008    5.8051    6.8071 C   0  0  0  0  0  0  0  0  0  0  0  0
    5.7096    4.6581    7.1706 C   0  0  0  0  0  0  0  0  0  0  0  0
    5.1620    3.3870    6.9461 C   0  0  0  0  0  0  0  0  0  0  0  0
    5.9406    2.1509    7.3126 C   0  0  0  0  0  0  0  0  0  0  0  0
    6.8436    1.7195    6.1621 C   0  0  0  0  0  0  0  0  0  0  0  0
    3.9086    3.2747    6.3244 C   0  0  0  0  0  0  0  0  0  0  0  0
    1.5036    5.0086    4.1155 C   0  0  0  0  0  0  0  0  0  0  0  0
   -0.0251    4.4964    3.5755 S   0  0  0  0  0  0  0  0  0  0  0  0
   -0.2355    3.4104    4.8313 C   0  0  0  0  0  0  0  0  0  0  0  0
   -1.1796    2.4457    5.1681 C   0  0  0  0  0  0  0  0  0  0  0  0
   -2.0688    1.7629    4.3977 N   0  0  0  0  0  0  0  0  0  0  0  0
   -2.3471    0.6449    5.1438 C   0  0  0  0  0  0  0  0  0  0  0  0
   -3.0548   -0.5196    4.7597 C   0  0  0  0  0  0  0  0  0  0  0  0
   -3.9415   -0.6926    3.7329 N   0  0  0  0  0  0  0  0  0  0  0  0
   -4.0580   -2.0368    3.6493 C   0  0  0  0  0  0  0  0  0  0  0  0
   -4.4433   -2.8651    2.6134 C   0  0  0  0  0  0  0  0  0  0  0  0
   -4.9175   -2.6206    1.0292 S   0  0  0  0  0  0  0  0  0  0  0  0
   -5.0008    0.2462    3.3285 C   0  0  0  0  0  0  0  0  0  0  0  0
   -6.3439   -0.1278    3.9566 C   0  0  0  0  0  0  0  0  0  0  0  0
   -2.0674    1.8473    2.9249 C   0  0  0  0  0  0  0  0  0  0  0  0
   -0.8736    1.0940    2.3370 C   0  0  0  0  0  0  0  0  0  0  0  0
    2.3149    5.9642    3.3669 C   0  0  0  0  0  0  0  0  0  0  0  0
    3.4621    5.5124    2.1793 S   0  0  0  0  0  0  0  0  0  0  0  0
    3.6352    7.0902    1.6470 C   0  0  0  0  0  0  0  0  0  0  0  0
    4.0317    7.7487    0.5159 C   0  0  0  0  0  0  0  0  0  0  0  0
    3.4186    8.9613    0.5438 C   0  0  0  0  0  0  0  0  0  0  0  0
    2.6313    9.1097    1.6389 N   0  0  0  0  0  0  0  0  0  0  0  0
    1.6925   10.1966    1.9266 C   0  0  0  0  0  0  0  0  0  0  0  0
    2.4451   11.3991    2.4788 C   0  0  0  0  0  0  0  0  0  0  0  0
    2.7897    7.9338    2.2997 C   0  0  0  0  0  0  0  0  0  0  0  0
    2.0119    7.3300    3.2818 C   0  0  0  0  0  0  0  0  0  0  0  0
    3.4436    9.6569   -0.6591 C   0  0  0  0  0  0  0  0  0  0  0  0
    4.1394    8.9260   -1.6341 C   0  0  0  0  0  0  0  0  0  0  0  0
    4.6051    7.3914   -1.0146 S   0  0  0  0  0  0  0  0  0  0  0  0
    4.2203    9.3371   -3.0457 C   0  0  0  0  0  0  0  0  0  0  0  0
    5.1904    8.9740   -3.9018 C   0  0  0  0  0  0  0  0  0  0  0  0
    4.9906    8.9489   -5.3507 C   0  0  0  0  0  0  0  0  0  0  0  0
    4.0619    9.5184   -5.9843 O   0  0  0  0  0  0  0  0  0  0  0  0
    5.9908    8.0733   -5.9271 C   0  0  0  0  0  0  0  0  0  0  0  0
    6.1056    7.6375   -7.2478 C   0  0  0  0  0  0  0  0  0  0  0  0
    7.1010    6.6988   -7.5548 C   0  0  0  0  0  0  0  0  0  0  0  0
    7.2807    6.1242   -9.2027 Cl  0  0  0  0  0  0  0  0  0  0  0  0
    7.9369    6.1966   -6.5405 C   0  0  0  0  0  0  0  0  0  0  0  0
    7.8008    6.6463   -5.2157 C   0  0  0  0  0  0  0  0  0  0  0  0
    6.8314    7.6178   -4.9272 C   0  0  0  0  0  0  0  0  0  0  0  0
    6.4796    8.2719   -3.6397 C   0  0  0  0  0  0  0  0  0  0  0  0
    7.3468    8.5538   -2.6345 C   0  0  0  0  0  0  0  0  0  0  0  0
    8.6677    7.9860   -2.5777 C   0  0  0  0  0  0  0  0  0  0  0  0
    9.7361    7.5423   -2.5197 N   0  0  0  0  0  0  0  0  0  0  0  0
    7.0732    9.5793   -1.6596 C   0  0  0  0  0  0  0  0  0  0  0  0
    6.8592   10.4018   -0.8711 N   0  0  0  0  0  0  0  0  0  0  0  0
   -5.2061   -5.1310   -8.9565 H   0  0  0  0  0  0  0  0  0  0  0  0
    0.8333   -3.5526   -8.9673 H   0  0  0  0  0  0  0  0  0  0  0  0
    0.5396   -3.1101  -13.2452 H   0  0  0  0  0  0  0  0  0  0  0  0
   -1.7294   -4.0351  -13.2089 H   0  0  0  0  0  0  0  0  0  0  0  0
   -1.4109   -7.2268   -4.4719 H   0  0  0  0  0  0  0  0  0  0  0  0
   -1.4630   -6.9958   -2.6914 H   0  0  0  0  0  0  0  0  0  0  0  0
   -3.2507   -8.9243   -4.3135 H   0  0  0  0  0  0  0  0  0  0  0  0
   -3.2896   -8.6934   -2.5167 H   0  0  0  0  0  0  0  0  0  0  0  0
   -1.8210   -9.3912   -3.3047 H   0  0  0  0  0  0  0  0  0  0  0  0
   -2.6705   -6.6970   -6.5977 H   0  0  0  0  0  0  0  0  0  0  0  0
   -2.9654   -6.1399   -0.8466 H   0  0  0  0  0  0  0  0  0  0  0  0
   -1.8225   -6.1948    2.3617 H   0  0  0  0  0  0  0  0  0  0  0  0
   -1.3095   -8.6040    2.2462 H   0  0  0  0  0  0  0  0  0  0  0  0
   -3.0164  -10.2130    1.4734 H   0  0  0  0  0  0  0  0  0  0  0  0
   -5.4143  -10.6803    1.1406 H   0  0  0  0  0  0  0  0  0  0  0  0
   -6.5936   -9.3384    1.0017 H   0  0  0  0  0  0  0  0  0  0  0  0
   -5.7298   -8.8185   -1.3101 H   0  0  0  0  0  0  0  0  0  0  0  0
   -4.5649  -10.2011   -1.1628 H   0  0  0  0  0  0  0  0  0  0  0  0
   -6.3427  -10.5103   -1.1661 H   0  0  0  0  0  0  0  0  0  0  0  0
   -5.8024   -6.9754    0.9116 H   0  0  0  0  0  0  0  0  0  0  0  0
    3.2060    6.5925    5.9453 H   0  0  0  0  0  0  0  0  0  0  0  0
    5.4248    6.7828    6.9900 H   0  0  0  0  0  0  0  0  0  0  0  0
    6.6882    4.7610    7.6265 H   0  0  0  0  0  0  0  0  0  0  0  0
    5.2435    1.3208    7.5638 H   0  0  0  0  0  0  0  0  0  0  0  0
    6.5646    2.3456    8.2122 H   0  0  0  0  0  0  0  0  0  0  0  0
    7.5838    2.5172    5.9371 H   0  0  0  0  0  0  0  0  0  0  0  0
    6.2406    1.5113    5.2527 H   0  0  0  0  0  0  0  0  0  0  0  0
    7.3928    0.7966    6.4459 H   0  0  0  0  0  0  0  0  0  0  0  0
    3.5086    2.2918    6.1055 H   0  0  0  0  0  0  0  0  0  0  0  0
   -5.0987    0.2472    2.2214 H   0  0  0  0  0  0  0  0  0  0  0  0
   -4.7676    1.2745    3.6783 H   0  0  0  0  0  0  0  0  0  0  0  0
   -6.6805   -1.1221    3.5956 H   0  0  0  0  0  0  0  0  0  0  0  0
   -6.2532   -0.1501    5.0636 H   0  0  0  0  0  0  0  0  0  0  0  0
   -7.1099    0.6250    3.6769 H   0  0  0  0  0  0  0  0  0  0  0  0
   -2.0414    2.9073    2.6025 H   0  0  0  0  0  0  0  0  0  0  0  0
   -2.9716    1.4269    2.4748 H   0  0  0  0  0  0  0  0  0  0  0  0
   -0.9523    0.0110    2.5770 H   0  0  0  0  0  0  0  0  0  0  0  0
    0.0814    1.4857    2.7469 H   0  0  0  0  0  0  0  0  0  0  0  0
   -0.8611    1.2177    1.2330 H   0  0  0  0  0  0  0  0  0  0  0  0
    0.9356    9.8664    2.6683 H   0  0  0  0  0  0  0  0  0  0  0  0
    1.1516   10.4837    0.9982 H   0  0  0  0  0  0  0  0  0  0  0  0
    1.7219   12.2028    2.7331 H   0  0  0  0  0  0  0  0  0  0  0  0
    3.1610   11.7827    1.7210 H   0  0  0  0  0  0  0  0  0  0  0  0
    3.0041   11.1115    3.3949 H   0  0  0  0  0  0  0  0  0  0  0  0
    1.2090    7.8125    3.8248 H   0  0  0  0  0  0  0  0  0  0  0  0
    2.9346   10.5944   -0.8397 H   0  0  0  0  0  0  0  0  0  0  0  0
    3.3615    9.8738   -3.4358 H   0  0  0  0  0  0  0  0  0  0  0  0
    5.4313    8.0023   -8.0112 H   0  0  0  0  0  0  0  0  0  0  0  0
    8.6848    5.4498   -6.7765 H   0  0  0  0  0  0  0  0  0  0  0  0
    8.4220    6.2109   -4.4482 H   0  0  0  0  0  0  0  0  0  0  0  0
  1  2  2  3
  2  3  1  0
  3  4  2  0
  3  5  1  0
  5  6  2  0
  6  7  1  0
  7  8  1  0
  7  9  2  0
  9 10  1  0
 10 11  2  0
 11 12  1  0
 12 13  2  3
 13 14  1  0
 14 15  3  0
 13 16  1  0
 16 17  3  0
  1 18  1  0
 18 19  1  0
 19 20  1  0
 20 21  1  0
 21 22  2  0
 22 23  1  0
 23 24  1  0
 24 25  1  0
 23 26  1  0
 26 27  1  0
 22 28  1  0
 28 29  2  0
 29 30  1  0
 29 31  1  0
 31 32  2  0
 32 33  1  0
 33 34  2  0
 34 35  1  0
 35 36  2  0
 36 37  1  0
 37 38  1  0
 38 39  1  0
 37 40  2  0
 32 41  1  0
 41 42  1  0
 42 43  1  0
 43 44  1  0
 44 45  1  0
 45 46  1  0
 46 47  2  0
 47 48  1  0
 48 49  1  0
 46 50  1  0
 50 51  1  0
 51 52  1  0
 52 53  1  0
 53 54  1  0
 54 55  1  0
 55 56  2  0
 56 57  1  0
 57 58  2  0
 58 59  1  0
 59 60  1  0
 60 61  1  0
 59 62  2  0
 54 63  2  0
 63 64  1  0
 64 65  1  0
 65 66  1  0
 66 67  1  0
 67 68  1  0
 68 69  1  0
 69 70  1  0
 70 71  1  0
 71 72  1  0
 72 73  1  0
 70 74  1  0
 74 75  1  0
 67 76  1  0
 76 77  1  0
 63 78  1  0
 78 79  1  0
 79 80  1  0
 80 81  1  0
 81 82  2  0
 82 83  1  0
 83 84  1  0
 84 85  1  0
 83 86  1  0
 86 87  1  0
 82 88  1  0
 88 89  2  0
 89 90  1  0
 89 91  1  0
 91 92  2  3
 92 93  1  0
 93 94  2  0
 93 95  1  0
 95 96  2  0
 96 97  1  0
 97 98  1  0
 97 99  2  0
 99100  1  0
100101  2  0
101102  1  0
102103  2  3
103104  1  0
104105  3  0
103106  1  0
106107  3  0
 12  2  1  0
 27 18  2  0
 73 31  1  0
 87 78  2  0
102 92  1  0
 11  5  1  0
 26 20  2  0
 40 33  1  0
 72 41  2  0
 86 80  2  0
101 95  1  0
 30 21  1  0
 71 43  2  0
 90 81  1  0
 69 44  2  0
 49 45  2  0
 68 50  2  0
 66 51  2  0
 65 53  2  0
 62 55  1  0
  1108  1  0
  6109  1  0
  9110  1  0
 10111  1  0
 24112  1  0
 24113  1  0
 25114  1  0
 25115  1  0
 25116  1  0
 27117  1  0
 28118  1  0
 34119  1  0
 35120  1  0
 36121  1  0
 38122  1  0
 38123  1  0
 39124  1  0
 39125  1  0
 39126  1  0
 40127  1  0
 56128  1  0
 57129  1  0
 58130  1  0
 60131  1  0
 60132  1  0
 61133  1  0
 61134  1  0
 61135  1  0
 62136  1  0
 74137  1  0
 74138  1  0
 75139  1  0
 75140  1  0
 75141  1  0
 76142  1  0
 76143  1  0
 77144  1  0
 77145  1  0
 77146  1  0
 84147  1  0
 84148  1  0
 85149  1  0
 85150  1  0
 85151  1  0
 87152  1  0
 88153  1  0
 91154  1  0
 96155  1  0
 99156  1  0
100157  1  0
M  END

