
     RDKit          3D

208226  0  0  0  0  0  0  0  0999 V2000
    5.4079   -2.7498    8.7538 C   0  0  0  0  0  0  0  0  0  0  0  0
    6.6423   -1.9793    9.2174 C   0  0  0  0  0  0  0  0  0  0  0  0
    7.7437   -2.1508    8.2594 N   0  0  0  0  0  0  0  0  0  0  0  0
    8.3756   -3.4400    8.1448 C   0  0  0  0  0  0  0  0  0  0  0  0
    8.3551   -4.2636    9.1046 O   0  0  0  0  0  0  0  0  0  0  0  0
    9.0830   -3.7599    6.9025 C   0  0  0  0  0  0  0  0  0  0  0  0
    9.8866   -2.6326    6.4098 C   0  0  0  0  0  0  0  0  0  0  0  0
   11.0240   -2.8277    5.8999 O   0  0  0  0  0  0  0  0  0  0  0  0
    9.3370   -1.3006    6.5219 N   0  0  0  0  0  0  0  0  0  0  0  0
    9.9408   -0.1957    5.7641 C   0  0  0  0  0  0  0  0  0  0  0  0
    9.5709   -0.2883    4.2844 C   0  0  0  0  0  0  0  0  0  0  0  0
    8.1167   -1.1341    7.2937 C   0  0  0  0  0  0  0  0  0  0  0  0
    7.0957    0.1225    6.9691 S   0  0  0  0  0  0  0  0  0  0  0  0
    8.6463   -4.7295    6.0619 C   0  0  0  0  0  0  0  0  0  0  0  0
    7.4307   -5.5211    6.4018 C   0  0  0  0  0  0  0  0  0  0  0  0
    6.5780   -5.8841    5.4427 C   0  0  0  0  0  0  0  0  0  0  0  0
    6.8623   -5.4847    4.0216 C   0  0  0  0  0  0  0  0  0  0  0  0
    8.3491   -5.7310    3.7289 C   0  0  0  0  0  0  0  0  0  0  0  0
    9.2000   -4.8336    4.6367 C   0  0  0  0  0  0  0  0  0  0  0  0
    5.9779   -6.2064    3.0601 C   0  0  0  0  0  0  0  0  0  0  0  0
    5.8846   -7.5775    2.9025 C   0  0  0  0  0  0  0  0  0  0  0  0
    4.9283   -7.7751    1.9277 C   0  0  0  0  0  0  0  0  0  0  0  0
    4.5056   -6.5126    1.5614 C   0  0  0  0  0  0  0  0  0  0  0  0
    5.1434   -5.5984    2.2496 O   0  0  0  0  0  0  0  0  0  0  0  0
    3.4431   -6.2087    0.6061 C   0  0  0  0  0  0  0  0  0  0  0  0
    3.6812   -5.6282   -0.9721 S   0  0  0  0  0  0  0  0  0  0  0  0
    2.0417   -5.3930   -1.2452 C   0  0  0  0  0  0  0  0  0  0  0  0
    1.2567   -4.5630   -2.1204 C   0  0  0  0  0  0  0  0  0  0  0  0
    0.0439   -4.2888   -1.5151 C   0  0  0  0  0  0  0  0  0  0  0  0
   -0.0678   -5.0491   -0.1756 C   0  0  0  0  0  0  0  0  0  0  0  0
    1.3271   -5.6332   -0.1156 C   0  0  0  0  0  0  0  0  0  0  0  0
    2.0956   -6.1141    0.9520 C   0  0  0  0  0  0  0  0  0  0  0  0
   -0.2590   -4.0555    0.9792 C   0  0  0  0  0  0  0  0  0  0  0  0
    0.7111   -3.0502    1.1794 C   0  0  0  0  0  0  0  0  0  0  0  0
    0.5946   -2.1277    2.2183 C   0  0  0  0  0  0  0  0  0  0  0  0
   -0.5138   -2.1652    3.0721 C   0  0  0  0  0  0  0  0  0  0  0  0
   -0.6014   -1.2266    4.2429 C   0  0  0  0  0  0  0  0  0  0  0  0
   -0.0006   -1.8738    5.4887 C   0  0  0  0  0  0  0  0  0  0  0  0
   -1.4997   -3.1383    2.8724 C   0  0  0  0  0  0  0  0  0  0  0  0
   -1.3858   -4.0624    1.8315 C   0  0  0  0  0  0  0  0  0  0  0  0
   -1.0010   -6.2662   -0.2001 C   0  0  0  0  0  0  0  0  0  0  0  0
   -1.1937   -7.0241    0.9753 C   0  0  0  0  0  0  0  0  0  0  0  0
   -1.9328   -8.2095    0.9523 C   0  0  0  0  0  0  0  0  0  0  0  0
   -2.4631   -8.6904   -0.2463 C   0  0  0  0  0  0  0  0  0  0  0  0
   -3.2569   -9.9690   -0.2732 C   0  0  0  0  0  0  0  0  0  0  0  0
   -4.7525   -9.6791   -0.3079 C   0  0  0  0  0  0  0  0  0  0  0  0
   -2.2362   -7.9766   -1.4302 C   0  0  0  0  0  0  0  0  0  0  0  0
   -1.4994   -6.7893   -1.4090 C   0  0  0  0  0  0  0  0  0  0  0  0
   -0.5046   -3.0525   -1.9485 C   0  0  0  0  0  0  0  0  0  0  0  0
   -1.6783   -2.3998   -1.5018 C   0  0  0  0  0  0  0  0  0  0  0  0
   -2.8155   -3.1400   -0.9273 C   0  0  0  0  0  0  0  0  0  0  0  0
   -3.6003   -2.7517    0.1601 C   0  0  0  0  0  0  0  0  0  0  0  0
   -4.7186   -3.5706    0.3646 C   0  0  0  0  0  0  0  0  0  0  0  0
   -4.8558   -4.5653   -0.5957 C   0  0  0  0  0  0  0  0  0  0  0  0
   -5.9069   -5.6344   -0.6112 C   0  0  0  0  0  0  0  0  0  0  0  0
   -6.6254   -5.6874   -1.9533 C   0  0  0  0  0  0  0  0  0  0  0  0
   -3.5792   -4.4300   -1.6820 S   0  0  0  0  0  0  0  0  0  0  0  0
   -1.8424   -1.0481   -1.8616 C   0  0  0  0  0  0  0  0  0  0  0  0
   -3.0624    0.0056   -1.3169 S   0  0  0  0  0  0  0  0  0  0  0  0
   -2.4429    1.2890   -2.1772 C   0  0  0  0  0  0  0  0  0  0  0  0
   -2.7983    2.6522   -2.3811 C   0  0  0  0  0  0  0  0  0  0  0  0
   -1.9488    3.1852   -3.2869 C   0  0  0  0  0  0  0  0  0  0  0  0
   -0.8637    2.2061   -3.7207 C   0  0  0  0  0  0  0  0  0  0  0  0
    0.4866    2.7571   -3.2223 C   0  0  0  0  0  0  0  0  0  0  0  0
    1.2355    2.1150   -2.2113 C   0  0  0  0  0  0  0  0  0  0  0  0
    2.4438    2.6563   -1.7544 C   0  0  0  0  0  0  0  0  0  0  0  0
    2.9321    3.8542   -2.2914 C   0  0  0  0  0  0  0  0  0  0  0  0
    4.2250    4.4417   -1.7934 C   0  0  0  0  0  0  0  0  0  0  0  0
    3.9775    5.4066   -0.6382 C   0  0  0  0  0  0  0  0  0  0  0  0
    2.1759    4.5281   -3.2532 C   0  0  0  0  0  0  0  0  0  0  0  0
    0.9719    3.9897   -3.7136 C   0  0  0  0  0  0  0  0  0  0  0  0
   -0.9863    1.9908   -5.2350 C   0  0  0  0  0  0  0  0  0  0  0  0
    0.0486    2.3065   -6.1454 C   0  0  0  0  0  0  0  0  0  0  0  0
   -0.1676    2.2565   -7.5244 C   0  0  0  0  0  0  0  0  0  0  0  0
   -1.4031    1.8480   -8.0354 C   0  0  0  0  0  0  0  0  0  0  0  0
   -1.6554    1.8666   -9.5184 C   0  0  0  0  0  0  0  0  0  0  0  0
   -2.2385    3.2106   -9.9416 C   0  0  0  0  0  0  0  0  0  0  0  0
   -2.4253    1.4882   -7.1476 C   0  0  0  0  0  0  0  0  0  0  0  0
   -2.2179    1.5552   -5.7675 C   0  0  0  0  0  0  0  0  0  0  0  0
   -1.3516    0.9669   -2.9349 C   0  0  0  0  0  0  0  0  0  0  0  0
   -0.9779   -0.3869   -2.7666 C   0  0  0  0  0  0  0  0  0  0  0  0
    0.1022   -1.0972   -3.3376 C   0  0  0  0  0  0  0  0  0  0  0  0
    0.3416   -2.3972   -2.8637 C   0  0  0  0  0  0  0  0  0  0  0  0
    1.7365   -3.3185   -3.1335 S   0  0  0  0  0  0  0  0  0  0  0  0
    0.8828   -0.5997   -4.4720 C   0  0  0  0  0  0  0  0  0  0  0  0
    2.1750   -0.0808   -4.4130 C   0  0  0  0  0  0  0  0  0  0  0  0
    2.7668    0.0737   -5.6743 C   0  0  0  0  0  0  0  0  0  0  0  0
    1.9720   -0.3742   -6.7227 C   0  0  0  0  0  0  0  0  0  0  0  0
    2.3646   -0.3270   -8.1737 C   0  0  0  0  0  0  0  0  0  0  0  0
    1.3110   -0.9393   -9.0883 C   0  0  0  0  0  0  0  0  0  0  0  0
    0.5305   -0.9685   -6.0732 S   0  0  0  0  0  0  0  0  0  0  0  0
   -2.2861    4.4948   -3.6524 C   0  0  0  0  0  0  0  0  0  0  0  0
   -3.4117    4.9402   -2.9444 C   0  0  0  0  0  0  0  0  0  0  0  0
   -3.9990    3.7218   -1.9118 S   0  0  0  0  0  0  0  0  0  0  0  0
   -3.9893    6.2845   -3.0471 C   0  0  0  0  0  0  0  0  0  0  0  0
   -3.8492    7.1528   -4.1114 C   0  0  0  0  0  0  0  0  0  0  0  0
   -4.5383    8.2927   -3.7548 C   0  0  0  0  0  0  0  0  0  0  0  0
   -5.0330    8.0559   -2.4898 C   0  0  0  0  0  0  0  0  0  0  0  0
   -4.7090    6.8382   -2.1017 O   0  0  0  0  0  0  0  0  0  0  0  0
   -5.8290    9.0260   -1.6630 C   0  0  0  0  0  0  0  0  0  0  0  0
   -5.3513    9.0300   -0.2448 C   0  0  0  0  0  0  0  0  0  0  0  0
   -5.8218    8.1644    0.6531 C   0  0  0  0  0  0  0  0  0  0  0  0
   -6.8675    7.1659    0.3043 C   0  0  0  0  0  0  0  0  0  0  0  0
   -7.0108    6.0183    1.0362 C   0  0  0  0  0  0  0  0  0  0  0  0
   -5.8638    5.4341    1.7947 C   0  0  0  0  0  0  0  0  0  0  0  0
   -4.7105    5.9274    1.6720 O   0  0  0  0  0  0  0  0  0  0  0  0
   -6.0275    4.2562    2.6063 N   0  0  0  0  0  0  0  0  0  0  0  0
   -4.8514    3.7066    3.3064 C   0  0  0  0  0  0  0  0  0  0  0  0
   -4.1465    2.6640    2.4429 C   0  0  0  0  0  0  0  0  0  0  0  0
   -7.2855    3.5415    2.6040 C   0  0  0  0  0  0  0  0  0  0  0  0
   -7.4860    2.2186    3.5787 S   0  0  0  0  0  0  0  0  0  0  0  0
   -8.3642    3.9776    1.7490 N   0  0  0  0  0  0  0  0  0  0  0  0
   -8.2901    5.2523    1.0833 C   0  0  0  0  0  0  0  0  0  0  0  0
   -9.3498    5.7611    0.6261 O   0  0  0  0  0  0  0  0  0  0  0  0
   -9.6111    3.1981    1.6380 C   0  0  0  0  0  0  0  0  0  0  0  0
  -10.5911    3.5716    2.7505 C   0  0  0  0  0  0  0  0  0  0  0  0
   -7.7023    7.4193   -0.9526 C   0  0  0  0  0  0  0  0  0  0  0  0
   -7.3305    8.7137   -1.7035 C   0  0  0  0  0  0  0  0  0  0  0  0
    5.1479   -2.4501    7.7159 H   0  0  0  0  0  0  0  0  0  0  0  0
    5.6086   -3.8418    8.7734 H   0  0  0  0  0  0  0  0  0  0  0  0
    4.5491   -2.5366    9.4254 H   0  0  0  0  0  0  0  0  0  0  0  0
    6.3870   -0.9079    9.3454 H   0  0  0  0  0  0  0  0  0  0  0  0
    6.9525   -2.3501   10.2183 H   0  0  0  0  0  0  0  0  0  0  0  0
    9.6161    0.7883    6.1668 H   0  0  0  0  0  0  0  0  0  0  0  0
   11.0447   -0.2301    5.8702 H   0  0  0  0  0  0  0  0  0  0  0  0
    9.9204    0.6212    3.7476 H   0  0  0  0  0  0  0  0  0  0  0  0
    8.4713   -0.3806    4.1554 H   0  0  0  0  0  0  0  0  0  0  0  0
   10.0650   -1.1679    3.8205 H   0  0  0  0  0  0  0  0  0  0  0  0
    7.1853   -5.7445    7.4328 H   0  0  0  0  0  0  0  0  0  0  0  0
    5.6685   -6.4079    5.7073 H   0  0  0  0  0  0  0  0  0  0  0  0
    6.6703   -4.3924    3.9324 H   0  0  0  0  0  0  0  0  0  0  0  0
    8.5739   -5.5043    2.6618 H   0  0  0  0  0  0  0  0  0  0  0  0
    8.6111   -6.7971    3.9232 H   0  0  0  0  0  0  0  0  0  0  0  0
    9.2233   -3.8267    4.1674 H   0  0  0  0  0  0  0  0  0  0  0  0
   10.2343   -5.2332    4.6708 H   0  0  0  0  0  0  0  0  0  0  0  0
    6.4321   -8.3449    3.4412 H   0  0  0  0  0  0  0  0  0  0  0  0
    4.5635   -8.7253    1.5510 H   0  0  0  0  0  0  0  0  0  0  0  0
    1.7099   -6.2852    1.9460 H   0  0  0  0  0  0  0  0  0  0  0  0
    1.5716   -2.9871    0.5223 H   0  0  0  0  0  0  0  0  0  0  0  0
    1.3711   -1.3857    2.3592 H   0  0  0  0  0  0  0  0  0  0  0  0
   -1.6628   -0.9592    4.4455 H   0  0  0  0  0  0  0  0  0  0  0  0
   -0.0554   -0.2822    4.0265 H   0  0  0  0  0  0  0  0  0  0  0  0
   -0.0407   -1.1629    6.3407 H   0  0  0  0  0  0  0  0  0  0  0  0
    1.0598   -2.1472    5.3062 H   0  0  0  0  0  0  0  0  0  0  0  0
   -0.5714   -2.7897    5.7624 H   0  0  0  0  0  0  0  0  0  0  0  0
   -2.3667   -3.1778    3.5257 H   0  0  0  0  0  0  0  0  0  0  0  0
   -2.1979   -4.7588    1.6857 H   0  0  0  0  0  0  0  0  0  0  0  0
   -0.7594   -6.7063    1.9158 H   0  0  0  0  0  0  0  0  0  0  0  0
   -2.0864   -8.7509    1.8788 H   0  0  0  0  0  0  0  0  0  0  0  0
   -3.0279  -10.5877    0.6208 H   0  0  0  0  0  0  0  0  0  0  0  0
   -2.9772  -10.5663   -1.1699 H   0  0  0  0  0  0  0  0  0  0  0  0
   -5.0027   -9.0413   -1.1822 H   0  0  0  0  0  0  0  0  0  0  0  0
   -5.0564   -9.1625    0.6258 H   0  0  0  0  0  0  0  0  0  0  0  0
   -5.3136  -10.6317   -0.3941 H   0  0  0  0  0  0  0  0  0  0  0  0
   -2.6175   -8.3465   -2.3757 H   0  0  0  0  0  0  0  0  0  0  0  0
   -1.3100   -6.2977   -2.3570 H   0  0  0  0  0  0  0  0  0  0  0  0
   -3.3575   -1.9156    0.8004 H   0  0  0  0  0  0  0  0  0  0  0  0
   -5.4040   -3.4365    1.1900 H   0  0  0  0  0  0  0  0  0  0  0  0
   -6.6515   -5.4413    0.1895 H   0  0  0  0  0  0  0  0  0  0  0  0
   -5.4258   -6.6151   -0.4068 H   0  0  0  0  0  0  0  0  0  0  0  0
   -5.9163   -5.9659   -2.7594 H   0  0  0  0  0  0  0  0  0  0  0  0
   -7.4304   -6.4517   -1.9122 H   0  0  0  0  0  0  0  0  0  0  0  0
   -7.0778   -4.7007   -2.1855 H   0  0  0  0  0  0  0  0  0  0  0  0
    0.9033    1.1944   -1.7605 H   0  0  0  0  0  0  0  0  0  0  0  0
    2.9989    2.1412   -0.9825 H   0  0  0  0  0  0  0  0  0  0  0  0
    4.9107    3.6367   -1.4541 H   0  0  0  0  0  0  0  0  0  0  0  0
    4.7330    4.9872   -2.6193 H   0  0  0  0  0  0  0  0  0  0  0  0
    3.3025    6.2311   -0.9527 H   0  0  0  0  0  0  0  0  0  0  0  0
    4.9441    5.8441   -0.3127 H   0  0  0  0  0  0  0  0  0  0  0  0
    3.5272    4.8694    0.2203 H   0  0  0  0  0  0  0  0  0  0  0  0
    2.5210    5.4721   -3.6565 H   0  0  0  0  0  0  0  0  0  0  0  0
    0.4335    4.5309   -4.4760 H   0  0  0  0  0  0  0  0  0  0  0  0
    1.0332    2.5867   -5.8120 H   0  0  0  0  0  0  0  0  0  0  0  0
    0.6358    2.5390   -8.1969 H   0  0  0  0  0  0  0  0  0  0  0  0
   -2.3613    1.0556   -9.7965 H   0  0  0  0  0  0  0  0  0  0  0  0
   -0.7082    1.6932  -10.0733 H   0  0  0  0  0  0  0  0  0  0  0  0
   -3.1830    3.4085   -9.3904 H   0  0  0  0  0  0  0  0  0  0  0  0
   -1.5152    4.0275   -9.7288 H   0  0  0  0  0  0  0  0  0  0  0  0
   -2.4566    3.2009  -11.0276 H   0  0  0  0  0  0  0  0  0  0  0  0
   -3.3904    1.1797   -7.5255 H   0  0  0  0  0  0  0  0  0  0  0  0
   -3.0378    1.3004   -5.1099 H   0  0  0  0  0  0  0  0  0  0  0  0
    2.6870    0.1385   -3.4912 H   0  0  0  0  0  0  0  0  0  0  0  0
    3.7569    0.4825   -5.8098 H   0  0  0  0  0  0  0  0  0  0  0  0
    2.5330    0.7314   -8.4622 H   0  0  0  0  0  0  0  0  0  0  0  0
    3.3173   -0.8794   -8.3113 H   0  0  0  0  0  0  0  0  0  0  0  0
    1.6125   -0.8190  -10.1480 H   0  0  0  0  0  0  0  0  0  0  0  0
    1.1981   -2.0234   -8.8723 H   0  0  0  0  0  0  0  0  0  0  0  0
    0.3315   -0.4358   -8.9411 H   0  0  0  0  0  0  0  0  0  0  0  0
   -1.7611    5.0794   -4.3872 H   0  0  0  0  0  0  0  0  0  0  0  0
   -3.3168    6.9723   -5.0368 H   0  0  0  0  0  0  0  0  0  0  0  0
   -4.6429    9.1978   -4.3412 H   0  0  0  0  0  0  0  0  0  0  0  0
   -5.6664   10.0466   -2.0792 H   0  0  0  0  0  0  0  0  0  0  0  0
   -4.6039    9.7528    0.0596 H   0  0  0  0  0  0  0  0  0  0  0  0
   -5.4511    8.2218    1.6711 H   0  0  0  0  0  0  0  0  0  0  0  0
   -4.1364    4.5100    3.5683 H   0  0  0  0  0  0  0  0  0  0  0  0
   -5.1425    3.2514    4.2756 H   0  0  0  0  0  0  0  0  0  0  0  0
   -4.8408    1.8326    2.1929 H   0  0  0  0  0  0  0  0  0  0  0  0
   -3.7849    3.1274    1.4984 H   0  0  0  0  0  0  0  0  0  0  0  0
   -3.2754    2.2431    2.9911 H   0  0  0  0  0  0  0  0  0  0  0  0
   -9.4013    2.1079    1.6784 H   0  0  0  0  0  0  0  0  0  0  0  0
  -10.0952    3.3763    0.6505 H   0  0  0  0  0  0  0  0  0  0  0  0
  -10.8847    4.6375    2.6674 H   0  0  0  0  0  0  0  0  0  0  0  0
  -11.5011    2.9420    2.6769 H   0  0  0  0  0  0  0  0  0  0  0  0
  -10.1354    3.4056    3.7464 H   0  0  0  0  0  0  0  0  0  0  0  0
   -8.7767    7.5214   -0.7184 H   0  0  0  0  0  0  0  0  0  0  0  0
   -7.5738    6.5484   -1.6300 H   0  0  0  0  0  0  0  0  0  0  0  0
   -7.8675    9.5623   -1.2222 H   0  0  0  0  0  0  0  0  0  0  0  0
   -7.6781    8.6533   -2.7585 H   0  0  0  0  0  0  0  0  0  0  0  0
  1  2  1  0
  2  3  1  0
  3  4  1  0
  4  5  2  0
  4  6  1  0
  6  7  1  0
  7  8  2  0
  7  9  1  0
  9 10  1  0
 10 11  1  0
  9 12  1  0
 12 13  2  0
  6 14  2  3
 14 15  1  0
 15 16  2  0
 16 17  1  0
 17 18  1  0
 18 19  1  0
 17 20  1  0
 20 21  2  0
 21 22  1  0
 22 23  2  0
 23 24  1  0
 23 25  1  0
 25 26  1  0
 26 27  1  0
 27 28  1  0
 28 29  2  0
 29 30  1  0
 30 31  1  0
 31 32  1  0
 30 33  1  0
 33 34  2  0
 34 35  1  0
 35 36  2  0
 36 37  1  0
 37 38  1  0
 36 39  1  0
 39 40  2  0
 30 41  1  0
 41 42  2  0
 42 43  1  0
 43 44  2  0
 44 45  1  0
 45 46  1  0
 44 47  1  0
 47 48  2  0
 29 49  1  0
 49 50  2  0
 50 51  1  0
 51 52  2  0
 52 53  1  0
 53 54  2  0
 54 55  1  0
 55 56  1  0
 54 57  1  0
 50 58  1  0
 58 59  1  0
 59 60  1  0
 60 61  1  0
 61 62  2  0
 62 63  1  0
 63 64  1  0
 64 65  2  0
 65 66  1  0
 66 67  2  0
 67 68  1  0
 68 69  1  0
 67 70  1  0
 70 71  2  0
 63 72  1  0
 72 73  2  0
 73 74  1  0
 74 75  2  0
 75 76  1  0
 76 77  1  0
 75 78  1  0
 78 79  2  0
 63 80  1  0
 80 81  1  0
 81 82  1  0
 82 83  2  0
 83 84  1  0
 82 85  1  0
 85 86  2  0
 86 87  1  0
 87 88  2  0
 88 89  1  0
 89 90  1  0
 88 91  1  0
 62 92  1  0
 92 93  2  0
 93 94  1  0
 93 95  1  0
 95 96  2  0
 96 97  1  0
 97 98  2  0
 98 99  1  0
 98100  1  0
100101  1  0
101102  2  0
102103  1  0
103104  2  3
104105  1  0
105106  2  0
105107  1  0
107108  1  0
108109  1  0
107110  1  0
110111  2  0
110112  1  0
112113  1  0
113114  2  0
112115  1  0
115116  1  0
103117  1  0
117118  1  0
 12  3  1  0
 19 14  1  0
 24 20  1  0
 32 25  2  0
 40 33  1  0
 48 41  1  0
 83 49  1  0
 91 85  1  0
 99 95  1  0
118100  1  0
 31 27  2  0
 57 51  1  0
 81 58  2  0
113104  1  0
 84 28  1  0
 80 60  2  0
 94 61  1  0
 71 64  1  0
 79 72  1  0
  1119  1  0
  1120  1  0
  1121  1  0
  2122  1  0
  2123  1  0
 10124  1  0
 10125  1  0
 11126  1  0
 11127  1  0
 11128  1  0
 15129  1  0
 16130  1  0
 17131  1  0
 18132  1  0
 18133  1  0
 19134  1  0
 19135  1  0
 21136  1  0
 22137  1  0
 32138  1  0
 34139  1  0
 35140  1  0
 37141  1  0
 37142  1  0
 38143  1  0
 38144  1  0
 38145  1  0
 39146  1  0
 40147  1  0
 42148  1  0
 43149  1  0
 45150  1  0
 45151  1  0
 46152  1  0
 46153  1  0
 46154  1  0
 47155  1  0
 48156  1  0
 52157  1  0
 53158  1  0
 55159  1  0
 55160  1  0
 56161  1  0
 56162  1  0
 56163  1  0
 65164  1  0
 66165  1  0
 68166  1  0
 68167  1  0
 69168  1  0
 69169  1  0
 69170  1  0
 70171  1  0
 71172  1  0
 73173  1  0
 74174  1  0
 76175  1  0
 76176  1  0
 77177  1  0
 77178  1  0
 77179  1  0
 78180  1  0
 79181  1  0
 86182  1  0
 87183  1  0
 89184  1  0
 89185  1  0
 90186  1  0
 90187  1  0
 90188  1  0
 92189  1  0
 96190  1  0
 97191  1  0
100192  1  0
101193  1  0
102194  1  0
108195  1  0
108196  1  0
109197  1  0
109198  1  0
109199  1  0
115200  1  0
115201  1  0
116202  1  0
116203  1  0
116204  1  0
117205  1  0
117206  1  0
118207  1  0
118208  1  0
M  END

