
     RDKit          3D

174189  0  0  0  0  0  0  0  0999 V2000
    6.7048    8.5517    7.3259 C   0  0  0  0  0  0  0  0  0  0  0  0
    8.2191    8.3646    7.1719 C   0  0  0  0  0  0  0  0  0  0  0  0
    8.3957    7.2406    6.2605 N   0  0  0  0  0  0  0  0  0  0  0  0
    8.4780    5.8897    6.7424 C   0  0  0  0  0  0  0  0  0  0  0  0
    8.3994    5.7733    7.9777 O   0  0  0  0  0  0  0  0  0  0  0  0
    8.6472    4.7721    5.8437 C   0  0  0  0  0  0  0  0  0  0  0  0
    8.7295    5.0954    4.4249 C   0  0  0  0  0  0  0  0  0  0  0  0
    8.8719    4.2216    3.5403 O   0  0  0  0  0  0  0  0  0  0  0  0
    8.6498    6.4528    3.9286 N   0  0  0  0  0  0  0  0  0  0  0  0
    8.7565    6.7573    2.5267 C   0  0  0  0  0  0  0  0  0  0  0  0
    7.4064    6.7441    1.8746 C   0  0  0  0  0  0  0  0  0  0  0  0
    8.4845    7.4764    4.8699 C   0  0  0  0  0  0  0  0  0  0  0  0
    8.3761    9.0401    4.3516 S   0  0  0  0  0  0  0  0  0  0  0  0
    8.6894    3.5264    6.3037 C   0  0  0  0  0  0  0  0  0  0  0  0
    8.8750    2.3999    5.3486 C   0  0  0  0  0  0  0  0  0  0  0  0
    8.1488    1.3206    5.5322 C   0  0  0  0  0  0  0  0  0  0  0  0
    7.2180    1.4151    6.7350 C   0  0  0  0  0  0  0  0  0  0  0  0
    8.0713    1.6816    7.9036 C   0  0  0  0  0  0  0  0  0  0  0  0
    8.5339    3.1615    7.7272 C   0  0  0  0  0  0  0  0  0  0  0  0
    6.3844    0.2294    6.6803 C   0  0  0  0  0  0  0  0  0  0  0  0
    6.5702   -1.0871    6.8668 C   0  0  0  0  0  0  0  0  0  0  0  0
    5.6229   -2.0166    6.6592 C   0  0  0  0  0  0  0  0  0  0  0  0
    5.9800   -3.5001    6.9328 C   0  0  0  0  0  0  0  0  0  0  0  0
    5.5591   -3.8479    8.3323 C   0  0  0  0  0  0  0  0  0  0  0  0
    4.4083   -1.7290    6.2498 C   0  0  0  0  0  0  0  0  0  0  0  0
    4.6255    0.2855    6.1302 Se  0  0  0  0  0  2  0  0  0  0  0  0
    3.1698   -2.2934    5.7810 C   0  0  0  0  0  0  0  0  0  0  0  0
    2.2431   -3.1449    6.1685 C   0  0  0  0  0  0  0  0  0  0  0  0
    2.2980   -3.8854    7.4571 C   0  0  0  0  0  0  0  0  0  0  0  0
    2.3724   -5.2812    7.3391 C   0  0  0  0  0  0  0  0  0  0  0  0
    2.3912   -6.0603    8.4887 C   0  0  0  0  0  0  0  0  0  0  0  0
    2.3387   -5.4662    9.7274 C   0  0  0  0  0  0  0  0  0  0  0  0
    2.2686   -4.0903    9.8470 C   0  0  0  0  0  0  0  0  0  0  0  0
    2.2253   -3.5186   11.2078 C   0  0  0  0  0  0  0  0  0  0  0  0
    3.6781   -3.2633   11.6130 C   0  0  0  0  0  0  0  0  0  0  0  0
    2.2501   -3.3450    8.6818 C   0  0  0  0  0  0  0  0  0  0  0  0
    1.1727   -3.3954    5.3210 C   0  0  0  0  0  0  0  0  0  0  0  0
   -0.2837   -4.3808    5.2974 S   0  0  0  0  0  0  0  0  0  0  0  0
   -0.8797   -3.9271    3.7699 C   0  0  0  0  0  0  0  0  0  0  0  0
   -1.8826   -4.0960    2.8366 C   0  0  0  0  0  0  0  0  0  0  0  0
   -2.9347   -4.9898    2.8953 C   0  0  0  0  0  0  0  0  0  0  0  0
   -3.7139   -5.0543    1.7775 C   0  0  0  0  0  0  0  0  0  0  0  0
   -4.7305   -5.9251    1.8204 N   0  0  0  0  0  0  0  0  0  0  0  0
   -4.6262   -6.6256    3.3333 S   0  0  0  0  0  0  0  0  0  0  0  0
   -3.2822   -5.7975    3.8919 N   0  0  0  0  0  0  0  0  0  0  0  0
   -3.4296   -4.2369    0.6709 C   0  0  0  0  0  0  0  0  0  0  0  0
   -4.0409   -4.1165   -0.5548 C   0  0  0  0  0  0  0  0  0  0  0  0
   -5.2547   -4.6814   -1.6100 S   0  0  0  0  0  0  0  0  0  0  0  0
   -4.9074   -3.7072   -2.9837 C   0  0  0  0  0  0  0  0  0  0  0  0
   -5.3702   -3.5593   -4.2376 C   0  0  0  0  0  0  0  0  0  0  0  0
   -6.4762   -4.3179   -4.8493 C   0  0  0  0  0  0  0  0  0  0  0  0
   -7.7942   -4.0949   -4.6418 C   0  0  0  0  0  0  0  0  0  0  0  0
   -8.6954   -4.9123   -5.3304 C   0  0  0  0  0  0  0  0  0  0  0  0
   -8.2865   -5.9183   -6.1942 C   0  0  0  0  0  0  0  0  0  0  0  0
   -6.9654   -6.1380   -6.3976 C   0  0  0  0  0  0  0  0  0  0  0  0
   -6.4312   -7.1858   -7.3016 C   0  0  0  0  0  0  0  0  0  0  0  0
   -6.2135   -8.4956   -6.5654 C   0  0  0  0  0  0  0  0  0  0  0  0
   -6.0739   -5.3335   -5.7223 C   0  0  0  0  0  0  0  0  0  0  0  0
   -4.7393   -2.6556   -5.0335 C   0  0  0  0  0  0  0  0  0  0  0  0
   -3.5379   -2.0572   -3.9949 S   0  0  0  0  0  0  0  0  0  0  0  0
   -3.8877   -2.9993   -2.5681 C   0  0  0  0  0  0  0  0  0  0  0  0
   -3.3934   -3.1769   -1.2969 C   0  0  0  0  0  0  0  0  0  0  0  0
   -2.3512   -2.7055   -0.4738 N   0  0  0  0  0  0  0  0  0  0  0  0
   -2.3751   -3.3453    0.6749 C   0  0  0  0  0  0  0  0  0  0  0  0
   -1.5395   -3.2636    1.7916 C   0  0  0  0  0  0  0  0  0  0  0  0
   -0.3943   -2.6267    2.0479 N   0  0  0  0  0  0  0  0  0  0  0  0
    0.0315   -3.0404    3.3082 C   0  0  0  0  0  0  0  0  0  0  0  0
    1.1074   -2.7906    4.1736 C   0  0  0  0  0  0  0  0  0  0  0  0
    2.5467   -1.8211    4.1978 S   0  0  0  0  0  0  0  0  0  0  0  0
    0.4259   -1.7607    1.2599 C   0  0  0  0  0  0  0  0  0  0  0  0
    0.2416   -0.3242    1.5257 C   0  0  0  0  0  0  0  0  0  0  0  0
   -1.6073   -1.5296   -0.8455 C   0  0  0  0  0  0  0  0  0  0  0  0
   -2.3312   -0.2904   -0.2803 C   0  0  0  0  0  0  0  0  0  0  0  0
   -4.9131   -2.2987   -6.4582 C   0  0  0  0  0  0  0  0  0  0  0  0
   -3.8939   -2.3733   -7.3980 C   0  0  0  0  0  0  0  0  0  0  0  0
   -4.1728   -2.0540   -8.6611 C   0  0  0  0  0  0  0  0  0  0  0  0
   -2.9603   -2.0795  -10.0366 S   0  0  0  0  0  0  0  0  0  0  0  0
   -1.3377   -2.5461   -9.3672 C   0  0  0  0  0  0  0  0  0  0  0  0
   -0.3106   -2.6271  -10.4333 C   0  0  0  0  0  0  0  0  0  0  0  0
   -5.4718   -1.6700   -8.9267 C   0  0  0  0  0  0  0  0  0  0  0  0
   -6.2163   -1.7806   -7.3948 S   0  0  0  0  0  0  0  0  0  0  0  0
   -6.0321   -1.2788  -10.2508 C   0  0  0  0  0  0  0  0  0  0  0  0
   -5.1239   -0.2769  -10.8705 C   0  0  0  0  0  0  0  0  0  0  0  0
   -5.2975    0.9750  -10.4884 C   0  0  0  0  0  0  0  0  0  0  0  0
   -6.2940    1.3418   -9.5317 C   0  0  0  0  0  0  0  0  0  0  0  0
   -6.1017    2.2966   -8.6249 C   0  0  0  0  0  0  0  0  0  0  0  0
   -7.1343    2.6863   -7.6560 C   0  0  0  0  0  0  0  0  0  0  0  0
   -8.2729    2.2085   -7.6850 O   0  0  0  0  0  0  0  0  0  0  0  0
   -6.8790    3.6524   -6.6225 N   0  0  0  0  0  0  0  0  0  0  0  0
   -7.9271    4.0029   -5.6730 C   0  0  0  0  0  0  0  0  0  0  0  0
   -7.7716    3.0182   -4.5083 C   0  0  0  0  0  0  0  0  0  0  0  0
   -5.6109    4.2514   -6.5256 C   0  0  0  0  0  0  0  0  0  0  0  0
   -5.2961    5.3472   -5.3489 S   0  0  0  0  0  0  0  0  0  0  0  0
   -4.5453    3.9248   -7.4366 N   0  0  0  0  0  0  0  0  0  0  0  0
   -4.8221    2.9565   -8.4587 C   0  0  0  0  0  0  0  0  0  0  0  0
   -3.8763    2.6853   -9.2364 O   0  0  0  0  0  0  0  0  0  0  0  0
   -3.2327    4.5063   -7.3217 C   0  0  0  0  0  0  0  0  0  0  0  0
   -3.0040    5.7390   -8.1272 C   0  0  0  0  0  0  0  0  0  0  0  0
   -7.5805    0.5592   -9.5129 C   0  0  0  0  0  0  0  0  0  0  0  0
   -7.4206   -0.7778  -10.2077 C   0  0  0  0  0  0  0  0  0  0  0  0
    6.3324    7.6399    7.8505 H   0  0  0  0  0  0  0  0  0  0  0  0
    6.4795    9.4686    7.9185 H   0  0  0  0  0  0  0  0  0  0  0  0
    6.2533    8.5938    6.3132 H   0  0  0  0  0  0  0  0  0  0  0  0
    8.6825    8.0785    8.1328 H   0  0  0  0  0  0  0  0  0  0  0  0
    8.6905    9.2595    6.7214 H   0  0  0  0  0  0  0  0  0  0  0  0
    9.4802    6.1019    1.9845 H   0  0  0  0  0  0  0  0  0  0  0  0
    9.1484    7.8119    2.4375 H   0  0  0  0  0  0  0  0  0  0  0  0
    7.4473    7.1427    0.8287 H   0  0  0  0  0  0  0  0  0  0  0  0
    6.8921    5.7892    1.9210 H   0  0  0  0  0  0  0  0  0  0  0  0
    6.7816    7.5055    2.4279 H   0  0  0  0  0  0  0  0  0  0  0  0
    9.6078    2.4850    4.5600 H   0  0  0  0  0  0  0  0  0  0  0  0
    8.1872    0.4492    4.9093 H   0  0  0  0  0  0  0  0  0  0  0  0
    6.5840    2.3292    6.5599 H   0  0  0  0  0  0  0  0  0  0  0  0
    8.9684    1.0347    7.8824 H   0  0  0  0  0  0  0  0  0  0  0  0
    7.5112    1.6256    8.8449 H   0  0  0  0  0  0  0  0  0  0  0  0
    9.4455    3.2949    8.2684 H   0  0  0  0  0  0  0  0  0  0  0  0
    7.7047    3.7894    8.1438 H   0  0  0  0  0  0  0  0  0  0  0  0
    7.6311   -1.3491    7.2297 H   0  0  0  0  0  0  0  0  0  0  0  0
    7.0594   -3.6728    6.8295 H   0  0  0  0  0  0  0  0  0  0  0  0
    5.4996   -4.1328    6.1527 H   0  0  0  0  0  0  0  0  0  0  0  0
    4.9530   -4.7515    8.3305 H   0  0  0  0  0  0  0  0  0  0  0  0
    5.0791   -2.9880    8.8650 H   0  0  0  0  0  0  0  0  0  0  0  0
    6.4769   -4.1204    8.9378 H   0  0  0  0  0  0  0  0  0  0  0  0
    2.4091   -5.7479    6.3623 H   0  0  0  0  0  0  0  0  0  0  0  0
    2.4465   -7.1478    8.4547 H   0  0  0  0  0  0  0  0  0  0  0  0
    2.3515   -6.1066   10.6170 H   0  0  0  0  0  0  0  0  0  0  0  0
    1.6898   -2.5630   11.2348 H   0  0  0  0  0  0  0  0  0  0  0  0
    1.8557   -4.2656   11.9543 H   0  0  0  0  0  0  0  0  0  0  0  0
    4.3950   -3.8868   11.0518 H   0  0  0  0  0  0  0  0  0  0  0  0
    3.8294   -3.4870   12.6818 H   0  0  0  0  0  0  0  0  0  0  0  0
    3.9699   -2.2028   11.4684 H   0  0  0  0  0  0  0  0  0  0  0  0
    2.1835   -2.2756    8.7877 H   0  0  0  0  0  0  0  0  0  0  0  0
   -8.0922   -3.3104   -3.9698 H   0  0  0  0  0  0  0  0  0  0  0  0
   -9.7478   -4.7375   -5.1749 H   0  0  0  0  0  0  0  0  0  0  0  0
   -9.0028   -6.5519   -6.7263 H   0  0  0  0  0  0  0  0  0  0  0  0
   -7.0302   -7.3332   -8.2133 H   0  0  0  0  0  0  0  0  0  0  0  0
   -5.3974   -6.8493   -7.6090 H   0  0  0  0  0  0  0  0  0  0  0  0
   -5.3018   -8.4618   -5.9213 H   0  0  0  0  0  0  0  0  0  0  0  0
   -6.0409   -9.2904   -7.3060 H   0  0  0  0  0  0  0  0  0  0  0  0
   -7.0530   -8.7852   -5.9257 H   0  0  0  0  0  0  0  0  0  0  0  0
   -5.0081   -5.5072   -5.8878 H   0  0  0  0  0  0  0  0  0  0  0  0
    1.5555   -1.9156    1.6383 H   0  0  0  0  0  0  0  0  0  0  0  0
    0.6826   -2.1249    0.2433 H   0  0  0  0  0  0  0  0  0  0  0  0
    1.0588    0.1468    2.1818 H   0  0  0  0  0  0  0  0  0  0  0  0
   -0.6731   -0.0927    2.1529 H   0  0  0  0  0  0  0  0  0  0  0  0
    0.2947    0.3432    0.6189 H   0  0  0  0  0  0  0  0  0  0  0  0
   -1.8951   -1.3569   -1.9765 H   0  0  0  0  0  0  0  0  0  0  0  0
   -0.5820   -1.4941   -0.9713 H   0  0  0  0  0  0  0  0  0  0  0  0
   -2.5536   -0.5120    0.7809 H   0  0  0  0  0  0  0  0  0  0  0  0
   -3.3558   -0.1899   -0.7460 H   0  0  0  0  0  0  0  0  0  0  0  0
   -1.8122    0.6379   -0.4553 H   0  0  0  0  0  0  0  0  0  0  0  0
   -2.8754   -2.6988   -7.0714 H   0  0  0  0  0  0  0  0  0  0  0  0
   -1.3436   -3.4730   -8.7811 H   0  0  0  0  0  0  0  0  0  0  0  0
   -1.0646   -1.7010   -8.6624 H   0  0  0  0  0  0  0  0  0  0  0  0
   -0.0805   -3.7056  -10.6321 H   0  0  0  0  0  0  0  0  0  0  0  0
   -0.5557   -2.1089  -11.3731 H   0  0  0  0  0  0  0  0  0  0  0  0
    0.6584   -2.2243  -10.0008 H   0  0  0  0  0  0  0  0  0  0  0  0
   -6.0381   -2.2235  -10.8736 H   0  0  0  0  0  0  0  0  0  0  0  0
   -4.3553   -0.4996  -11.5847 H   0  0  0  0  0  0  0  0  0  0  0  0
   -4.6790    1.7699  -10.9489 H   0  0  0  0  0  0  0  0  0  0  0  0
   -8.8883    3.8104   -6.1569 H   0  0  0  0  0  0  0  0  0  0  0  0
   -7.7794    5.0478   -5.3203 H   0  0  0  0  0  0  0  0  0  0  0  0
   -6.9812    3.4821   -3.8516 H   0  0  0  0  0  0  0  0  0  0  0  0
   -8.7309    2.8728   -3.9858 H   0  0  0  0  0  0  0  0  0  0  0  0
   -7.3345    2.0809   -4.8956 H   0  0  0  0  0  0  0  0  0  0  0  0
   -3.0172    4.7194   -6.2496 H   0  0  0  0  0  0  0  0  0  0  0  0
   -2.4682    3.7481   -7.6215 H   0  0  0  0  0  0  0  0  0  0  0  0
   -3.5053    5.6963   -9.1098 H   0  0  0  0  0  0  0  0  0  0  0  0
   -1.8936    5.9032   -8.2523 H   0  0  0  0  0  0  0  0  0  0  0  0
   -3.3458    6.6376   -7.5611 H   0  0  0  0  0  0  0  0  0  0  0  0
   -8.3270    1.1497  -10.0414 H   0  0  0  0  0  0  0  0  0  0  0  0
   -7.8235    0.3016   -8.4524 H   0  0  0  0  0  0  0  0  0  0  0  0
   -7.7880   -0.7337  -11.2643 H   0  0  0  0  0  0  0  0  0  0  0  0
   -8.0577   -1.5473   -9.7050 H   0  0  0  0  0  0  0  0  0  0  0  0
  1  2  1  0
  2  3  1  0
  3  4  1  0
  4  5  2  0
  4  6  1  0
  6  7  1  0
  7  8  2  0
  7  9  1  0
  9 10  1  0
 10 11  1  0
  9 12  1  0
 12 13  2  0
  6 14  2  3
 14 15  1  0
 15 16  2  0
 16 17  1  0
 17 18  1  0
 18 19  1  0
 17 20  1  0
 20 21  2  0
 21 22  1  0
 22 23  1  0
 23 24  1  0
 22 25  2  0
 25 26  1  0
 25 27  1  0
 27 28  2  0
 28 29  1  0
 29 30  2  0
 30 31  1  0
 31 32  2  0
 32 33  1  0
 33 34  1  0
 34 35  1  0
 33 36  2  0
 28 37  1  0
 37 38  1  0
 38 39  1  0
 39 40  1  0
 40 41  1  0
 41 42  1  0
 42 43  2  0
 43 44  1  0
 44 45  1  0
 42 46  1  0
 46 47  1  0
 47 48  1  0
 48 49  1  0
 49 50  1  0
 50 51  1  0
 51 52  2  0
 52 53  1  0
 53 54  2  0
 54 55  1  0
 55 56  1  0
 56 57  1  0
 55 58  2  0
 50 59  2  0
 59 60  1  0
 60 61  1  0
 61 62  1  0
 62 63  1  0
 63 64  1  0
 64 65  1  0
 65 66  1  0
 66 67  1  0
 67 68  1  0
 68 69  1  0
 66 70  1  0
 70 71  1  0
 63 72  1  0
 72 73  1  0
 59 74  1  0
 74 75  2  0
 75 76  1  0
 76 77  1  0
 77 78  1  0
 78 79  1  0
 76 80  2  0
 80 81  1  0
 80 82  1  0
 82 83  1  0
 83 84  2  0
 84 85  1  0
 85 86  2  3
 86 87  1  0
 87 88  2  0
 87 89  1  0
 89 90  1  0
 90 91  1  0
 89 92  1  0
 92 93  2  0
 92 94  1  0
 94 95  1  0
 95 96  2  0
 94 97  1  0
 97 98  1  0
 85 99  1  0
 99100  1  0
 12  3  1  0
 19 14  1  0
 26 20  1  0
 69 27  1  0
 81 74  1  0
100 82  1  0
 36 29  1  0
 68 37  2  0
 95 86  1  0
 67 39  2  0
 65 40  2  0
 45 41  2  0
 64 46  2  0
 62 47  2  0
 61 49  2  0
 58 51  1  0
  1101  1  0
  1102  1  0
  1103  1  0
  2104  1  0
  2105  1  0
 10106  1  0
 10107  1  0
 11108  1  0
 11109  1  0
 11110  1  0
 15111  1  0
 16112  1  0
 17113  1  0
 18114  1  0
 18115  1  0
 19116  1  0
 19117  1  0
 21118  1  0
 23119  1  0
 23120  1  0
 24121  1  0
 24122  1  0
 24123  1  0
 30124  1  0
 31125  1  0
 32126  1  0
 34127  1  0
 34128  1  0
 35129  1  0
 35130  1  0
 35131  1  0
 36132  1  0
 52133  1  0
 53134  1  0
 54135  1  0
 56136  1  0
 56137  1  0
 57138  1  0
 57139  1  0
 57140  1  0
 58141  1  0
 70142  1  0
 70143  1  0
 71144  1  0
 71145  1  0
 71146  1  0
 72147  1  0
 72148  1  0
 73149  1  0
 73150  1  0
 73151  1  0
 75152  1  0
 78153  1  0
 78154  1  0
 79155  1  0
 79156  1  0
 79157  1  0
 82158  1  0
 83159  1  0
 84160  1  0
 90161  1  0
 90162  1  0
 91163  1  0
 91164  1  0
 91165  1  0
 97166  1  0
 97167  1  0
 98168  1  0
 98169  1  0
 98170  1  0
 99171  1  0
 99172  1  0
100173  1  0
100174  1  0
M  END

