
     RDKit          3D

160175  0  0  0  0  0  0  0  0999 V2000
    7.2663    2.2022   -7.2946 C   0  0  0  0  0  0  0  0  0  0  0  0
    7.6912    0.7369   -7.3059 C   0  0  0  0  0  0  0  0  0  0  0  0
    6.7332   -0.0688   -8.0902 N   0  0  0  0  0  0  0  0  0  0  0  0
    5.6177   -0.6805   -7.4118 C   0  0  0  0  0  0  0  0  0  0  0  0
    5.4032   -0.4305   -6.1923 O   0  0  0  0  0  0  0  0  0  0  0  0
    4.6581   -1.5092   -8.1716 C   0  0  0  0  0  0  0  0  0  0  0  0
    4.5095   -1.0934   -9.5816 C   0  0  0  0  0  0  0  0  0  0  0  0
    3.3794   -1.0945  -10.1402 O   0  0  0  0  0  0  0  0  0  0  0  0
    5.6605   -0.6082  -10.2950 N   0  0  0  0  0  0  0  0  0  0  0  0
    5.6128   -0.5582  -11.7650 C   0  0  0  0  0  0  0  0  0  0  0  0
    5.1121    0.8016  -12.2393 C   0  0  0  0  0  0  0  0  0  0  0  0
    6.8018   -0.1267   -9.5404 C   0  0  0  0  0  0  0  0  0  0  0  0
    8.1753    0.3428  -10.3252 S   0  0  0  0  0  0  0  0  0  0  0  0
    4.0044   -2.5871   -7.6477 C   0  0  0  0  0  0  0  0  0  0  0  0
    4.3267   -3.1013   -6.2845 C   0  0  0  0  0  0  0  0  0  0  0  0
    3.5606   -4.0111   -5.6751 C   0  0  0  0  0  0  0  0  0  0  0  0
    2.3060   -4.5416   -6.3144 C   0  0  0  0  0  0  0  0  0  0  0  0
    2.5082   -4.6558   -7.8307 C   0  0  0  0  0  0  0  0  0  0  0  0
    2.9333   -3.3173   -8.4507 C   0  0  0  0  0  0  0  0  0  0  0  0
    1.1012   -3.6963   -5.9732 C   0  0  0  0  0  0  0  0  0  0  0  0
   -0.2233   -4.1153   -6.0499 C   0  0  0  0  0  0  0  0  0  0  0  0
   -1.1388   -3.1656   -5.5781 C   0  0  0  0  0  0  0  0  0  0  0  0
   -2.8784   -3.5598   -5.3829 S   0  0  0  0  0  0  0  0  0  0  0  0
   -2.6811   -4.1896   -3.6875 C   0  0  0  0  0  0  0  0  0  0  0  0
   -4.0420   -4.3550   -3.0313 C   0  0  0  0  0  0  0  0  0  0  0  0
   -0.5421   -1.9708   -5.1594 C   0  0  0  0  0  0  0  0  0  0  0  0
    1.1220   -2.1325   -5.3450 S   0  0  0  0  0  0  0  0  0  0  0  0
   -1.1665   -0.8590   -4.4190 C   0  0  0  0  0  0  0  0  0  0  0  0
   -2.4129   -0.2342   -4.6655 C   0  0  0  0  0  0  0  0  0  0  0  0
   -3.2265   -0.3969   -5.8988 C   0  0  0  0  0  0  0  0  0  0  0  0
   -2.5948   -0.5126   -7.1496 C   0  0  0  0  0  0  0  0  0  0  0  0
   -3.3482   -0.6810   -8.3109 C   0  0  0  0  0  0  0  0  0  0  0  0
   -4.7440   -0.7080   -8.2450 C   0  0  0  0  0  0  0  0  0  0  0  0
   -5.3928   -0.5461   -7.0167 C   0  0  0  0  0  0  0  0  0  0  0  0
   -6.8966   -0.5432   -6.9521 C   0  0  0  0  0  0  0  0  0  0  0  0
   -7.4331   -1.9131   -6.5459 C   0  0  0  0  0  0  0  0  0  0  0  0
   -4.6339   -0.4253   -5.8413 C   0  0  0  0  0  0  0  0  0  0  0  0
   -2.7052    0.6789   -3.6387 C   0  0  0  0  0  0  0  0  0  0  0  0
   -4.0788    1.6088   -3.2216 S   0  0  0  0  0  0  0  0  0  0  0  0
   -3.3110    2.2078   -1.8292 C   0  0  0  0  0  0  0  0  0  0  0  0
   -3.6931    2.7160   -0.6166 C   0  0  0  0  0  0  0  0  0  0  0  0
   -4.9756    2.8843   -0.0653 C   0  0  0  0  0  0  0  0  0  0  0  0
   -5.1069    3.0057    1.3564 C   0  0  0  0  0  0  0  0  0  0  0  0
   -6.3639    3.0980    1.8558 N   0  0  0  0  0  0  0  0  0  0  0  0
   -7.2298    2.9991    0.4456 S   0  0  0  0  0  0  0  0  0  0  0  0
   -6.1261    2.8464   -0.7811 N   0  0  0  0  0  0  0  0  0  0  0  0
   -3.9442    3.0354    2.1343 C   0  0  0  0  0  0  0  0  0  0  0  0
   -3.7188    3.1278    3.4852 C   0  0  0  0  0  0  0  0  0  0  0  0
   -4.5365    2.9575    4.9655 S   0  0  0  0  0  0  0  0  0  0  0  0
   -3.0537    2.9591    5.8258 C   0  0  0  0  0  0  0  0  0  0  0  0
   -2.6905    2.6353    7.1394 C   0  0  0  0  0  0  0  0  0  0  0  0
   -3.6446    2.2434    8.1946 C   0  0  0  0  0  0  0  0  0  0  0  0
   -3.5776    2.8419    9.4626 C   0  0  0  0  0  0  0  0  0  0  0  0
   -4.4976    2.4917   10.4538 C   0  0  0  0  0  0  0  0  0  0  0  0
   -5.4938    1.5487   10.1859 C   0  0  0  0  0  0  0  0  0  0  0  0
   -5.5724    0.9432    8.9228 C   0  0  0  0  0  0  0  0  0  0  0  0
   -6.6128   -0.1089    8.6445 C   0  0  0  0  0  0  0  0  0  0  0  0
   -6.0811   -1.4921    9.0005 C   0  0  0  0  0  0  0  0  0  0  0  0
   -4.6368    1.2853    7.9356 C   0  0  0  0  0  0  0  0  0  0  0  0
   -1.2859    2.5671    7.2593 C   0  0  0  0  0  0  0  0  0  0  0  0
   -0.5503    2.8547    5.7471 S   0  0  0  0  0  0  0  0  0  0  0  0
   -1.9972    3.1154    4.9717 C   0  0  0  0  0  0  0  0  0  0  0  0
   -2.3783    3.1814    3.6515 C   0  0  0  0  0  0  0  0  0  0  0  0
   -1.6863    3.0965    2.4947 N   0  0  0  0  0  0  0  0  0  0  0  0
   -2.6704    2.9343    1.5630 C   0  0  0  0  0  0  0  0  0  0  0  0
   -2.5527    2.6175    0.1958 C   0  0  0  0  0  0  0  0  0  0  0  0
   -1.5678    1.8908   -0.4219 N   0  0  0  0  0  0  0  0  0  0  0  0
   -2.0583    1.7047   -1.6728 C   0  0  0  0  0  0  0  0  0  0  0  0
   -1.7304    0.8119   -2.6848 C   0  0  0  0  0  0  0  0  0  0  0  0
   -0.4673   -0.2293   -2.9978 S   0  0  0  0  0  0  0  0  0  0  0  0
   -0.6454    0.9498    0.2369 C   0  0  0  0  0  0  0  0  0  0  0  0
   -1.3898   -0.3089    0.6758 C   0  0  0  0  0  0  0  0  0  0  0  0
   -0.3336    3.6301    2.2773 C   0  0  0  0  0  0  0  0  0  0  0  0
   -0.2510    5.1031    2.6761 C   0  0  0  0  0  0  0  0  0  0  0  0
   -0.5283    1.9379    8.3443 C   0  0  0  0  0  0  0  0  0  0  0  0
    0.0922    2.6376    9.3758 C   0  0  0  0  0  0  0  0  0  0  0  0
    1.2321    1.9930    9.8849 C   0  0  0  0  0  0  0  0  0  0  0  0
    2.3100    2.7517   11.1045 S   0  0  0  0  0  0  0  0  0  0  0  0
    3.1648    3.8515    9.9177 C   0  0  0  0  0  0  0  0  0  0  0  0
    4.6304    3.4648    9.7965 C   0  0  0  0  0  0  0  0  0  0  0  0
    1.5267    0.7989    9.2387 C   0  0  0  0  0  0  0  0  0  0  0  0
    0.3507    0.5308    8.0743 S   0  0  0  0  0  0  0  0  0  0  0  0
    2.7836    0.0398    9.3237 C   0  0  0  0  0  0  0  0  0  0  0  0
    3.6144   -0.0859    8.2687 C   0  0  0  0  0  0  0  0  0  0  0  0
    3.6061    0.7589    7.0635 C   0  0  0  0  0  0  0  0  0  0  0  0
    2.8217    1.7203    6.8377 O   0  0  0  0  0  0  0  0  0  0  0  0
    4.7773    0.4366    6.2647 C   0  0  0  0  0  0  0  0  0  0  0  0
    5.2265    1.0517    5.0915 C   0  0  0  0  0  0  0  0  0  0  0  0
    4.2319    2.2461    4.2604 Cl  0  0  0  0  0  0  0  0  0  0  0  0
    6.4929    0.6927    4.5900 C   0  0  0  0  0  0  0  0  0  0  0  0
    7.0840    1.4225    3.0956 Cl  0  0  0  0  0  0  0  0  0  0  0  0
    7.3168   -0.1993    5.3191 C   0  0  0  0  0  0  0  0  0  0  0  0
    8.9433   -0.5670    4.7359 Cl  0  0  0  0  0  0  0  0  0  0  0  0
    6.8550   -0.7739    6.5229 C   0  0  0  0  0  0  0  0  0  0  0  0
    8.0039   -1.5825    7.5913 Cl  0  0  0  0  0  0  0  0  0  0  0  0
    5.5251   -0.5265    6.9242 C   0  0  0  0  0  0  0  0  0  0  0  0
    4.7756   -1.0131    8.1179 C   0  0  0  0  0  0  0  0  0  0  0  0
    4.8293   -2.2790    8.6139 C   0  0  0  0  0  0  0  0  0  0  0  0
    3.9914   -2.7210    9.6965 C   0  0  0  0  0  0  0  0  0  0  0  0
    3.3317   -3.0875   10.5773 N   0  0  0  0  0  0  0  0  0  0  0  0
    5.5442   -3.3304    7.9328 C   0  0  0  0  0  0  0  0  0  0  0  0
    6.0993   -4.1837    7.3756 N   0  0  0  0  0  0  0  0  0  0  0  0
    6.2645    2.3056   -6.8208 H   0  0  0  0  0  0  0  0  0  0  0  0
    7.9980    2.7985   -6.7088 H   0  0  0  0  0  0  0  0  0  0  0  0
    7.2213    2.6016   -8.3289 H   0  0  0  0  0  0  0  0  0  0  0  0
    8.7182    0.6454   -7.7114 H   0  0  0  0  0  0  0  0  0  0  0  0
    7.7480    0.3678   -6.2592 H   0  0  0  0  0  0  0  0  0  0  0  0
    4.9348   -1.3520  -12.1535 H   0  0  0  0  0  0  0  0  0  0  0  0
    6.6082   -0.7752  -12.2068 H   0  0  0  0  0  0  0  0  0  0  0  0
    4.1016    1.0023  -11.8158 H   0  0  0  0  0  0  0  0  0  0  0  0
    5.8087    1.6073  -11.9118 H   0  0  0  0  0  0  0  0  0  0  0  0
    5.0422    0.8045  -13.3471 H   0  0  0  0  0  0  0  0  0  0  0  0
    5.2217   -2.7829   -5.7695 H   0  0  0  0  0  0  0  0  0  0  0  0
    3.8402   -4.3684   -4.6905 H   0  0  0  0  0  0  0  0  0  0  0  0
    2.1268   -5.5651   -5.9079 H   0  0  0  0  0  0  0  0  0  0  0  0
    3.2969   -5.4145   -8.0317 H   0  0  0  0  0  0  0  0  0  0  0  0
    1.5761   -5.0177   -8.3174 H   0  0  0  0  0  0  0  0  0  0  0  0
    2.0377   -2.6646   -8.5263 H   0  0  0  0  0  0  0  0  0  0  0  0
    3.3029   -3.5370   -9.4757 H   0  0  0  0  0  0  0  0  0  0  0  0
   -0.5063   -5.1043   -6.3790 H   0  0  0  0  0  0  0  0  0  0  0  0
   -2.0794   -3.4810   -3.0826 H   0  0  0  0  0  0  0  0  0  0  0  0
   -2.1643   -5.1701   -3.7232 H   0  0  0  0  0  0  0  0  0  0  0  0
   -3.9183   -4.7797   -2.0106 H   0  0  0  0  0  0  0  0  0  0  0  0
   -4.5519   -3.3691   -2.9518 H   0  0  0  0  0  0  0  0  0  0  0  0
   -4.6778   -5.0429   -3.6295 H   0  0  0  0  0  0  0  0  0  0  0  0
   -1.5163   -0.4645   -7.2345 H   0  0  0  0  0  0  0  0  0  0  0  0
   -2.8584   -0.7841   -9.2693 H   0  0  0  0  0  0  0  0  0  0  0  0
   -5.3159   -0.8301   -9.1597 H   0  0  0  0  0  0  0  0  0  0  0  0
   -7.2419    0.2236   -6.2245 H   0  0  0  0  0  0  0  0  0  0  0  0
   -7.3239   -0.2661   -7.9433 H   0  0  0  0  0  0  0  0  0  0  0  0
   -7.1219   -2.1581   -5.5090 H   0  0  0  0  0  0  0  0  0  0  0  0
   -8.5435   -1.9000   -6.5884 H   0  0  0  0  0  0  0  0  0  0  0  0
   -7.0590   -2.6956   -7.2393 H   0  0  0  0  0  0  0  0  0  0  0  0
   -5.1408   -0.3646   -4.8877 H   0  0  0  0  0  0  0  0  0  0  0  0
   -2.8295    3.6000    9.6731 H   0  0  0  0  0  0  0  0  0  0  0  0
   -4.4447    2.9603   11.4278 H   0  0  0  0  0  0  0  0  0  0  0  0
   -6.2000    1.2895   10.9617 H   0  0  0  0  0  0  0  0  0  0  0  0
   -6.8959   -0.0902    7.5724 H   0  0  0  0  0  0  0  0  0  0  0  0
   -7.5336    0.0949    9.2328 H   0  0  0  0  0  0  0  0  0  0  0  0
   -6.8568   -2.2598    8.7820 H   0  0  0  0  0  0  0  0  0  0  0  0
   -5.8289   -1.5410   10.0840 H   0  0  0  0  0  0  0  0  0  0  0  0
   -5.1732   -1.7249    8.4058 H   0  0  0  0  0  0  0  0  0  0  0  0
   -4.6760    0.7971    6.9680 H   0  0  0  0  0  0  0  0  0  0  0  0
    0.1776    0.6781   -0.4521 H   0  0  0  0  0  0  0  0  0  0  0  0
   -0.1661    1.3836    1.1221 H   0  0  0  0  0  0  0  0  0  0  0  0
   -0.6929   -0.9866    1.2186 H   0  0  0  0  0  0  0  0  0  0  0  0
   -2.2325   -0.0455    1.3561 H   0  0  0  0  0  0  0  0  0  0  0  0
   -1.7976   -0.8481   -0.2078 H   0  0  0  0  0  0  0  0  0  0  0  0
   -0.0551    3.5709    1.2044 H   0  0  0  0  0  0  0  0  0  0  0  0
    0.4024    3.0412    2.8694 H   0  0  0  0  0  0  0  0  0  0  0  0
   -1.0081    5.6944    2.1201 H   0  0  0  0  0  0  0  0  0  0  0  0
   -0.4225    5.2221    3.7661 H   0  0  0  0  0  0  0  0  0  0  0  0
    0.7596    5.4935    2.4360 H   0  0  0  0  0  0  0  0  0  0  0  0
   -0.1891    3.6421    9.6637 H   0  0  0  0  0  0  0  0  0  0  0  0
    2.6972    3.8289    8.9118 H   0  0  0  0  0  0  0  0  0  0  0  0
    3.0970    4.8936   10.3014 H   0  0  0  0  0  0  0  0  0  0  0  0
    4.7260    2.4442    9.3693 H   0  0  0  0  0  0  0  0  0  0  0  0
    5.1149    3.4914   10.7989 H   0  0  0  0  0  0  0  0  0  0  0  0
    5.1497    4.1868    9.1320 H   0  0  0  0  0  0  0  0  0  0  0  0
    3.0027   -0.4393   10.2644 H   0  0  0  0  0  0  0  0  0  0  0  0
  1  2  1  0
  2  3  1  0
  3  4  1  0
  4  5  2  0
  4  6  1  0
  6  7  1  0
  7  8  2  0
  7  9  1  0
  9 10  1  0
 10 11  1  0
  9 12  1  0
 12 13  2  0
  6 14  2  3
 14 15  1  0
 15 16  2  0
 16 17  1  0
 17 18  1  0
 18 19  1  0
 17 20  1  0
 20 21  2  0
 21 22  1  0
 22 23  1  0
 23 24  1  0
 24 25  1  0
 22 26  2  0
 26 27  1  0
 26 28  1  0
 28 29  2  0
 29 30  1  0
 30 31  2  0
 31 32  1  0
 32 33  2  0
 33 34  1  0
 34 35  1  0
 35 36  1  0
 34 37  2  0
 29 38  1  0
 38 39  1  0
 39 40  1  0
 40 41  1  0
 41 42  1  0
 42 43  1  0
 43 44  2  0
 44 45  1  0
 45 46  1  0
 43 47  1  0
 47 48  1  0
 48 49  1  0
 49 50  1  0
 50 51  1  0
 51 52  1  0
 52 53  2  0
 53 54  1  0
 54 55  2  0
 55 56  1  0
 56 57  1  0
 57 58  1  0
 56 59  2  0
 51 60  2  0
 60 61  1  0
 61 62  1  0
 62 63  1  0
 63 64  1  0
 64 65  1  0
 65 66  1  0
 66 67  1  0
 67 68  1  0
 68 69  1  0
 69 70  1  0
 67 71  1  0
 71 72  1  0
 64 73  1  0
 73 74  1  0
 60 75  1  0
 75 76  2  0
 76 77  1  0
 77 78  1  0
 78 79  1  0
 79 80  1  0
 77 81  2  0
 81 82  1  0
 81 83  1  0
 83 84  2  3
 84 85  1  0
 85 86  2  0
 85 87  1  0
 87 88  2  0
 88 89  1  0
 88 90  1  0
 90 91  1  0
 90 92  2  0
 92 93  1  0
 92 94  1  0
 94 95  1  0
 94 96  2  0
 96 97  1  0
 97 98  2  3
 98 99  1  0
 99100  3  0
 98101  1  0
101102  3  0
 12  3  1  0
 19 14  1  0
 27 20  1  0
 70 28  1  0
 82 75  1  0
 97 84  1  0
 37 30  1  0
 69 38  2  0
 96 87  1  0
 68 40  2  0
 66 41  2  0
 46 42  2  0
 65 47  2  0
 63 48  2  0
 62 50  2  0
 59 52  1  0
  1103  1  0
  1104  1  0
  1105  1  0
  2106  1  0
  2107  1  0
 10108  1  0
 10109  1  0
 11110  1  0
 11111  1  0
 11112  1  0
 15113  1  0
 16114  1  0
 17115  1  0
 18116  1  0
 18117  1  0
 19118  1  0
 19119  1  0
 21120  1  0
 24121  1  0
 24122  1  0
 25123  1  0
 25124  1  0
 25125  1  0
 31126  1  0
 32127  1  0
 33128  1  0
 35129  1  0
 35130  1  0
 36131  1  0
 36132  1  0
 36133  1  0
 37134  1  0
 53135  1  0
 54136  1  0
 55137  1  0
 57138  1  0
 57139  1  0
 58140  1  0
 58141  1  0
 58142  1  0
 59143  1  0
 71144  1  0
 71145  1  0
 72146  1  0
 72147  1  0
 72148  1  0
 73149  1  0
 73150  1  0
 74151  1  0
 74152  1  0
 74153  1  0
 76154  1  0
 79155  1  0
 79156  1  0
 80157  1  0
 80158  1  0
 80159  1  0
 83160  1  0
M  END

