
     RDKit          3D

123135  0  0  0  0  0  0  0  0999 V2000
    0.5881    7.9336   -0.9304 C   0  0  0  0  0  0  0  0  0  0  0  0
    0.0783    8.1726    0.2945 C   0  0  0  0  0  0  0  0  0  0  0  0
    0.0329    7.1972    1.4074 C   0  0  0  0  0  0  0  0  0  0  0  0
    0.2897    5.9639    1.3598 O   0  0  0  0  0  0  0  0  0  0  0  0
   -0.4308    7.9061    2.5637 C   0  0  0  0  0  0  0  0  0  0  0  0
   -0.7662    7.5260    4.1620 S   0  0  0  0  0  0  0  0  0  0  0  0
   -1.2749    9.1051    4.5144 C   0  0  0  0  0  0  0  0  0  0  0  0
   -1.8978    9.6770    6.2200 Br  0  0  0  0  0  0  0  0  0  0  0  0
   -1.1943    9.9137    3.3759 C   0  0  0  0  0  0  0  0  0  0  0  0
   -0.7094    9.1992    2.2750 C   0  0  0  0  0  0  0  0  0  0  0  0
   -0.4578    9.4746    0.8372 C   0  0  0  0  0  0  0  0  0  0  0  0
   -0.7467   10.6279    0.1826 C   0  0  0  0  0  0  0  0  0  0  0  0
   -1.2488   11.7865    0.8763 C   0  0  0  0  0  0  0  0  0  0  0  0
   -1.6549   12.7252    1.4160 N   0  0  0  0  0  0  0  0  0  0  0  0
   -0.6295   10.7746   -1.2440 C   0  0  0  0  0  0  0  0  0  0  0  0
   -0.5405   10.9094   -2.3896 N   0  0  0  0  0  0  0  0  0  0  0  0
    1.1163    6.6253   -1.3399 C   0  0  0  0  0  0  0  0  0  0  0  0
    0.4374    5.7101   -2.1286 C   0  0  0  0  0  0  0  0  0  0  0  0
    1.1215    4.4996   -2.2808 C   0  0  0  0  0  0  0  0  0  0  0  0
    0.4700    3.2946   -2.8202 C   0  0  0  0  0  0  0  0  0  0  0  0
    0.6429    2.9337   -4.1602 C   0  0  0  0  0  0  0  0  0  0  0  0
    0.1570    1.7083   -4.6383 C   0  0  0  0  0  0  0  0  0  0  0  0
   -0.5733    0.8689   -3.7668 C   0  0  0  0  0  0  0  0  0  0  0  0
   -0.7499    1.2239   -2.4110 C   0  0  0  0  0  0  0  0  0  0  0  0
   -1.4344    0.4048   -1.4950 O   0  0  0  0  0  0  0  0  0  0  0  0
   -2.1026   -0.8013   -1.8406 C   0  0  0  0  0  0  0  0  0  0  0  0
   -2.7048   -1.4367   -0.5902 C   0  0  0  0  0  0  0  0  0  0  0  0
   -0.2157    2.4324   -1.9482 C   0  0  0  0  0  0  0  0  0  0  0  0
    0.4378    1.3536   -5.9710 O   0  0  0  0  0  0  0  0  0  0  0  0
    0.1409    0.0858   -6.5502 C   0  0  0  0  0  0  0  0  0  0  0  0
    0.7951   -0.0101   -7.9208 C   0  0  0  0  0  0  0  0  0  0  0  0
    2.3653    4.4788   -1.6383 C   0  0  0  0  0  0  0  0  0  0  0  0
    2.5736    5.9463   -0.8325 S   0  0  0  0  0  0  0  0  0  0  0  0
    3.1654    3.2629   -1.4111 C   0  0  0  0  0  0  0  0  0  0  0  0
    3.4889    2.4242   -2.5050 C   0  0  0  0  0  0  0  0  0  0  0  0
    3.8260    1.0779   -2.2976 C   0  0  0  0  0  0  0  0  0  0  0  0
    3.8781    0.6025   -0.9835 C   0  0  0  0  0  0  0  0  0  0  0  0
    3.8415   -0.6957   -0.5825 N   0  0  0  0  0  0  0  0  0  0  0  0
    3.7134   -1.8727   -1.4487 C   0  0  0  0  0  0  0  0  0  0  0  0
    2.2419   -2.1659   -1.7452 C   0  0  0  0  0  0  0  0  0  0  0  0
    3.6071   -0.6483    0.7546 C   0  0  0  0  0  0  0  0  0  0  0  0
    3.5710    0.6688    1.2044 C   0  0  0  0  0  0  0  0  0  0  0  0
    3.7089    1.4613    0.0854 C   0  0  0  0  0  0  0  0  0  0  0  0
    3.3450    2.7999   -0.0932 C   0  0  0  0  0  0  0  0  0  0  0  0
    3.1686    1.0139    2.5023 C   0  0  0  0  0  0  0  0  0  0  0  0
    2.7140   -0.0410    3.3147 C   0  0  0  0  0  0  0  0  0  0  0  0
    2.6723   -1.3449    2.8336 C   0  0  0  0  0  0  0  0  0  0  0  0
    3.1529   -1.7010    1.5654 C   0  0  0  0  0  0  0  0  0  0  0  0
    1.8565   -2.0422    3.6922 C   0  0  0  0  0  0  0  0  0  0  0  0
    1.1989   -3.2526    3.4921 C   0  0  0  0  0  0  0  0  0  0  0  0
    0.1090   -3.5663    4.3240 C   0  0  0  0  0  0  0  0  0  0  0  0
   -0.2037   -2.7171    5.4157 C   0  0  0  0  0  0  0  0  0  0  0  0
    0.4866   -1.5032    5.6070 C   0  0  0  0  0  0  0  0  0  0  0  0
    1.4832   -1.1593    4.6886 C   0  0  0  0  0  0  0  0  0  0  0  0
    2.0268    0.0669    4.4791 N   0  0  0  0  0  0  0  0  0  0  0  0
    1.7755    1.3051    5.2254 C   0  0  0  0  0  0  0  0  0  0  0  0
    3.0201    1.7121    6.0090 C   0  0  0  0  0  0  0  0  0  0  0  0
   -0.8617   -4.5756    3.8443 C   0  0  0  0  0  0  0  0  0  0  0  0
   -0.4600   -5.8769    3.4349 C   0  0  0  0  0  0  0  0  0  0  0  0
    0.7977   -6.3135    3.6888 F   0  0  0  0  0  0  0  0  0  0  0  0
   -1.3447   -6.6980    2.6981 C   0  0  0  0  0  0  0  0  0  0  0  0
   -0.9279   -7.9193    2.2798 F   0  0  0  0  0  0  0  0  0  0  0  0
   -2.6288   -6.2211    2.3365 C   0  0  0  0  0  0  0  0  0  0  0  0
   -3.0160   -4.9854    2.8409 C   0  0  0  0  0  0  0  0  0  0  0  0
   -2.1814   -4.2010    3.5631 C   0  0  0  0  0  0  0  0  0  0  0  0
   -2.8061   -3.0415    3.8146 N   0  0  0  0  0  0  0  0  0  0  0  0
   -3.9865   -3.1799    3.2616 O   0  0  0  0  0  0  0  0  0  0  0  0
   -4.1664   -4.3253    2.6515 N   0  0  0  0  0  0  0  0  0  0  0  0
   -3.5195   -6.9639    1.4330 C   0  0  0  0  0  0  0  0  0  0  0  0
   -3.2563   -7.1435    0.1241 C   0  0  0  0  0  0  0  0  0  0  0  0
   -1.9806   -6.8487   -0.5416 C   0  0  0  0  0  0  0  0  0  0  0  0
   -1.0984   -6.0305   -0.1528 O   0  0  0  0  0  0  0  0  0  0  0  0
   -1.9292   -7.5950   -1.7756 C   0  0  0  0  0  0  0  0  0  0  0  0
   -0.8389   -7.7757   -2.6245 C   0  0  0  0  0  0  0  0  0  0  0  0
   -0.9793   -8.6421   -3.7105 C   0  0  0  0  0  0  0  0  0  0  0  0
   -2.2073   -9.3025   -3.9433 C   0  0  0  0  0  0  0  0  0  0  0  0
   -2.3542  -10.4105   -5.2967 Cl  0  0  0  0  0  0  0  0  0  0  0  0
   -3.2919   -9.1206   -3.0643 C   0  0  0  0  0  0  0  0  0  0  0  0
   -3.1459   -8.2370   -1.9838 C   0  0  0  0  0  0  0  0  0  0  0  0
   -4.0780   -7.9098   -0.8651 C   0  0  0  0  0  0  0  0  0  0  0  0
   -5.4290   -8.0673   -0.8620 C   0  0  0  0  0  0  0  0  0  0  0  0
   -6.1326   -8.7477   -1.9201 C   0  0  0  0  0  0  0  0  0  0  0  0
   -6.7114   -9.3036   -2.7561 N   0  0  0  0  0  0  0  0  0  0  0  0
   -6.2777   -7.5045    0.1597 C   0  0  0  0  0  0  0  0  0  0  0  0
   -6.9738   -7.0588    0.9724 N   0  0  0  0  0  0  0  0  0  0  0  0
    0.6332    8.6952   -1.6826 H   0  0  0  0  0  0  0  0  0  0  0  0
   -1.4828   10.9509    3.3808 H   0  0  0  0  0  0  0  0  0  0  0  0
   -0.5640    5.8803   -2.4992 H   0  0  0  0  0  0  0  0  0  0  0  0
    1.2119    3.5778   -4.8252 H   0  0  0  0  0  0  0  0  0  0  0  0
   -0.9651   -0.0707   -4.1303 H   0  0  0  0  0  0  0  0  0  0  0  0
   -2.9231   -0.5788   -2.5584 H   0  0  0  0  0  0  0  0  0  0  0  0
   -1.3886   -1.5187   -2.2963 H   0  0  0  0  0  0  0  0  0  0  0  0
   -1.8917   -1.7284    0.1192 H   0  0  0  0  0  0  0  0  0  0  0  0
   -3.2733   -2.3401   -0.8785 H   0  0  0  0  0  0  0  0  0  0  0  0
   -3.3833   -0.7216   -0.0793 H   0  0  0  0  0  0  0  0  0  0  0  0
   -0.3278    2.7008   -0.8989 H   0  0  0  0  0  0  0  0  0  0  0  0
   -0.9600   -0.0343   -6.6597 H   0  0  0  0  0  0  0  0  0  0  0  0
    0.5407   -0.7302   -5.9103 H   0  0  0  0  0  0  0  0  0  0  0  0
    0.5343   -0.9814   -8.3889 H   0  0  0  0  0  0  0  0  0  0  0  0
    0.4350    0.8168   -8.5703 H   0  0  0  0  0  0  0  0  0  0  0  0
    1.8982    0.0631   -7.8148 H   0  0  0  0  0  0  0  0  0  0  0  0
    3.3602    2.7790   -3.5207 H   0  0  0  0  0  0  0  0  0  0  0  0
    3.9475    0.4171   -3.1431 H   0  0  0  0  0  0  0  0  0  0  0  0
    4.2648   -1.7180   -2.3938 H   0  0  0  0  0  0  0  0  0  0  0  0
    4.1736   -2.7542   -0.9530 H   0  0  0  0  0  0  0  0  0  0  0  0
    1.7123   -1.2446   -2.0636 H   0  0  0  0  0  0  0  0  0  0  0  0
    2.1767   -2.9401   -2.5416 H   0  0  0  0  0  0  0  0  0  0  0  0
    1.7597   -2.5771   -0.8399 H   0  0  0  0  0  0  0  0  0  0  0  0
    3.0366    3.4106    0.7541 H   0  0  0  0  0  0  0  0  0  0  0  0
    3.0926    2.0491    2.8119 H   0  0  0  0  0  0  0  0  0  0  0  0
    3.0621   -2.7111    1.1884 H   0  0  0  0  0  0  0  0  0  0  0  0
    1.4051   -3.8501    2.6142 H   0  0  0  0  0  0  0  0  0  0  0  0
   -1.0466   -2.9457    6.0575 H   0  0  0  0  0  0  0  0  0  0  0  0
    0.1798   -0.8334    6.3975 H   0  0  0  0  0  0  0  0  0  0  0  0
    0.9251    1.1927    5.9301 H   0  0  0  0  0  0  0  0  0  0  0  0
    1.4995    2.1280    4.5237 H   0  0  0  0  0  0  0  0  0  0  0  0
    3.9104    1.6955    5.3475 H   0  0  0  0  0  0  0  0  0  0  0  0
    2.8882    2.7375    6.4213 H   0  0  0  0  0  0  0  0  0  0  0  0
    3.1910    0.9985    6.8390 H   0  0  0  0  0  0  0  0  0  0  0  0
   -4.4498   -7.3125    1.8675 H   0  0  0  0  0  0  0  0  0  0  0  0
    0.1009   -7.2748   -2.4334 H   0  0  0  0  0  0  0  0  0  0  0  0
   -0.1415   -8.7955   -4.3835 H   0  0  0  0  0  0  0  0  0  0  0  0
   -4.1880   -9.6998   -3.2187 H   0  0  0  0  0  0  0  0  0  0  0  0
  1  2  2  3
  2  3  1  0
  3  4  2  0
  3  5  1  0
  5  6  1  0
  6  7  1  0
  7  8  1  0
  7  9  2  0
  9 10  1  0
 10 11  1  0
 11 12  2  3
 12 13  1  0
 13 14  3  0
 12 15  1  0
 15 16  3  0
  1 17  1  0
 17 18  2  0
 18 19  1  0
 19 20  1  0
 20 21  2  0
 21 22  1  0
 22 23  2  0
 23 24  1  0
 24 25  1  0
 25 26  1  0
 26 27  1  0
 24 28  2  0
 22 29  1  0
 29 30  1  0
 30 31  1  0
 19 32  2  0
 32 33  1  0
 32 34  1  0
 34 35  2  0
 35 36  1  0
 36 37  2  0
 37 38  1  0
 38 39  1  0
 39 40  1  0
 38 41  1  0
 41 42  2  0
 42 43  1  0
 43 44  2  0
 42 45  1  0
 45 46  2  0
 46 47  1  0
 47 48  2  0
 47 49  1  0
 49 50  2  0
 50 51  1  0
 51 52  2  0
 52 53  1  0
 53 54  2  0
 54 55  1  0
 55 56  1  0
 56 57  1  0
 51 58  1  0
 58 59  2  0
 59 60  1  0
 59 61  1  0
 61 62  1  0
 61 63  2  0
 63 64  1  0
 64 65  1  0
 65 66  2  0
 66 67  1  0
 67 68  1  0
 63 69  1  0
 69 70  2  3
 70 71  1  0
 71 72  2  0
 71 73  1  0
 73 74  2  0
 74 75  1  0
 75 76  2  0
 76 77  1  0
 76 78  1  0
 78 79  2  0
 79 80  1  0
 80 81  2  3
 81 82  1  0
 82 83  3  0
 81 84  1  0
 84 85  3  0
 11  2  1  0
 33 17  1  0
 44 34  1  0
 55 46  1  0
 65 58  1  0
 80 70  1  0
 10  5  2  0
 28 20  1  0
 43 37  1  0
 54 49  1  0
 68 64  2  0
 79 73  1  0
 48 41  1  0
  1 86  1  0
  9 87  1  0
 18 88  1  0
 21 89  1  0
 23 90  1  0
 26 91  1  0
 26 92  1  0
 27 93  1  0
 27 94  1  0
 27 95  1  0
 28 96  1  0
 30 97  1  0
 30 98  1  0
 31 99  1  0
 31100  1  0
 31101  1  0
 35102  1  0
 36103  1  0
 39104  1  0
 39105  1  0
 40106  1  0
 40107  1  0
 40108  1  0
 44109  1  0
 45110  1  0
 48111  1  0
 50112  1  0
 52113  1  0
 53114  1  0
 56115  1  0
 56116  1  0
 57117  1  0
 57118  1  0
 57119  1  0
 69120  1  0
 74121  1  0
 75122  1  0
 78123  1  0
M  END

