
     RDKit          3D

243268  0  0  0  0  0  0  0  0999 V2000
   -5.6188  -11.6776   -0.8130 C   0  0  0  0  0  0  0  0  0  0  0  0
   -5.6072  -12.8006   -0.0736 C   0  0  0  0  0  0  0  0  0  0  0  0
   -4.6185  -13.1118    0.9788 C   0  0  0  0  0  0  0  0  0  0  0  0
   -3.4908  -12.5787    1.1604 O   0  0  0  0  0  0  0  0  0  0  0  0
   -5.1962  -14.1503    1.7919 C   0  0  0  0  0  0  0  0  0  0  0  0
   -4.7653  -14.9930    3.1710 S   0  0  0  0  0  0  0  0  0  0  0  0
   -6.1990  -15.9054    3.1595 C   0  0  0  0  0  0  0  0  0  0  0  0
   -6.6132  -17.2698    4.4220 Br  0  0  0  0  0  0  0  0  0  0  0  0
   -7.0044  -15.5472    2.0762 C   0  0  0  0  0  0  0  0  0  0  0  0
   -6.4058  -14.5395    1.3187 C   0  0  0  0  0  0  0  0  0  0  0  0
   -6.7223  -13.7949    0.0772 C   0  0  0  0  0  0  0  0  0  0  0  0
   -7.7072  -14.0850   -0.8046 C   0  0  0  0  0  0  0  0  0  0  0  0
   -7.7703  -13.4856   -2.1093 C   0  0  0  0  0  0  0  0  0  0  0  0
   -7.8239  -13.0093   -3.1635 N   0  0  0  0  0  0  0  0  0  0  0  0
   -8.6996  -15.0850   -0.5211 C   0  0  0  0  0  0  0  0  0  0  0  0
   -9.5103  -15.8831   -0.2929 N   0  0  0  0  0  0  0  0  0  0  0  0
   -4.5343  -10.6878   -0.7351 C   0  0  0  0  0  0  0  0  0  0  0  0
   -4.5351   -9.5366    0.0614 C   0  0  0  0  0  0  0  0  0  0  0  0
   -5.7014   -9.0090    0.7154 N   0  0  0  0  0  0  0  0  0  0  0  0
   -5.7052   -8.8178    2.1453 C   0  0  0  0  0  0  0  0  0  0  0  0
   -5.0642   -9.7421    2.9861 C   0  0  0  0  0  0  0  0  0  0  0  0
   -5.0937   -9.5778    4.3760 C   0  0  0  0  0  0  0  0  0  0  0  0
   -5.7486   -8.4732    4.9452 C   0  0  0  0  0  0  0  0  0  0  0  0
   -5.7896   -8.2945    6.4348 C   0  0  0  0  0  0  0  0  0  0  0  0
   -6.3934   -7.5537    4.1092 C   0  0  0  0  0  0  0  0  0  0  0  0
   -6.3648   -7.7156    2.7197 C   0  0  0  0  0  0  0  0  0  0  0  0
   -6.8505   -8.6827   -0.0919 C   0  0  0  0  0  0  0  0  0  0  0  0
   -8.1426   -9.0447    0.3238 C   0  0  0  0  0  0  0  0  0  0  0  0
   -9.2507   -8.7693   -0.4871 C   0  0  0  0  0  0  0  0  0  0  0  0
   -9.0823   -8.1432   -1.7310 C   0  0  0  0  0  0  0  0  0  0  0  0
  -10.2648   -7.8298   -2.5986 C   0  0  0  0  0  0  0  0  0  0  0  0
   -7.7958   -7.7683   -2.1430 C   0  0  0  0  0  0  0  0  0  0  0  0
   -6.6884   -8.0406   -1.3324 C   0  0  0  0  0  0  0  0  0  0  0  0
   -3.3214   -8.8573   -0.0359 C   0  0  0  0  0  0  0  0  0  0  0  0
   -2.7719   -7.3697    0.5008 S   0  0  0  0  0  0  0  0  0  0  0  0
   -1.3082   -7.4481   -0.3772 C   0  0  0  0  0  0  0  0  0  0  0  0
   -1.2796   -8.6374   -1.1349 C   0  0  0  0  0  0  0  0  0  0  0  0
   -0.3646   -8.9155   -2.2180 N   0  0  0  0  0  0  0  0  0  0  0  0
   -0.0295   -7.8756   -3.1691 C   0  0  0  0  0  0  0  0  0  0  0  0
    1.2535   -7.8168   -3.7364 C   0  0  0  0  0  0  0  0  0  0  0  0
    1.6479   -6.6988   -4.4831 C   0  0  0  0  0  0  0  0  0  0  0  0
    0.7487   -5.6487   -4.7117 C   0  0  0  0  0  0  0  0  0  0  0  0
    1.2164   -4.3874   -5.3760 C   0  0  0  0  0  0  0  0  0  0  0  0
   -0.5658   -5.7523   -4.2351 C   0  0  0  0  0  0  0  0  0  0  0  0
   -0.9572   -6.8682   -3.4912 C   0  0  0  0  0  0  0  0  0  0  0  0
    0.0775  -10.2757   -2.4177 C   0  0  0  0  0  0  0  0  0  0  0  0
    0.4318  -11.0769   -1.3194 C   0  0  0  0  0  0  0  0  0  0  0  0
    0.7095  -12.4378   -1.4951 C   0  0  0  0  0  0  0  0  0  0  0  0
    0.6281  -13.0189   -2.7693 C   0  0  0  0  0  0  0  0  0  0  0  0
    0.8619  -14.4898   -2.9656 C   0  0  0  0  0  0  0  0  0  0  0  0
    0.3014  -12.2180   -3.8719 C   0  0  0  0  0  0  0  0  0  0  0  0
    0.0276  -10.8550   -3.6970 C   0  0  0  0  0  0  0  0  0  0  0  0
   -2.4190   -9.4100   -0.8882 C   0  0  0  0  0  0  0  0  0  0  0  0
   -3.0582  -10.8054   -1.5704 S   0  0  0  0  0  0  0  0  0  0  0  0
   -0.3411   -6.3371   -0.4385 C   0  0  0  0  0  0  0  0  0  0  0  0
    1.0595   -6.4178   -0.2454 C   0  0  0  0  0  0  0  0  0  0  0  0
    1.7386   -7.5990    0.3558 C   0  0  0  0  0  0  0  0  0  0  0  0
    1.1434   -8.1577    1.5055 C   0  0  0  0  0  0  0  0  0  0  0  0
    1.6590   -9.3082    2.0995 C   0  0  0  0  0  0  0  0  0  0  0  0
    2.7930   -9.9181    1.5685 C   0  0  0  0  0  0  0  0  0  0  0  0
    3.4191   -9.3739    0.4492 C   0  0  0  0  0  0  0  0  0  0  0  0
    2.9190   -8.2092   -0.1664 C   0  0  0  0  0  0  0  0  0  0  0  0
    3.6490   -7.7128   -1.3929 C   0  0  0  0  0  0  0  0  0  0  0  0
    5.0729   -7.2535   -1.0539 C   0  0  0  0  0  0  0  0  0  0  0  0
    1.6415   -5.1513   -0.4502 C   0  0  0  0  0  0  0  0  0  0  0  0
    3.2316   -4.5256   -0.3744 S   0  0  0  0  0  0  0  0  0  0  0  0
    2.6963   -2.9817   -0.8202 C   0  0  0  0  0  0  0  0  0  0  0  0
    3.2094   -1.7847   -1.2324 C   0  0  0  0  0  0  0  0  0  0  0  0
    4.5217   -1.3865   -1.5057 C   0  0  0  0  0  0  0  0  0  0  0  0
    4.7391   -0.1026   -2.0899 C   0  0  0  0  0  0  0  0  0  0  0  0
    6.0248    0.2567   -2.3287 N   0  0  0  0  0  0  0  0  0  0  0  0
    6.7981   -1.1151   -1.8070 S   0  0  0  0  0  0  0  0  0  0  0  0
    5.6175   -2.1506   -1.2721 N   0  0  0  0  0  0  0  0  0  0  0  0
    3.6294    0.7204   -2.3416 C   0  0  0  0  0  0  0  0  0  0  0  0
    3.5784    2.0677   -2.5690 C   0  0  0  0  0  0  0  0  0  0  0  0
    4.7064    3.3353   -2.5191 S   0  0  0  0  0  0  0  0  0  0  0  0
    3.4885    4.4625   -2.1425 C   0  0  0  0  0  0  0  0  0  0  0  0
    3.5386    5.7884   -1.6850 C   0  0  0  0  0  0  0  0  0  0  0  0
    4.7942    6.5523   -1.5747 C   0  0  0  0  0  0  0  0  0  0  0  0
    5.7331    6.3087   -0.5385 C   0  0  0  0  0  0  0  0  0  0  0  0
    5.5336    5.2303    0.5060 C   0  0  0  0  0  0  0  0  0  0  0  0
    5.0223    5.8017    1.8257 C   0  0  0  0  0  0  0  0  0  0  0  0
    6.8789    7.1191   -0.4483 C   0  0  0  0  0  0  0  0  0  0  0  0
    7.0954    8.1464   -1.3741 C   0  0  0  0  0  0  0  0  0  0  0  0
    6.1708    8.3803   -2.3928 C   0  0  0  0  0  0  0  0  0  0  0  0
    5.0249    7.5905   -2.4952 C   0  0  0  0  0  0  0  0  0  0  0  0
    2.2809    6.2168   -1.1967 C   0  0  0  0  0  0  0  0  0  0  0  0
    1.2030    4.8995   -1.2902 S   0  0  0  0  0  0  0  0  0  0  0  0
    2.2763    3.8400   -2.0089 C   0  0  0  0  0  0  0  0  0  0  0  0
    2.3185    2.4712   -2.2644 C   0  0  0  0  0  0  0  0  0  0  0  0
    1.5139    1.4395   -1.8938 N   0  0  0  0  0  0  0  0  0  0  0  0
    2.3185    0.3315   -2.0128 C   0  0  0  0  0  0  0  0  0  0  0  0
    2.0963   -0.9961   -1.5642 C   0  0  0  0  0  0  0  0  0  0  0  0
    0.9377   -1.7409   -1.5098 N   0  0  0  0  0  0  0  0  0  0  0  0
    1.3619   -2.9270   -1.0005 C   0  0  0  0  0  0  0  0  0  0  0  0
    0.7577   -4.1582   -0.7996 C   0  0  0  0  0  0  0  0  0  0  0  0
   -0.8043   -4.7496   -0.8345 S   0  0  0  0  0  0  0  0  0  0  0  0
   -0.3059   -1.5980   -2.2852 C   0  0  0  0  0  0  0  0  0  0  0  0
   -0.0794   -0.9760   -3.6667 C   0  0  0  0  0  0  0  0  0  0  0  0
    0.3176    1.5823   -1.0572 C   0  0  0  0  0  0  0  0  0  0  0  0
    0.6246    1.3210    0.4186 C   0  0  0  0  0  0  0  0  0  0  0  0
    1.9829    7.4678   -0.4525 C   0  0  0  0  0  0  0  0  0  0  0  0
    0.7395    7.7977    0.1338 C   0  0  0  0  0  0  0  0  0  0  0  0
   -0.5378    7.3484   -0.3529 N   0  0  0  0  0  0  0  0  0  0  0  0
   -0.8154    7.3926   -1.7701 C   0  0  0  0  0  0  0  0  0  0  0  0
   -0.2672    8.4067   -2.5746 C   0  0  0  0  0  0  0  0  0  0  0  0
   -0.4119    8.3674   -3.9656 C   0  0  0  0  0  0  0  0  0  0  0  0
   -1.1245    7.3240   -4.5742 C   0  0  0  0  0  0  0  0  0  0  0  0
   -1.1893    7.2242   -6.0656 C   0  0  0  0  0  0  0  0  0  0  0  0
   -1.7030    6.3295   -3.7713 C   0  0  0  0  0  0  0  0  0  0  0  0
   -1.5655    6.3725   -2.3798 C   0  0  0  0  0  0  0  0  0  0  0  0
   -1.5774    6.9986    0.5828 C   0  0  0  0  0  0  0  0  0  0  0  0
   -2.8595    7.5631    0.4635 C   0  0  0  0  0  0  0  0  0  0  0  0
   -3.8615    7.2564    1.3935 C   0  0  0  0  0  0  0  0  0  0  0  0
   -3.5950    6.3673    2.4458 C   0  0  0  0  0  0  0  0  0  0  0  0
   -4.6587    6.0277    3.4455 C   0  0  0  0  0  0  0  0  0  0  0  0
   -2.3132    5.8055    2.5672 C   0  0  0  0  0  0  0  0  0  0  0  0
   -1.3135    6.1191    1.6433 C   0  0  0  0  0  0  0  0  0  0  0  0
    0.8793    8.8156    1.0793 C   0  0  0  0  0  0  0  0  0  0  0  0
   -0.1169    9.4815    2.2622 S   0  0  0  0  0  0  0  0  0  0  0  0
    1.1106   10.4758    2.9014 C   0  0  0  0  0  0  0  0  0  0  0  0
    2.2911   10.3046    2.1600 C   0  0  0  0  0  0  0  0  0  0  0  0
    3.4616   11.1293    2.2898 N   0  0  0  0  0  0  0  0  0  0  0  0
    3.6015   12.3262    1.4846 C   0  0  0  0  0  0  0  0  0  0  0  0
    2.4676   12.9773    0.9519 C   0  0  0  0  0  0  0  0  0  0  0  0
    2.6035   14.1467    0.1960 C   0  0  0  0  0  0  0  0  0  0  0  0
    3.8692   14.6941   -0.0421 C   0  0  0  0  0  0  0  0  0  0  0  0
    3.9982   15.9340   -0.8744 C   0  0  0  0  0  0  0  0  0  0  0  0
    5.0044   14.0485    0.4707 C   0  0  0  0  0  0  0  0  0  0  0  0
    4.8723   12.8753    1.2228 C   0  0  0  0  0  0  0  0  0  0  0  0
    4.4698   10.7696    3.2487 C   0  0  0  0  0  0  0  0  0  0  0  0
    5.1728    9.5592    3.1315 C   0  0  0  0  0  0  0  0  0  0  0  0
    6.2125    9.2564    4.0206 C   0  0  0  0  0  0  0  0  0  0  0  0
    6.5645   10.1657    5.0303 C   0  0  0  0  0  0  0  0  0  0  0  0
    7.6745    9.8410    5.9857 C   0  0  0  0  0  0  0  0  0  0  0  0
    5.8320   11.3536    5.1733 C   0  0  0  0  0  0  0  0  0  0  0  0
    4.8033   11.6618    4.2792 C   0  0  0  0  0  0  0  0  0  0  0  0
    2.1210    9.3492    1.1686 C   0  0  0  0  0  0  0  0  0  0  0  0
    3.1600    8.5646    0.1281 S   0  0  0  0  0  0  0  0  0  0  0  0
    1.0217   11.1982    4.1796 C   0  0  0  0  0  0  0  0  0  0  0  0
    1.6398   10.7396    5.2915 C   0  0  0  0  0  0  0  0  0  0  0  0
    2.3416    9.4401    5.3860 C   0  0  0  0  0  0  0  0  0  0  0  0
    2.2738    8.4711    4.5861 O   0  0  0  0  0  0  0  0  0  0  0  0
    3.1085    9.4594    6.6020 C   0  0  0  0  0  0  0  0  0  0  0  0
    4.2841    8.4969    7.2956 S   0  0  0  0  0  0  0  0  0  0  0  0
    4.5484    9.6065    8.5587 C   0  0  0  0  0  0  0  0  0  0  0  0
    5.8660    9.3789    9.9130 Br  0  0  0  0  0  0  0  0  0  0  0  0
    3.7233   10.7309    8.4160 C   0  0  0  0  0  0  0  0  0  0  0  0
    2.9116   10.6144    7.2841 C   0  0  0  0  0  0  0  0  0  0  0  0
    1.9273   11.4763    6.5747 C   0  0  0  0  0  0  0  0  0  0  0  0
    1.4304   12.6551    7.0228 C   0  0  0  0  0  0  0  0  0  0  0  0
    0.4434   13.4127    6.3055 C   0  0  0  0  0  0  0  0  0  0  0  0
   -0.3556   14.0319    5.7421 N   0  0  0  0  0  0  0  0  0  0  0  0
    1.8697   13.2407    8.2646 C   0  0  0  0  0  0  0  0  0  0  0  0
    2.2110   13.7290    9.2583 N   0  0  0  0  0  0  0  0  0  0  0  0
   -6.4811  -11.4056   -1.4006 H   0  0  0  0  0  0  0  0  0  0  0  0
   -7.9658  -15.9949    1.8790 H   0  0  0  0  0  0  0  0  0  0  0  0
   -4.5695  -10.6106    2.5731 H   0  0  0  0  0  0  0  0  0  0  0  0
   -4.6143  -10.3202    5.0063 H   0  0  0  0  0  0  0  0  0  0  0  0
   -5.1039   -8.9990    6.9517 H   0  0  0  0  0  0  0  0  0  0  0  0
   -6.8214   -8.4698    6.8031 H   0  0  0  0  0  0  0  0  0  0  0  0
   -5.4814   -7.2609    6.6959 H   0  0  0  0  0  0  0  0  0  0  0  0
   -6.9214   -6.7091    4.5373 H   0  0  0  0  0  0  0  0  0  0  0  0
   -6.8526   -6.9792    2.0920 H   0  0  0  0  0  0  0  0  0  0  0  0
   -8.2969   -9.5478    1.2706 H   0  0  0  0  0  0  0  0  0  0  0  0
  -10.2451   -9.0465   -0.1482 H   0  0  0  0  0  0  0  0  0  0  0  0
  -10.4969   -6.7458   -2.5345 H   0  0  0  0  0  0  0  0  0  0  0  0
  -11.1611   -8.4041   -2.2817 H   0  0  0  0  0  0  0  0  0  0  0  0
  -10.0450   -8.0903   -3.6568 H   0  0  0  0  0  0  0  0  0  0  0  0
   -7.6469   -7.2697   -3.0912 H   0  0  0  0  0  0  0  0  0  0  0  0
   -5.7034   -7.7409   -1.6634 H   0  0  0  0  0  0  0  0  0  0  0  0
    1.9676   -8.6097   -3.5613 H   0  0  0  0  0  0  0  0  0  0  0  0
    2.6623   -6.6410   -4.8553 H   0  0  0  0  0  0  0  0  0  0  0  0
    1.8420   -4.6271   -6.2597 H   0  0  0  0  0  0  0  0  0  0  0  0
    0.3575   -3.7690   -5.7099 H   0  0  0  0  0  0  0  0  0  0  0  0
    1.8154   -3.7960   -4.6528 H   0  0  0  0  0  0  0  0  0  0  0  0
   -1.2788   -4.9565   -4.4097 H   0  0  0  0  0  0  0  0  0  0  0  0
   -1.9680   -6.9161   -3.1130 H   0  0  0  0  0  0  0  0  0  0  0  0
    0.4663  -10.6540   -0.3238 H   0  0  0  0  0  0  0  0  0  0  0  0
    0.9578  -13.0401   -0.6299 H   0  0  0  0  0  0  0  0  0  0  0  0
    1.7636  -14.6466   -3.5923 H   0  0  0  0  0  0  0  0  0  0  0  0
    1.0057  -15.0082   -1.9932 H   0  0  0  0  0  0  0  0  0  0  0  0
   -0.0142  -14.9420   -3.4749 H   0  0  0  0  0  0  0  0  0  0  0  0
    0.2121  -12.6523   -4.8619 H   0  0  0  0  0  0  0  0  0  0  0  0
   -0.2792  -10.2659   -4.5519 H   0  0  0  0  0  0  0  0  0  0  0  0
    0.2631   -7.7068    1.9430 H   0  0  0  0  0  0  0  0  0  0  0  0
    1.1796   -9.7355    2.9738 H   0  0  0  0  0  0  0  0  0  0  0  0
    3.1858  -10.8125    2.0332 H   0  0  0  0  0  0  0  0  0  0  0  0
    4.2994   -9.8689    0.0560 H   0  0  0  0  0  0  0  0  0  0  0  0
    3.1114   -6.8860   -1.9011 H   0  0  0  0  0  0  0  0  0  0  0  0
    3.7290   -8.5419   -2.1245 H   0  0  0  0  0  0  0  0  0  0  0  0
    5.0865   -6.6424   -0.1283 H   0  0  0  0  0  0  0  0  0  0  0  0
    5.7351   -8.1316   -0.9121 H   0  0  0  0  0  0  0  0  0  0  0  0
    5.4737   -6.6454   -1.8939 H   0  0  0  0  0  0  0  0  0  0  0  0
    6.5027    4.7139    0.6935 H   0  0  0  0  0  0  0  0  0  0  0  0
    4.8259    4.4462    0.1711 H   0  0  0  0  0  0  0  0  0  0  0  0
    4.9253    4.9771    2.5646 H   0  0  0  0  0  0  0  0  0  0  0  0
    5.7417    6.5431    2.2289 H   0  0  0  0  0  0  0  0  0  0  0  0
    4.0228    6.2762    1.6981 H   0  0  0  0  0  0  0  0  0  0  0  0
    7.6037    6.9592    0.3403 H   0  0  0  0  0  0  0  0  0  0  0  0
    7.9857    8.7593   -1.3039 H   0  0  0  0  0  0  0  0  0  0  0  0
    6.3477    9.1751   -3.1037 H   0  0  0  0  0  0  0  0  0  0  0  0
    4.3081    7.7906   -3.2851 H   0  0  0  0  0  0  0  0  0  0  0  0
   -0.7417   -2.5978   -2.4832 H   0  0  0  0  0  0  0  0  0  0  0  0
   -1.0788   -1.0581   -1.7030 H   0  0  0  0  0  0  0  0  0  0  0  0
   -0.0538    0.1289   -3.6043 H   0  0  0  0  0  0  0  0  0  0  0  0
    0.8666   -1.3427   -4.1156 H   0  0  0  0  0  0  0  0  0  0  0  0
   -0.9165   -1.2509   -4.3409 H   0  0  0  0  0  0  0  0  0  0  0  0
   -0.1106    2.5949   -1.1640 H   0  0  0  0  0  0  0  0  0  0  0  0
   -0.4887    0.9307   -1.4046 H   0  0  0  0  0  0  0  0  0  0  0  0
    0.7479    0.2326    0.5980 H   0  0  0  0  0  0  0  0  0  0  0  0
    1.5562    1.8452    0.7162 H   0  0  0  0  0  0  0  0  0  0  0  0
   -0.2152    1.6811    1.0482 H   0  0  0  0  0  0  0  0  0  0  0  0
    0.2989    9.2170   -2.1287 H   0  0  0  0  0  0  0  0  0  0  0  0
    0.0482    9.1408   -4.5690 H   0  0  0  0  0  0  0  0  0  0  0  0
   -2.1709    6.8184   -6.3841 H   0  0  0  0  0  0  0  0  0  0  0  0
   -0.3815    6.5548   -6.4278 H   0  0  0  0  0  0  0  0  0  0  0  0
   -1.0588    8.2215   -6.5346 H   0  0  0  0  0  0  0  0  0  0  0  0
   -2.2440    5.5075   -4.2225 H   0  0  0  0  0  0  0  0  0  0  0  0
   -1.9908    5.5774   -1.7805 H   0  0  0  0  0  0  0  0  0  0  0  0
   -3.0706    8.2645   -0.3348 H   0  0  0  0  0  0  0  0  0  0  0  0
   -4.8338    7.7250    1.2936 H   0  0  0  0  0  0  0  0  0  0  0  0
   -4.7389    4.9236    3.5488 H   0  0  0  0  0  0  0  0  0  0  0  0
   -4.3976    6.4644    4.4341 H   0  0  0  0  0  0  0  0  0  0  0  0
   -5.6493    6.4182    3.1332 H   0  0  0  0  0  0  0  0  0  0  0  0
   -2.0948    5.1239    3.3771 H   0  0  0  0  0  0  0  0  0  0  0  0
   -0.3316    5.6722    1.7488 H   0  0  0  0  0  0  0  0  0  0  0  0
    1.4735   12.5862    1.1193 H   0  0  0  0  0  0  0  0  0  0  0  0
    1.7207   14.6263   -0.2051 H   0  0  0  0  0  0  0  0  0  0  0  0
    3.3023   16.7167   -0.4979 H   0  0  0  0  0  0  0  0  0  0  0  0
    5.0299   16.3442   -0.8431 H   0  0  0  0  0  0  0  0  0  0  0  0
    3.7394   15.6958   -1.9283 H   0  0  0  0  0  0  0  0  0  0  0  0
    5.9920   14.4545    0.2857 H   0  0  0  0  0  0  0  0  0  0  0  0
    5.7680   12.3998    1.5985 H   0  0  0  0  0  0  0  0  0  0  0  0
    4.9343    8.8612    2.3423 H   0  0  0  0  0  0  0  0  0  0  0  0
    6.7487    8.3218    3.9091 H   0  0  0  0  0  0  0  0  0  0  0  0
    8.1262   10.7679    6.3914 H   0  0  0  0  0  0  0  0  0  0  0  0
    8.4696    9.2659    5.4674 H   0  0  0  0  0  0  0  0  0  0  0  0
    7.2820    9.2358    6.8300 H   0  0  0  0  0  0  0  0  0  0  0  0
    6.0748   12.0522    5.9696 H   0  0  0  0  0  0  0  0  0  0  0  0
    4.2647   12.5946    4.3913 H   0  0  0  0  0  0  0  0  0  0  0  0
    0.5201   12.1477    4.1545 H   0  0  0  0  0  0  0  0  0  0  0  0
    3.7556   11.5790    9.0766 H   0  0  0  0  0  0  0  0  0  0  0  0
  1  2  2  3
  2  3  1  0
  3  4  2  0
  3  5  1  0
  5  6  1  0
  6  7  1  0
  7  8  1  0
  7  9  2  0
  9 10  1  0
 10 11  1  0
 11 12  2  3
 12 13  1  0
 13 14  3  0
 12 15  1  0
 15 16  3  0
  1 17  1  0
 17 18  2  0
 18 19  1  0
 19 20  1  0
 20 21  2  0
 21 22  1  0
 22 23  2  0
 23 24  1  0
 23 25  1  0
 25 26  2  0
 19 27  1  0
 27 28  2  0
 28 29  1  0
 29 30  2  0
 30 31  1  0
 30 32  1  0
 32 33  2  0
 18 34  1  0
 34 35  1  0
 35 36  1  0
 36 37  2  0
 37 38  1  0
 38 39  1  0
 39 40  2  0
 40 41  1  0
 41 42  2  0
 42 43  1  0
 42 44  1  0
 44 45  2  0
 38 46  1  0
 46 47  2  0
 47 48  1  0
 48 49  2  0
 49 50  1  0
 49 51  1  0
 51 52  2  0
 37 53  1  0
 53 54  1  0
 36 55  1  0
 55 56  2  0
 56 57  1  0
 57 58  2  0
 58 59  1  0
 59 60  2  0
 60 61  1  0
 61 62  2  0
 62 63  1  0
 63 64  1  0
 56 65  1  0
 65 66  1  0
 66 67  1  0
 67 68  1  0
 68 69  1  0
 69 70  1  0
 70 71  2  0
 71 72  1  0
 72 73  1  0
 70 74  1  0
 74 75  1  0
 75 76  1  0
 76 77  1  0
 77 78  1  0
 78 79  1  0
 79 80  2  0
 80 81  1  0
 81 82  1  0
 80 83  1  0
 83 84  2  0
 84 85  1  0
 85 86  2  0
 78 87  2  0
 87 88  1  0
 88 89  1  0
 89 90  1  0
 90 91  1  0
 91 92  1  0
 92 93  1  0
 93 94  1  0
 94 95  1  0
 95 96  1  0
 96 97  1  0
 94 98  1  0
 98 99  1  0
 91100  1  0
100101  1  0
 87102  1  0
102103  2  0
103104  1  0
104105  1  0
105106  2  0
106107  1  0
107108  2  0
108109  1  0
108110  1  0
110111  2  0
104112  1  0
112113  2  0
113114  1  0
114115  2  0
115116  1  0
115117  1  0
117118  2  0
103119  1  0
119120  1  0
120121  1  0
121122  2  0
122123  1  0
123124  1  0
124125  2  0
125126  1  0
126127  2  0
127128  1  0
127129  1  0
129130  2  0
123131  1  0
131132  2  0
132133  1  0
133134  2  0
134135  1  0
134136  1  0
136137  2  0
122138  1  0
138139  1  0
121140  1  0
140141  2  3
141142  1  0
142143  2  0
142144  1  0
144145  1  0
145146  1  0
146147  1  0
146148  2  0
148149  1  0
149150  1  0
150151  2  3
151152  1  0
152153  3  0
151154  1  0
154155  3  0
 11  2  1  0
 54 17  1  0
 97 55  1  0
139102  1  0
150141  1  0
 10  5  2  0
 26 20  1  0
 33 27  1  0
 53 34  2  0
 62 57  1  0
 96 65  2  0
111105  1  0
118112  1  0
138119  2  0
149144  2  0
 45 39  1  0
 52 46  1  0
 95 67  2  0
130124  1  0
137131  1  0
 93 68  2  0
 73 69  2  0
 92 74  2  0
 90 75  2  0
 89 77  2  0
 86 79  1  0
  1156  1  0
  9157  1  0
 21158  1  0
 22159  1  0
 24160  1  0
 24161  1  0
 24162  1  0
 25163  1  0
 26164  1  0
 28165  1  0
 29166  1  0
 31167  1  0
 31168  1  0
 31169  1  0
 32170  1  0
 33171  1  0
 40172  1  0
 41173  1  0
 43174  1  0
 43175  1  0
 43176  1  0
 44177  1  0
 45178  1  0
 47179  1  0
 48180  1  0
 50181  1  0
 50182  1  0
 50183  1  0
 51184  1  0
 52185  1  0
 58186  1  0
 59187  1  0
 60188  1  0
 61189  1  0
 63190  1  0
 63191  1  0
 64192  1  0
 64193  1  0
 64194  1  0
 81195  1  0
 81196  1  0
 82197  1  0
 82198  1  0
 82199  1  0
 83200  1  0
 84201  1  0
 85202  1  0
 86203  1  0
 98204  1  0
 98205  1  0
 99206  1  0
 99207  1  0
 99208  1  0
100209  1  0
100210  1  0
101211  1  0
101212  1  0
101213  1  0
106214  1  0
107215  1  0
109216  1  0
109217  1  0
109218  1  0
110219  1  0
111220  1  0
113221  1  0
114222  1  0
116223  1  0
116224  1  0
116225  1  0
117226  1  0
118227  1  0
125228  1  0
126229  1  0
128230  1  0
128231  1  0
128232  1  0
129233  1  0
130234  1  0
132235  1  0
133236  1  0
135237  1  0
135238  1  0
135239  1  0
136240  1  0
137241  1  0
140242  1  0
148243  1  0
M  END

