
     RDKit          3D

133146  0  0  0  0  0  0  0  0999 V2000
    5.3590   -5.1134   -0.4931 C   0  0  0  0  0  0  0  0  0  0  0  0
    5.2200   -3.8151   -0.1614 C   0  0  0  0  0  0  0  0  0  0  0  0
    4.0459   -2.9692   -0.4096 C   0  0  0  0  0  0  0  0  0  0  0  0
    3.1569   -3.1512   -1.2782 O   0  0  0  0  0  0  0  0  0  0  0  0
    4.0767   -1.8616    0.5204 C   0  0  0  0  0  0  0  0  0  0  0  0
    3.1062   -0.8812    0.7287 C   0  0  0  0  0  0  0  0  0  0  0  0
    3.3159    0.0552    1.7502 C   0  0  0  0  0  0  0  0  0  0  0  0
    2.1442    1.3278    2.0267 Cl  0  0  0  0  0  0  0  0  0  0  0  0
    4.4694   -0.0219    2.5533 C   0  0  0  0  0  0  0  0  0  0  0  0
    5.4304   -1.0219    2.3271 C   0  0  0  0  0  0  0  0  0  0  0  0
    5.2331   -1.9257    1.2736 C   0  0  0  0  0  0  0  0  0  0  0  0
    6.0715   -3.0618    0.8049 C   0  0  0  0  0  0  0  0  0  0  0  0
    7.4131   -3.1971    0.9624 C   0  0  0  0  0  0  0  0  0  0  0  0
    8.1789   -4.1360    0.1841 C   0  0  0  0  0  0  0  0  0  0  0  0
    8.8031   -4.8804   -0.4468 N   0  0  0  0  0  0  0  0  0  0  0  0
    8.1897   -2.2817    1.7571 C   0  0  0  0  0  0  0  0  0  0  0  0
    8.8296   -1.5531    2.3894 N   0  0  0  0  0  0  0  0  0  0  0  0
    4.4129   -5.8548   -1.3530 C   0  0  0  0  0  0  0  0  0  0  0  0
    4.4104   -7.1921   -1.3893 C   0  0  0  0  0  0  0  0  0  0  0  0
    3.4648   -7.9548   -2.2301 C   0  0  0  0  0  0  0  0  0  0  0  0
    2.1478   -7.7013   -2.3200 C   0  0  0  0  0  0  0  0  0  0  0  0
    1.4477   -6.7214   -1.4777 C   0  0  0  0  0  0  0  0  0  0  0  0
    1.2248   -6.8292   -0.0955 C   0  0  0  0  0  0  0  0  0  0  0  0
    1.5814   -7.9820    0.7410 C   0  0  0  0  0  0  0  0  0  0  0  0
    2.7973   -8.0099    1.4344 C   0  0  0  0  0  0  0  0  0  0  0  0
    3.1034   -9.0873    2.2711 C   0  0  0  0  0  0  0  0  0  0  0  0
    2.1798  -10.1229    2.4427 C   0  0  0  0  0  0  0  0  0  0  0  0
    0.9394  -10.0855    1.7834 C   0  0  0  0  0  0  0  0  0  0  0  0
   -0.0686  -11.1867    1.9798 C   0  0  0  0  0  0  0  0  0  0  0  0
   -0.0892  -12.1289    0.7807 C   0  0  0  0  0  0  0  0  0  0  0  0
    0.6521   -9.0160    0.9218 C   0  0  0  0  0  0  0  0  0  0  0  0
    0.5154   -5.7346    0.3828 C   0  0  0  0  0  0  0  0  0  0  0  0
    0.0619   -5.2595    1.9487 S   0  0  0  0  0  0  0  0  0  0  0  0
   -0.6042   -3.8256    1.3384 C   0  0  0  0  0  0  0  0  0  0  0  0
   -0.8863   -2.5917    1.8423 C   0  0  0  0  0  0  0  0  0  0  0  0
   -0.8468   -2.1203    3.1593 C   0  0  0  0  0  0  0  0  0  0  0  0
   -0.9252   -0.7186    3.3855 C   0  0  0  0  0  0  0  0  0  0  0  0
   -0.8824   -0.3022    4.6752 N   0  0  0  0  0  0  0  0  0  0  0  0
   -0.7361   -1.7630    5.4370 S   0  0  0  0  0  0  0  0  0  0  0  0
   -0.7188   -2.9167    4.2487 N   0  0  0  0  0  0  0  0  0  0  0  0
   -1.0511    0.1320    2.2844 C   0  0  0  0  0  0  0  0  0  0  0  0
   -1.3354    1.4620    2.2250 C   0  0  0  0  0  0  0  0  0  0  0  0
   -1.8555    2.6534    3.3190 S   0  0  0  0  0  0  0  0  0  0  0  0
   -2.4688    3.5939    2.0413 C   0  0  0  0  0  0  0  0  0  0  0  0
   -3.2394    4.7580    1.9989 C   0  0  0  0  0  0  0  0  0  0  0  0
   -3.5902    5.5503    3.1927 C   0  0  0  0  0  0  0  0  0  0  0  0
   -4.9350    5.7416    3.5463 C   0  0  0  0  0  0  0  0  0  0  0  0
   -5.2659    6.4889    4.6792 C   0  0  0  0  0  0  0  0  0  0  0  0
   -4.2574    7.0509    5.4681 C   0  0  0  0  0  0  0  0  0  0  0  0
   -2.9073    6.8677    5.1273 C   0  0  0  0  0  0  0  0  0  0  0  0
   -1.8244    7.4517    5.9925 C   0  0  0  0  0  0  0  0  0  0  0  0
   -1.4724    6.5036    7.1341 C   0  0  0  0  0  0  0  0  0  0  0  0
   -2.5791    6.0974    3.9986 C   0  0  0  0  0  0  0  0  0  0  0  0
   -3.6483    5.0405    0.6796 C   0  0  0  0  0  0  0  0  0  0  0  0
   -3.1125    3.8022   -0.3646 S   0  0  0  0  0  0  0  0  0  0  0  0
   -2.3137    2.9581    0.8337 C   0  0  0  0  0  0  0  0  0  0  0  0
   -1.6552    1.7417    0.9356 C   0  0  0  0  0  0  0  0  0  0  0  0
   -1.5840    0.6538    0.1230 N   0  0  0  0  0  0  0  0  0  0  0  0
   -1.1396   -0.3419    0.9618 C   0  0  0  0  0  0  0  0  0  0  0  0
   -0.9764   -1.7370    0.7297 C   0  0  0  0  0  0  0  0  0  0  0  0
   -0.6593   -2.4130   -0.4264 N   0  0  0  0  0  0  0  0  0  0  0  0
   -0.4625   -3.6909   -0.0068 C   0  0  0  0  0  0  0  0  0  0  0  0
    0.1929   -4.7895   -0.5570 C   0  0  0  0  0  0  0  0  0  0  0  0
    0.7654   -5.2687   -2.0600 S   0  0  0  0  0  0  0  0  0  0  0  0
   -0.1023   -1.8544   -1.6632 C   0  0  0  0  0  0  0  0  0  0  0  0
   -0.9363   -2.2338   -2.8873 C   0  0  0  0  0  0  0  0  0  0  0  0
   -2.3746    0.4911   -1.1030 C   0  0  0  0  0  0  0  0  0  0  0  0
   -1.7370    1.2102   -2.2988 C   0  0  0  0  0  0  0  0  0  0  0  0
   -4.4983    6.1670    0.2485 C   0  0  0  0  0  0  0  0  0  0  0  0
   -4.3165    6.8236   -0.9064 C   0  0  0  0  0  0  0  0  0  0  0  0
   -3.0963    6.6945   -1.7234 C   0  0  0  0  0  0  0  0  0  0  0  0
   -3.1280    6.8455   -3.0462 C   0  0  0  0  0  0  0  0  0  0  0  0
   -1.8819    6.8003   -3.8345 C   0  0  0  0  0  0  0  0  0  0  0  0
   -1.8292    6.3977   -5.1209 C   0  0  0  0  0  0  0  0  0  0  0  0
   -2.9192    5.7150   -5.8446 C   0  0  0  0  0  0  0  0  0  0  0  0
   -4.0337    5.3570   -5.3683 O   0  0  0  0  0  0  0  0  0  0  0  0
   -2.4482    5.3790   -7.1684 C   0  0  0  0  0  0  0  0  0  0  0  0
   -3.1039    4.6349   -8.1510 C   0  0  0  0  0  0  0  0  0  0  0  0
   -2.4101    4.3241   -9.3303 C   0  0  0  0  0  0  0  0  0  0  0  0
   -3.1969    3.3897  -10.5874 Cl  0  0  0  0  0  0  0  0  0  0  0  0
   -1.0723    4.7349   -9.4941 C   0  0  0  0  0  0  0  0  0  0  0  0
   -0.4257    5.4667   -8.4861 C   0  0  0  0  0  0  0  0  0  0  0  0
   -1.1431    5.8145   -7.3237 C   0  0  0  0  0  0  0  0  0  0  0  0
   -0.6871    6.5181   -6.0891 C   0  0  0  0  0  0  0  0  0  0  0  0
    0.4427    7.2692   -5.9680 C   0  0  0  0  0  0  0  0  0  0  0  0
    0.9024    7.8243   -4.7205 C   0  0  0  0  0  0  0  0  0  0  0  0
    1.2941    8.2669   -3.7225 N   0  0  0  0  0  0  0  0  0  0  0  0
    1.2364    7.6422   -7.1099 C   0  0  0  0  0  0  0  0  0  0  0  0
    1.8673    7.9770   -8.0245 N   0  0  0  0  0  0  0  0  0  0  0  0
    6.1587   -5.6872   -0.0467 H   0  0  0  0  0  0  0  0  0  0  0  0
    2.2113   -0.8524    0.1227 H   0  0  0  0  0  0  0  0  0  0  0  0
    4.6127    0.6798    3.3616 H   0  0  0  0  0  0  0  0  0  0  0  0
    6.2776   -1.0898    2.9904 H   0  0  0  0  0  0  0  0  0  0  0  0
    3.7225   -5.3198   -1.9883 H   0  0  0  0  0  0  0  0  0  0  0  0
    5.1617   -7.7460   -0.8421 H   0  0  0  0  0  0  0  0  0  0  0  0
    3.8641   -8.7906   -2.7887 H   0  0  0  0  0  0  0  0  0  0  0  0
    1.5555   -8.2831   -3.0138 H   0  0  0  0  0  0  0  0  0  0  0  0
    3.5033   -7.1928    1.3375 H   0  0  0  0  0  0  0  0  0  0  0  0
    4.0485   -9.1127    2.7978 H   0  0  0  0  0  0  0  0  0  0  0  0
    2.4294  -10.9493    3.0980 H   0  0  0  0  0  0  0  0  0  0  0  0
   -1.0819  -10.7434    2.1138 H   0  0  0  0  0  0  0  0  0  0  0  0
    0.1593  -11.7693    2.8987 H   0  0  0  0  0  0  0  0  0  0  0  0
   -0.8184  -12.9454    0.9620 H   0  0  0  0  0  0  0  0  0  0  0  0
   -0.3929  -11.5828   -0.1364 H   0  0  0  0  0  0  0  0  0  0  0  0
    0.9151  -12.5773    0.6248 H   0  0  0  0  0  0  0  0  0  0  0  0
   -0.3060   -8.9761    0.4136 H   0  0  0  0  0  0  0  0  0  0  0  0
   -5.7277    5.2961    2.9574 H   0  0  0  0  0  0  0  0  0  0  0  0
   -6.3055    6.6291    4.9524 H   0  0  0  0  0  0  0  0  0  0  0  0
   -4.5301    7.6261    6.3463 H   0  0  0  0  0  0  0  0  0  0  0  0
   -2.1597    8.4250    6.4147 H   0  0  0  0  0  0  0  0  0  0  0  0
   -0.9138    7.6525    5.3874 H   0  0  0  0  0  0  0  0  0  0  0  0
   -1.0807    5.5465    6.7312 H   0  0  0  0  0  0  0  0  0  0  0  0
   -0.6954    6.9652    7.7738 H   0  0  0  0  0  0  0  0  0  0  0  0
   -2.3694    6.3003    7.7559 H   0  0  0  0  0  0  0  0  0  0  0  0
   -1.5396    5.9350    3.7379 H   0  0  0  0  0  0  0  0  0  0  0  0
    0.9290   -2.2249   -1.8066 H   0  0  0  0  0  0  0  0  0  0  0  0
   -0.0002   -0.7610   -1.5736 H   0  0  0  0  0  0  0  0  0  0  0  0
   -0.6234   -3.2179   -3.2824 H   0  0  0  0  0  0  0  0  0  0  0  0
   -2.0166   -2.2860   -2.6499 H   0  0  0  0  0  0  0  0  0  0  0  0
   -0.7780   -1.4828   -3.6885 H   0  0  0  0  0  0  0  0  0  0  0  0
   -2.5081   -0.5806   -1.3247 H   0  0  0  0  0  0  0  0  0  0  0  0
   -3.4026    0.8845   -0.9425 H   0  0  0  0  0  0  0  0  0  0  0  0
   -2.0088    0.6844   -3.2362 H   0  0  0  0  0  0  0  0  0  0  0  0
   -0.6320    1.2504   -2.2145 H   0  0  0  0  0  0  0  0  0  0  0  0
   -2.1064    2.2476   -2.3813 H   0  0  0  0  0  0  0  0  0  0  0  0
   -5.3467    6.4370    0.8612 H   0  0  0  0  0  0  0  0  0  0  0  0
   -5.0709    7.5346   -1.2175 H   0  0  0  0  0  0  0  0  0  0  0  0
   -2.1568    6.4735   -1.2281 H   0  0  0  0  0  0  0  0  0  0  0  0
   -4.0755    7.0294   -3.5427 H   0  0  0  0  0  0  0  0  0  0  0  0
   -0.9950    7.1274   -3.3237 H   0  0  0  0  0  0  0  0  0  0  0  0
   -4.1197    4.2927   -7.9991 H   0  0  0  0  0  0  0  0  0  0  0  0
   -0.5285    4.4662  -10.3918 H   0  0  0  0  0  0  0  0  0  0  0  0
    0.6212    5.7028   -8.6127 H   0  0  0  0  0  0  0  0  0  0  0  0
  1  2  2  3
  2  3  1  0
  3  4  2  0
  3  5  1  0
  5  6  2  0
  6  7  1  0
  7  8  1  0
  7  9  2  0
  9 10  1  0
 10 11  2  0
 11 12  1  0
 12 13  2  3
 13 14  1  0
 14 15  3  0
 13 16  1  0
 16 17  3  0
  1 18  1  0
 18 19  2  3
 19 20  1  0
 20 21  2  3
 21 22  1  0
 22 23  2  0
 23 24  1  0
 24 25  2  0
 25 26  1  0
 26 27  2  0
 27 28  1  0
 28 29  1  0
 29 30  1  0
 28 31  2  0
 23 32  1  0
 32 33  1  0
 33 34  1  0
 34 35  1  0
 35 36  1  0
 36 37  1  0
 37 38  2  0
 38 39  1  0
 39 40  1  0
 37 41  1  0
 41 42  1  0
 42 43  1  0
 43 44  1  0
 44 45  1  0
 45 46  1  0
 46 47  2  0
 47 48  1  0
 48 49  2  0
 49 50  1  0
 50 51  1  0
 51 52  1  0
 50 53  2  0
 45 54  2  0
 54 55  1  0
 55 56  1  0
 56 57  1  0
 57 58  1  0
 58 59  1  0
 59 60  1  0
 60 61  1  0
 61 62  1  0
 62 63  1  0
 63 64  1  0
 61 65  1  0
 65 66  1  0
 58 67  1  0
 67 68  1  0
 54 69  1  0
 69 70  2  3
 70 71  1  0
 71 72  2  3
 72 73  1  0
 73 74  2  3
 74 75  1  0
 75 76  2  0
 75 77  1  0
 77 78  2  0
 78 79  1  0
 79 80  1  0
 79 81  2  0
 81 82  1  0
 82 83  2  0
 83 84  1  0
 84 85  2  3
 85 86  1  0
 86 87  3  0
 85 88  1  0
 88 89  3  0
 12  2  1  0
 64 22  1  0
 84 74  1  0
 11  5  1  0
 31 24  1  0
 63 32  2  0
 83 77  1  0
 62 34  2  0
 60 35  2  0
 40 36  2  0
 59 41  2  0
 57 42  2  0
 56 44  2  0
 53 46  1  0
  1 90  1  0
  6 91  1  0
  9 92  1  0
 10 93  1  0
 18 94  1  0
 19 95  1  0
 20 96  1  0
 21 97  1  0
 25 98  1  0
 26 99  1  0
 27100  1  0
 29101  1  0
 29102  1  0
 30103  1  0
 30104  1  0
 30105  1  0
 31106  1  0
 47107  1  0
 48108  1  0
 49109  1  0
 51110  1  0
 51111  1  0
 52112  1  0
 52113  1  0
 52114  1  0
 53115  1  0
 65116  1  0
 65117  1  0
 66118  1  0
 66119  1  0
 66120  1  0
 67121  1  0
 67122  1  0
 68123  1  0
 68124  1  0
 68125  1  0
 69126  1  0
 70127  1  0
 71128  1  0
 72129  1  0
 73130  1  0
 78131  1  0
 81132  1  0
 82133  1  0
M  END

