
     RDKit          3D

190207  0  0  0  0  0  0  0  0999 V2000
   -4.9970   -0.0498    6.6320 C   0  0  0  0  0  0  0  0  0  0  0  0
   -6.1923   -0.6089    6.9010 C   0  0  0  0  0  0  0  0  0  0  0  0
   -7.2622   -0.8626    5.9251 C   0  0  0  0  0  0  0  0  0  0  0  0
   -7.3630   -0.3719    4.7692 O   0  0  0  0  0  0  0  0  0  0  0  0
   -8.1357   -1.8829    6.4654 C   0  0  0  0  0  0  0  0  0  0  0  0
   -9.2143   -2.5112    5.8426 C   0  0  0  0  0  0  0  0  0  0  0  0
   -9.8640   -3.5526    6.5206 C   0  0  0  0  0  0  0  0  0  0  0  0
  -11.2345   -4.3605    5.7793 Cl  0  0  0  0  0  0  0  0  0  0  0  0
   -9.4104   -3.9627    7.7864 C   0  0  0  0  0  0  0  0  0  0  0  0
   -8.3179   -3.3227    8.3937 C   0  0  0  0  0  0  0  0  0  0  0  0
   -7.6948   -2.2550    7.7243 C   0  0  0  0  0  0  0  0  0  0  0  0
   -6.5303   -1.4120    8.1153 C   0  0  0  0  0  0  0  0  0  0  0  0
   -6.0255   -1.2383    9.3650 C   0  0  0  0  0  0  0  0  0  0  0  0
   -6.4747   -2.0001   10.4976 C   0  0  0  0  0  0  0  0  0  0  0  0
   -6.8242   -2.6049   11.4192 N   0  0  0  0  0  0  0  0  0  0  0  0
   -5.0786   -0.1935    9.6674 C   0  0  0  0  0  0  0  0  0  0  0  0
   -4.3224    0.6470    9.9156 N   0  0  0  0  0  0  0  0  0  0  0  0
   -4.6766    0.6487    5.3777 C   0  0  0  0  0  0  0  0  0  0  0  0
   -3.5789    0.3709    4.5630 C   0  0  0  0  0  0  0  0  0  0  0  0
   -2.5841   -0.6895    4.8365 C   0  0  0  0  0  0  0  0  0  0  0  0
   -2.8343   -2.0206    4.4148 C   0  0  0  0  0  0  0  0  0  0  0  0
   -1.8568   -3.0056    4.6228 C   0  0  0  0  0  0  0  0  0  0  0  0
   -0.6510   -2.7009    5.2616 C   0  0  0  0  0  0  0  0  0  0  0  0
    0.3994   -3.7618    5.4482 C   0  0  0  0  0  0  0  0  0  0  0  0
    1.3619   -3.7807    4.2654 C   0  0  0  0  0  0  0  0  0  0  0  0
   -0.4066   -1.3885    5.6790 C   0  0  0  0  0  0  0  0  0  0  0  0
   -1.3558   -0.3757    5.4768 C   0  0  0  0  0  0  0  0  0  0  0  0
   -1.0144    1.0198    5.9615 C   0  0  0  0  0  0  0  0  0  0  0  0
   -1.1154    1.1225    7.4793 C   0  0  0  0  0  0  0  0  0  0  0  0
   -4.0957   -2.4092    3.6735 C   0  0  0  0  0  0  0  0  0  0  0  0
   -3.9137   -2.2443    2.1685 C   0  0  0  0  0  0  0  0  0  0  0  0
   -3.4894    1.2123    3.4492 C   0  0  0  0  0  0  0  0  0  0  0  0
   -4.4808    2.1832    3.4198 C   0  0  0  0  0  0  0  0  0  0  0  0
   -5.4836    1.9973    4.7589 S   0  0  0  0  0  0  0  0  0  0  0  0
   -4.5971    3.2129    2.3852 C   0  0  0  0  0  0  0  0  0  0  0  0
   -4.1137    4.5321    2.4832 C   0  0  0  0  0  0  0  0  0  0  0  0
   -3.5023    5.1303    3.6877 C   0  0  0  0  0  0  0  0  0  0  0  0
   -2.4754    4.4693    4.3777 C   0  0  0  0  0  0  0  0  0  0  0  0
   -1.8910    5.0531    5.5024 C   0  0  0  0  0  0  0  0  0  0  0  0
   -2.3024    6.3172    5.9300 C   0  0  0  0  0  0  0  0  0  0  0  0
   -3.3166    7.0011    5.2409 C   0  0  0  0  0  0  0  0  0  0  0  0
   -3.7158    8.3905    5.6618 C   0  0  0  0  0  0  0  0  0  0  0  0
   -2.9288    9.4382    4.8798 C   0  0  0  0  0  0  0  0  0  0  0  0
   -3.9069    6.4051    4.1140 C   0  0  0  0  0  0  0  0  0  0  0  0
   -4.0566    5.1400    1.2250 C   0  0  0  0  0  0  0  0  0  0  0  0
   -2.9995    6.3483    0.6645 S   0  0  0  0  0  0  0  0  0  0  0  0
   -3.1613    5.8374   -0.9440 C   0  0  0  0  0  0  0  0  0  0  0  0
   -2.2403    5.7265   -1.9532 C   0  0  0  0  0  0  0  0  0  0  0  0
   -1.0899    6.4718   -2.2263 C   0  0  0  0  0  0  0  0  0  0  0  0
   -0.2029    6.0140   -3.2427 C   0  0  0  0  0  0  0  0  0  0  0  0
    0.9141    6.7554   -3.4608 N   0  0  0  0  0  0  0  0  0  0  0  0
    0.6738    7.9608   -2.3505 S   0  0  0  0  0  0  0  0  0  0  0  0
   -0.7498    7.6142   -1.5790 N   0  0  0  0  0  0  0  0  0  0  0  0
   -0.4793    4.7995   -3.8880 C   0  0  0  0  0  0  0  0  0  0  0  0
    0.3651    3.9862   -4.5899 C   0  0  0  0  0  0  0  0  0  0  0  0
    2.0537    3.9483   -4.7829 S   0  0  0  0  0  0  0  0  0  0  0  0
    2.0392    2.2585   -4.9802 C   0  0  0  0  0  0  0  0  0  0  0  0
    3.0598    1.3025   -5.0663 C   0  0  0  0  0  0  0  0  0  0  0  0
    4.4653    1.7061   -4.9809 C   0  0  0  0  0  0  0  0  0  0  0  0
    5.2642    1.7849   -6.1284 C   0  0  0  0  0  0  0  0  0  0  0  0
    6.5296    2.3793   -6.0563 C   0  0  0  0  0  0  0  0  0  0  0  0
    6.9868    2.9214   -4.8487 C   0  0  0  0  0  0  0  0  0  0  0  0
    6.1825    2.8591   -3.6993 C   0  0  0  0  0  0  0  0  0  0  0  0
    6.6084    3.5178   -2.4149 C   0  0  0  0  0  0  0  0  0  0  0  0
    5.8622    4.8313   -2.2001 C   0  0  0  0  0  0  0  0  0  0  0  0
    4.9278    2.2462   -3.7746 C   0  0  0  0  0  0  0  0  0  0  0  0
    2.5339   -0.0116   -5.0346 C   0  0  0  0  0  0  0  0  0  0  0  0
    0.8427    0.0978   -4.8348 S   0  0  0  0  0  0  0  0  0  0  0  0
    0.7731    1.7626   -4.8391 C   0  0  0  0  0  0  0  0  0  0  0  0
   -0.1894    2.7413   -4.5988 C   0  0  0  0  0  0  0  0  0  0  0  0
   -1.3745    2.6927   -3.9310 N   0  0  0  0  0  0  0  0  0  0  0  0
   -1.5850    3.9990   -3.5413 C   0  0  0  0  0  0  0  0  0  0  0  0
   -2.5335    4.5323   -2.6223 C   0  0  0  0  0  0  0  0  0  0  0  0
   -3.6604    3.9647   -2.1083 N   0  0  0  0  0  0  0  0  0  0  0  0
   -3.9791    4.7473   -1.0509 C   0  0  0  0  0  0  0  0  0  0  0  0
   -4.4806    4.3495    0.1806 C   0  0  0  0  0  0  0  0  0  0  0  0
   -4.8879    2.8325    0.7565 S   0  0  0  0  0  0  0  0  0  0  0  0
   -4.6334    3.1301   -2.8267 C   0  0  0  0  0  0  0  0  0  0  0  0
   -5.9101    3.9055   -3.1424 C   0  0  0  0  0  0  0  0  0  0  0  0
   -1.8851    1.4697   -3.2927 C   0  0  0  0  0  0  0  0  0  0  0  0
   -2.5829    0.5569   -4.3019 C   0  0  0  0  0  0  0  0  0  0  0  0
    3.1907   -1.3342   -5.1742 C   0  0  0  0  0  0  0  0  0  0  0  0
    4.3995   -1.8348   -4.6479 C   0  0  0  0  0  0  0  0  0  0  0  0
    5.4831   -1.0772   -3.9834 C   0  0  0  0  0  0  0  0  0  0  0  0
    5.4258   -0.8299   -2.5847 C   0  0  0  0  0  0  0  0  0  0  0  0
    6.6128   -0.4860   -1.9067 C   0  0  0  0  0  0  0  0  0  0  0  0
    7.8219   -0.3330   -2.5941 C   0  0  0  0  0  0  0  0  0  0  0  0
    9.1039   -0.0752   -1.8435 C   0  0  0  0  0  0  0  0  0  0  0  0
    9.3536    1.4138   -1.6532 C   0  0  0  0  0  0  0  0  0  0  0  0
    7.8425   -0.4617   -3.9833 C   0  0  0  0  0  0  0  0  0  0  0  0
    6.6999   -0.8628   -4.6864 C   0  0  0  0  0  0  0  0  0  0  0  0
    6.8321   -1.1116   -6.1769 C   0  0  0  0  0  0  0  0  0  0  0  0
    7.5658   -2.4179   -6.4738 C   0  0  0  0  0  0  0  0  0  0  0  0
    4.1601   -1.1150   -1.7881 C   0  0  0  0  0  0  0  0  0  0  0  0
    3.9324   -0.1527   -0.6178 C   0  0  0  0  0  0  0  0  0  0  0  0
    4.5244   -3.2304   -4.7735 C   0  0  0  0  0  0  0  0  0  0  0  0
    3.4418   -3.8383   -5.3858 C   0  0  0  0  0  0  0  0  0  0  0  0
    2.3421   -2.6524   -5.7993 S   0  0  0  0  0  0  0  0  0  0  0  0
    3.2640   -5.2749   -5.6435 C   0  0  0  0  0  0  0  0  0  0  0  0
    3.4067   -6.2317   -4.7044 C   0  0  0  0  0  0  0  0  0  0  0  0
    3.4537   -6.0059   -3.2513 C   0  0  0  0  0  0  0  0  0  0  0  0
    3.5619   -4.8974   -2.6647 O   0  0  0  0  0  0  0  0  0  0  0  0
    3.1998   -7.2663   -2.5879 C   0  0  0  0  0  0  0  0  0  0  0  0
    3.0391   -7.4947   -1.2212 C   0  0  0  0  0  0  0  0  0  0  0  0
    2.6882   -8.7854   -0.7897 C   0  0  0  0  0  0  0  0  0  0  0  0
    2.4652   -9.0548    0.6691 C   0  0  0  0  0  0  0  0  0  0  0  0
    2.4523   -9.7969   -1.7456 C   0  0  0  0  0  0  0  0  0  0  0  0
    2.6105   -9.5395   -3.1174 C   0  0  0  0  0  0  0  0  0  0  0  0
    3.0200   -8.2617   -3.5301 C   0  0  0  0  0  0  0  0  0  0  0  0
    3.2315   -7.7045   -4.8966 C   0  0  0  0  0  0  0  0  0  0  0  0
    3.4669   -8.4108   -6.0330 C   0  0  0  0  0  0  0  0  0  0  0  0
    3.4761   -9.8505   -6.0589 C   0  0  0  0  0  0  0  0  0  0  0  0
    3.4970  -11.0058   -6.0912 N   0  0  0  0  0  0  0  0  0  0  0  0
    3.8795   -7.7797   -7.2605 C   0  0  0  0  0  0  0  0  0  0  0  0
    4.2082   -7.2807   -8.2519 N   0  0  0  0  0  0  0  0  0  0  0  0
   -4.1692   -0.2231    7.3005 H   0  0  0  0  0  0  0  0  0  0  0  0
   -9.5355   -2.2058    4.8557 H   0  0  0  0  0  0  0  0  0  0  0  0
   -9.8980   -4.7829    8.2961 H   0  0  0  0  0  0  0  0  0  0  0  0
   -7.9691   -3.6943    9.3415 H   0  0  0  0  0  0  0  0  0  0  0  0
   -2.0278   -4.0181    4.2727 H   0  0  0  0  0  0  0  0  0  0  0  0
   -0.0767   -4.7620    5.5480 H   0  0  0  0  0  0  0  0  0  0  0  0
    0.9727   -3.5722    6.3829 H   0  0  0  0  0  0  0  0  0  0  0  0
    1.8737   -2.7987    4.1696 H   0  0  0  0  0  0  0  0  0  0  0  0
    2.1285   -4.5687    4.4231 H   0  0  0  0  0  0  0  0  0  0  0  0
    0.8121   -4.0015    3.3250 H   0  0  0  0  0  0  0  0  0  0  0  0
    0.5365   -1.1502    6.1585 H   0  0  0  0  0  0  0  0  0  0  0  0
    0.0221    1.2693    5.6486 H   0  0  0  0  0  0  0  0  0  0  0  0
   -1.6698    1.7908    5.5129 H   0  0  0  0  0  0  0  0  0  0  0  0
   -2.1641    0.9657    7.8104 H   0  0  0  0  0  0  0  0  0  0  0  0
   -0.4610    0.3676    7.9686 H   0  0  0  0  0  0  0  0  0  0  0  0
   -0.7867    2.1328    7.8030 H   0  0  0  0  0  0  0  0  0  0  0  0
   -4.9604   -1.8033    4.0080 H   0  0  0  0  0  0  0  0  0  0  0  0
   -4.3522   -3.4681    3.8912 H   0  0  0  0  0  0  0  0  0  0  0  0
   -3.7269   -1.1802    1.9154 H   0  0  0  0  0  0  0  0  0  0  0  0
   -3.0597   -2.8588    1.8128 H   0  0  0  0  0  0  0  0  0  0  0  0
   -4.8341   -2.5726    1.6429 H   0  0  0  0  0  0  0  0  0  0  0  0
   -2.7047    1.1394    2.7084 H   0  0  0  0  0  0  0  0  0  0  0  0
   -2.0981    3.5232    4.0202 H   0  0  0  0  0  0  0  0  0  0  0  0
   -1.0990    4.5362    6.0299 H   0  0  0  0  0  0  0  0  0  0  0  0
   -1.8228    6.7689    6.7908 H   0  0  0  0  0  0  0  0  0  0  0  0
   -4.8035    8.5397    5.4892 H   0  0  0  0  0  0  0  0  0  0  0  0
   -3.5302    8.5302    6.7498 H   0  0  0  0  0  0  0  0  0  0  0  0
   -3.1591    9.3613    3.7948 H   0  0  0  0  0  0  0  0  0  0  0  0
   -3.2054   10.4545    5.2316 H   0  0  0  0  0  0  0  0  0  0  0  0
   -1.8379    9.2940    5.0362 H   0  0  0  0  0  0  0  0  0  0  0  0
   -4.6740    6.9372    3.5633 H   0  0  0  0  0  0  0  0  0  0  0  0
    4.8976    1.4134   -7.0782 H   0  0  0  0  0  0  0  0  0  0  0  0
    7.1465    2.4411   -6.9444 H   0  0  0  0  0  0  0  0  0  0  0  0
    7.9564    3.4027   -4.8166 H   0  0  0  0  0  0  0  0  0  0  0  0
    6.3931    2.8344   -1.5644 H   0  0  0  0  0  0  0  0  0  0  0  0
    7.6994    3.7240   -2.4221 H   0  0  0  0  0  0  0  0  0  0  0  0
    6.1380    5.2564   -1.2135 H   0  0  0  0  0  0  0  0  0  0  0  0
    4.7632    4.6688   -2.2184 H   0  0  0  0  0  0  0  0  0  0  0  0
    6.1379    5.5581   -2.9922 H   0  0  0  0  0  0  0  0  0  0  0  0
    4.2823    2.2380   -2.9035 H   0  0  0  0  0  0  0  0  0  0  0  0
   -4.8854    2.2336   -2.2214 H   0  0  0  0  0  0  0  0  0  0  0  0
   -4.2138    2.8156   -3.7942 H   0  0  0  0  0  0  0  0  0  0  0  0
   -6.4278    4.2059   -2.2075 H   0  0  0  0  0  0  0  0  0  0  0  0
   -6.6026    3.2630   -3.7297 H   0  0  0  0  0  0  0  0  0  0  0  0
   -5.6698    4.8123   -3.7387 H   0  0  0  0  0  0  0  0  0  0  0  0
   -2.5588    1.6957   -2.4509 H   0  0  0  0  0  0  0  0  0  0  0  0
   -1.0411    0.9196   -2.8269 H   0  0  0  0  0  0  0  0  0  0  0  0
   -1.8829    0.2209   -5.0910 H   0  0  0  0  0  0  0  0  0  0  0  0
   -2.9807   -0.3382   -3.7790 H   0  0  0  0  0  0  0  0  0  0  0  0
   -3.4219    1.0687   -4.8074 H   0  0  0  0  0  0  0  0  0  0  0  0
    6.6191   -0.3806   -0.8296 H   0  0  0  0  0  0  0  0  0  0  0  0
    9.9631   -0.5170   -2.3960 H   0  0  0  0  0  0  0  0  0  0  0  0
    9.0724   -0.5703   -0.8474 H   0  0  0  0  0  0  0  0  0  0  0  0
    8.5641    1.8513   -1.0056 H   0  0  0  0  0  0  0  0  0  0  0  0
   10.3341    1.5651   -1.1578 H   0  0  0  0  0  0  0  0  0  0  0  0
    9.3699    1.9309   -2.6373 H   0  0  0  0  0  0  0  0  0  0  0  0
    8.7739   -0.3100   -4.5166 H   0  0  0  0  0  0  0  0  0  0  0  0
    5.8405   -1.1258   -6.6789 H   0  0  0  0  0  0  0  0  0  0  0  0
    7.4072   -0.2793   -6.6360 H   0  0  0  0  0  0  0  0  0  0  0  0
    7.5900   -2.5812   -7.5703 H   0  0  0  0  0  0  0  0  0  0  0  0
    8.6084   -2.3687   -6.0937 H   0  0  0  0  0  0  0  0  0  0  0  0
    7.0522   -3.2769   -5.9997 H   0  0  0  0  0  0  0  0  0  0  0  0
    3.2641   -1.0328   -2.4389 H   0  0  0  0  0  0  0  0  0  0  0  0
    4.2018   -2.1580   -1.4040 H   0  0  0  0  0  0  0  0  0  0  0  0
    4.6027   -0.4051    0.2318 H   0  0  0  0  0  0  0  0  0  0  0  0
    2.8837   -0.2447   -0.2618 H   0  0  0  0  0  0  0  0  0  0  0  0
    4.1077    0.9004   -0.9277 H   0  0  0  0  0  0  0  0  0  0  0  0
    5.3784   -3.7867   -4.4058 H   0  0  0  0  0  0  0  0  0  0  0  0
    2.9138   -5.5351   -6.6290 H   0  0  0  0  0  0  0  0  0  0  0  0
    3.1630   -6.6856   -0.5109 H   0  0  0  0  0  0  0  0  0  0  0  0
    2.6638  -10.1232    0.9024 H   0  0  0  0  0  0  0  0  0  0  0  0
    3.1478   -8.4356    1.2874 H   0  0  0  0  0  0  0  0  0  0  0  0
    1.4162   -8.8116    0.9316 H   0  0  0  0  0  0  0  0  0  0  0  0
    2.1289  -10.7813   -1.4290 H   0  0  0  0  0  0  0  0  0  0  0  0
    2.3671  -10.3208   -3.8172 H   0  0  0  0  0  0  0  0  0  0  0  0
  1  2  2  3
  2  3  1  0
  3  4  2  0
  3  5  1  0
  5  6  2  0
  6  7  1  0
  7  8  1  0
  7  9  2  0
  9 10  1  0
 10 11  2  0
 11 12  1  0
 12 13  2  3
 13 14  1  0
 14 15  3  0
 13 16  1  0
 16 17  3  0
  1 18  1  0
 18 19  2  0
 19 20  1  0
 20 21  2  0
 21 22  1  0
 22 23  2  0
 23 24  1  0
 24 25  1  0
 23 26  1  0
 26 27  2  0
 27 28  1  0
 28 29  1  0
 21 30  1  0
 30 31  1  0
 19 32  1  0
 32 33  2  0
 33 34  1  0
 33 35  1  0
 35 36  2  0
 36 37  1  0
 37 38  2  0
 38 39  1  0
 39 40  2  0
 40 41  1  0
 41 42  1  0
 42 43  1  0
 41 44  2  0
 36 45  1  0
 45 46  1  0
 46 47  1  0
 47 48  1  0
 48 49  1  0
 49 50  1  0
 50 51  2  0
 51 52  1  0
 52 53  1  0
 50 54  1  0
 54 55  1  0
 55 56  1  0
 56 57  1  0
 57 58  1  0
 58 59  1  0
 59 60  2  0
 60 61  1  0
 61 62  2  0
 62 63  1  0
 63 64  1  0
 64 65  1  0
 63 66  2  0
 58 67  2  0
 67 68  1  0
 68 69  1  0
 69 70  1  0
 70 71  1  0
 71 72  1  0
 72 73  1  0
 73 74  1  0
 74 75  1  0
 75 76  1  0
 76 77  1  0
 74 78  1  0
 78 79  1  0
 71 80  1  0
 80 81  1  0
 67 82  1  0
 82 83  2  0
 83 84  1  0
 84 85  2  0
 85 86  1  0
 86 87  2  0
 87 88  1  0
 88 89  1  0
 87 90  1  0
 90 91  2  0
 91 92  1  0
 92 93  1  0
 85 94  1  0
 94 95  1  0
 83 96  1  0
 96 97  2  0
 97 98  1  0
 97 99  1  0
 99100  2  3
100101  1  0
101102  2  0
101103  1  0
103104  2  0
104105  1  0
105106  1  0
105107  2  0
107108  1  0
108109  2  0
109110  1  0
110111  2  3
111112  1  0
112113  3  0
111114  1  0
114115  3  0
 12  2  1  0
 34 18  1  0
 77 35  1  0
 98 82  1  0
110100  1  0
 11  5  1  0
 27 20  1  0
 44 37  1  0
 76 45  2  0
 91 84  1  0
109103  1  0
 75 47  2  0
 73 48  2  0
 53 49  2  0
 72 54  2  0
 70 55  2  0
 69 57  2  0
 66 59  1  0
  1116  1  0
  6117  1  0
  9118  1  0
 10119  1  0
 22120  1  0
 24121  1  0
 24122  1  0
 25123  1  0
 25124  1  0
 25125  1  0
 26126  1  0
 28127  1  0
 28128  1  0
 29129  1  0
 29130  1  0
 29131  1  0
 30132  1  0
 30133  1  0
 31134  1  0
 31135  1  0
 31136  1  0
 32137  1  0
 38138  1  0
 39139  1  0
 40140  1  0
 42141  1  0
 42142  1  0
 43143  1  0
 43144  1  0
 43145  1  0
 44146  1  0
 60147  1  0
 61148  1  0
 62149  1  0
 64150  1  0
 64151  1  0
 65152  1  0
 65153  1  0
 65154  1  0
 66155  1  0
 78156  1  0
 78157  1  0
 79158  1  0
 79159  1  0
 79160  1  0
 80161  1  0
 80162  1  0
 81163  1  0
 81164  1  0
 81165  1  0
 86166  1  0
 88167  1  0
 88168  1  0
 89169  1  0
 89170  1  0
 89171  1  0
 90172  1  0
 92173  1  0
 92174  1  0
 93175  1  0
 93176  1  0
 93177  1  0
 94178  1  0
 94179  1  0
 95180  1  0
 95181  1  0
 95182  1  0
 96183  1  0
 99184  1  0
104185  1  0
106186  1  0
106187  1  0
106188  1  0
107189  1  0
108190  1  0
M  END

