
     RDKit          3D

148163  0  0  0  0  0  0  0  0999 V2000
   -6.2548   -5.8750   -0.6711 C   0  0  0  0  0  0  0  0  0  0  0  0
   -6.4982   -5.8492   -1.9967 C   0  0  0  0  0  0  0  0  0  0  0  0
   -5.4829   -5.9279   -3.0571 C   0  0  0  0  0  0  0  0  0  0  0  0
   -4.3160   -6.3889   -2.9475 O   0  0  0  0  0  0  0  0  0  0  0  0
   -6.0780   -5.4730   -4.2906 C   0  0  0  0  0  0  0  0  0  0  0  0
   -5.4490   -5.2535   -5.5147 C   0  0  0  0  0  0  0  0  0  0  0  0
   -6.2051   -4.7268   -6.5700 C   0  0  0  0  0  0  0  0  0  0  0  0
   -5.4467   -4.4222   -8.1227 Cl  0  0  0  0  0  0  0  0  0  0  0  0
   -7.5635   -4.4192   -6.3772 C   0  0  0  0  0  0  0  0  0  0  0  0
   -8.1784   -4.6453   -5.1338 C   0  0  0  0  0  0  0  0  0  0  0  0
   -7.4202   -5.2013   -4.0887 C   0  0  0  0  0  0  0  0  0  0  0  0
   -7.7935   -5.5359   -2.6819 C   0  0  0  0  0  0  0  0  0  0  0  0
   -9.0486   -5.7247   -2.1960 C   0  0  0  0  0  0  0  0  0  0  0  0
   -9.3015   -6.2908   -0.8946 C   0  0  0  0  0  0  0  0  0  0  0  0
   -9.5134   -6.7480    0.1468 N   0  0  0  0  0  0  0  0  0  0  0  0
  -10.2271   -5.5003   -2.9905 C   0  0  0  0  0  0  0  0  0  0  0  0
  -11.1878   -5.3251   -3.6142 N   0  0  0  0  0  0  0  0  0  0  0  0
   -4.9022   -5.9529   -0.0993 C   0  0  0  0  0  0  0  0  0  0  0  0
   -4.4844   -6.8708    0.8539 C   0  0  0  0  0  0  0  0  0  0  0  0
   -3.1396   -6.7149    1.2153 C   0  0  0  0  0  0  0  0  0  0  0  0
   -2.2996   -7.8823    2.2919 S   0  0  0  0  0  0  0  0  0  0  0  0
   -1.5459   -8.8427    0.9309 C   0  0  0  0  0  0  0  0  0  0  0  0
   -2.5478   -9.8220    0.3316 C   0  0  0  0  0  0  0  0  0  0  0  0
   -2.5184   -5.6310    0.5903 C   0  0  0  0  0  0  0  0  0  0  0  0
   -3.6318   -4.9021   -0.4346 S   0  0  0  0  0  0  0  0  0  0  0  0
   -1.1028   -5.2374    0.6743 C   0  0  0  0  0  0  0  0  0  0  0  0
   -0.3405   -5.0452    1.8478 C   0  0  0  0  0  0  0  0  0  0  0  0
   -0.8852   -5.0323    3.2228 C   0  0  0  0  0  0  0  0  0  0  0  0
   -0.1910   -5.6650    4.2658 C   0  0  0  0  0  0  0  0  0  0  0  0
   -0.7331   -5.6983    5.5543 C   0  0  0  0  0  0  0  0  0  0  0  0
   -1.9694   -5.0994    5.8115 C   0  0  0  0  0  0  0  0  0  0  0  0
   -2.6598   -4.4374    4.7848 C   0  0  0  0  0  0  0  0  0  0  0  0
   -4.0059   -3.8158    5.0424 C   0  0  0  0  0  0  0  0  0  0  0  0
   -5.1266   -4.7782    4.6579 C   0  0  0  0  0  0  0  0  0  0  0  0
   -2.1132   -4.4065    3.4949 C   0  0  0  0  0  0  0  0  0  0  0  0
    0.9581   -4.6371    1.5261 C   0  0  0  0  0  0  0  0  0  0  0  0
    2.1928   -3.8973    2.4482 S   0  0  0  0  0  0  0  0  0  0  0  0
    3.0231   -3.4394    1.0394 C   0  0  0  0  0  0  0  0  0  0  0  0
    3.8923   -2.4419    0.6886 C   0  0  0  0  0  0  0  0  0  0  0  0
    4.7986   -1.6883    1.4346 C   0  0  0  0  0  0  0  0  0  0  0  0
    5.5065   -0.6336    0.7816 C   0  0  0  0  0  0  0  0  0  0  0  0
    6.3577    0.0910    1.5497 N   0  0  0  0  0  0  0  0  0  0  0  0
    6.1626   -0.6807    3.0017 S   0  0  0  0  0  0  0  0  0  0  0  0
    5.0498   -1.8823    2.7521 N   0  0  0  0  0  0  0  0  0  0  0  0
    5.2037   -0.3337   -0.5603 C   0  0  0  0  0  0  0  0  0  0  0  0
    5.3864    0.8490   -1.2276 C   0  0  0  0  0  0  0  0  0  0  0  0
    5.8506    2.3825   -0.6748 S   0  0  0  0  0  0  0  0  0  0  0  0
    4.8070    3.1669   -1.7535 C   0  0  0  0  0  0  0  0  0  0  0  0
    4.2732    4.4583   -1.7098 C   0  0  0  0  0  0  0  0  0  0  0  0
    4.7117    5.4702   -0.7354 C   0  0  0  0  0  0  0  0  0  0  0  0
    4.3511    5.3479    0.6137 C   0  0  0  0  0  0  0  0  0  0  0  0
    4.6663    6.3651    1.5169 C   0  0  0  0  0  0  0  0  0  0  0  0
    5.3352    7.5109    1.0780 C   0  0  0  0  0  0  0  0  0  0  0  0
    5.7139    7.6361   -0.2700 C   0  0  0  0  0  0  0  0  0  0  0  0
    6.3473    8.9090   -0.7635 C   0  0  0  0  0  0  0  0  0  0  0  0
    5.2770    9.9093   -1.1953 C   0  0  0  0  0  0  0  0  0  0  0  0
    5.4081    6.6052   -1.1712 C   0  0  0  0  0  0  0  0  0  0  0  0
    3.0660    4.5430   -2.4327 C   0  0  0  0  0  0  0  0  0  0  0  0
    2.7148    3.0103   -3.0812 S   0  0  0  0  0  0  0  0  0  0  0  0
    4.0840    2.2519   -2.4808 C   0  0  0  0  0  0  0  0  0  0  0  0
    4.4085    0.9206   -2.1839 C   0  0  0  0  0  0  0  0  0  0  0  0
    3.6417   -0.2062   -2.2226 N   0  0  0  0  0  0  0  0  0  0  0  0
    4.1897   -1.0153   -1.2547 C   0  0  0  0  0  0  0  0  0  0  0  0
    3.6378   -2.1805   -0.6623 C   0  0  0  0  0  0  0  0  0  0  0  0
    2.7265   -3.0657   -1.1655 N   0  0  0  0  0  0  0  0  0  0  0  0
    2.3547   -3.7914   -0.0880 C   0  0  0  0  0  0  0  0  0  0  0  0
    1.1921   -4.4861    0.1816 C   0  0  0  0  0  0  0  0  0  0  0  0
   -0.1852   -4.8273   -0.6991 S   0  0  0  0  0  0  0  0  0  0  0  0
    2.5669   -3.4868   -2.5630 C   0  0  0  0  0  0  0  0  0  0  0  0
    3.1432   -4.8827   -2.7875 C   0  0  0  0  0  0  0  0  0  0  0  0
    2.2575   -0.2340   -2.7233 C   0  0  0  0  0  0  0  0  0  0  0  0
    2.2197   -0.2080   -4.2523 C   0  0  0  0  0  0  0  0  0  0  0  0
    2.0151    5.5417   -2.1720 C   0  0  0  0  0  0  0  0  0  0  0  0
    2.2062    6.9075   -1.9842 C   0  0  0  0  0  0  0  0  0  0  0  0
    1.1340    7.5368   -1.3397 C   0  0  0  0  0  0  0  0  0  0  0  0
    1.1956    9.2509   -0.8098 S   0  0  0  0  0  0  0  0  0  0  0  0
    0.3710    9.9136   -2.2966 C   0  0  0  0  0  0  0  0  0  0  0  0
    1.3602   10.0552   -3.4463 C   0  0  0  0  0  0  0  0  0  0  0  0
    0.0966    6.6698   -1.0200 C   0  0  0  0  0  0  0  0  0  0  0  0
    0.5070    5.1306   -1.5504 S   0  0  0  0  0  0  0  0  0  0  0  0
   -1.0649    6.9826   -0.1785 C   0  0  0  0  0  0  0  0  0  0  0  0
   -1.1816    6.5449    1.0908 C   0  0  0  0  0  0  0  0  0  0  0  0
   -0.2205    5.6804    1.7899 C   0  0  0  0  0  0  0  0  0  0  0  0
    0.9827    5.4808    1.4728 O   0  0  0  0  0  0  0  0  0  0  0  0
   -0.8787    5.1082    2.9426 C   0  0  0  0  0  0  0  0  0  0  0  0
   -0.3975    4.1242    3.8057 C   0  0  0  0  0  0  0  0  0  0  0  0
   -1.2495    3.6347    4.8117 C   0  0  0  0  0  0  0  0  0  0  0  0
   -0.7773    2.5421    5.7230 C   0  0  0  0  0  0  0  0  0  0  0  0
   -2.5724    4.1167    4.8982 C   0  0  0  0  0  0  0  0  0  0  0  0
   -3.0359    5.1047    4.0136 C   0  0  0  0  0  0  0  0  0  0  0  0
   -2.1580    5.6225    3.0474 C   0  0  0  0  0  0  0  0  0  0  0  0
   -2.3813    6.6395    1.9788 C   0  0  0  0  0  0  0  0  0  0  0  0
   -3.3451    7.5967    1.9566 C   0  0  0  0  0  0  0  0  0  0  0  0
   -3.3303    8.6848    1.0152 C   0  0  0  0  0  0  0  0  0  0  0  0
   -3.3259    9.5686    0.2664 N   0  0  0  0  0  0  0  0  0  0  0  0
   -4.3758    7.6817    2.9586 C   0  0  0  0  0  0  0  0  0  0  0  0
   -5.2079    7.7605    3.7596 N   0  0  0  0  0  0  0  0  0  0  0  0
   -7.0513   -5.7708    0.0442 H   0  0  0  0  0  0  0  0  0  0  0  0
   -4.3959   -5.4672   -5.6381 H   0  0  0  0  0  0  0  0  0  0  0  0
   -8.1404   -3.9930   -7.1868 H   0  0  0  0  0  0  0  0  0  0  0  0
   -9.2055   -4.3488   -5.0077 H   0  0  0  0  0  0  0  0  0  0  0  0
   -5.1162   -7.6616    1.2387 H   0  0  0  0  0  0  0  0  0  0  0  0
   -0.6888   -9.4137    1.3428 H   0  0  0  0  0  0  0  0  0  0  0  0
   -1.1552   -8.1674    0.1410 H   0  0  0  0  0  0  0  0  0  0  0  0
   -2.0521  -10.4154   -0.4654 H   0  0  0  0  0  0  0  0  0  0  0  0
   -3.4032   -9.2788   -0.1193 H   0  0  0  0  0  0  0  0  0  0  0  0
   -2.9194  -10.5144    1.1144 H   0  0  0  0  0  0  0  0  0  0  0  0
    0.7544   -6.1609    4.0749 H   0  0  0  0  0  0  0  0  0  0  0  0
   -0.2030   -6.2060    6.3501 H   0  0  0  0  0  0  0  0  0  0  0  0
   -2.3859   -5.1495    6.8112 H   0  0  0  0  0  0  0  0  0  0  0  0
   -4.1098   -3.5391    6.1148 H   0  0  0  0  0  0  0  0  0  0  0  0
   -4.1083   -2.8798    4.4489 H   0  0  0  0  0  0  0  0  0  0  0  0
   -6.1098   -4.2790    4.7928 H   0  0  0  0  0  0  0  0  0  0  0  0
   -5.0278   -5.0879    3.5960 H   0  0  0  0  0  0  0  0  0  0  0  0
   -5.0933   -5.6797    5.3047 H   0  0  0  0  0  0  0  0  0  0  0  0
   -2.6464   -3.8936    2.7042 H   0  0  0  0  0  0  0  0  0  0  0  0
    3.8035    4.4785    0.9562 H   0  0  0  0  0  0  0  0  0  0  0  0
    4.3712    6.2745    2.5540 H   0  0  0  0  0  0  0  0  0  0  0  0
    5.5434    8.3054    1.7824 H   0  0  0  0  0  0  0  0  0  0  0  0
    6.9729    9.3625    0.0370 H   0  0  0  0  0  0  0  0  0  0  0  0
    7.0184    8.6945   -1.6252 H   0  0  0  0  0  0  0  0  0  0  0  0
    5.7598   10.8531   -1.5206 H   0  0  0  0  0  0  0  0  0  0  0  0
    4.6870    9.4994   -2.0427 H   0  0  0  0  0  0  0  0  0  0  0  0
    4.5929   10.1319   -0.3479 H   0  0  0  0  0  0  0  0  0  0  0  0
    5.6622    6.7096   -2.2198 H   0  0  0  0  0  0  0  0  0  0  0  0
    3.1201   -2.8008   -3.2325 H   0  0  0  0  0  0  0  0  0  0  0  0
    1.4906   -3.4778   -2.8423 H   0  0  0  0  0  0  0  0  0  0  0  0
    3.0647   -5.1527   -3.8596 H   0  0  0  0  0  0  0  0  0  0  0  0
    4.2112   -4.9030   -2.4897 H   0  0  0  0  0  0  0  0  0  0  0  0
    2.5844   -5.6370   -2.1965 H   0  0  0  0  0  0  0  0  0  0  0  0
    1.6934   -1.1032   -2.3513 H   0  0  0  0  0  0  0  0  0  0  0  0
    1.6958    0.6296   -2.3164 H   0  0  0  0  0  0  0  0  0  0  0  0
    2.5483   -1.1775   -4.6741 H   0  0  0  0  0  0  0  0  0  0  0  0
    1.1819   -0.0090   -4.5924 H   0  0  0  0  0  0  0  0  0  0  0  0
    2.8829    0.5848   -4.6515 H   0  0  0  0  0  0  0  0  0  0  0  0
    3.1147    7.4280   -2.2525 H   0  0  0  0  0  0  0  0  0  0  0  0
   -0.4808    9.2672   -2.5986 H   0  0  0  0  0  0  0  0  0  0  0  0
   -0.0320   10.9165   -2.0466 H   0  0  0  0  0  0  0  0  0  0  0  0
    2.2458   10.6354   -3.1201 H   0  0  0  0  0  0  0  0  0  0  0  0
    1.6842    9.0567   -3.8018 H   0  0  0  0  0  0  0  0  0  0  0  0
    0.8756   10.5874   -4.2915 H   0  0  0  0  0  0  0  0  0  0  0  0
   -1.8587    7.5299   -0.6584 H   0  0  0  0  0  0  0  0  0  0  0  0
    0.6050    3.7316    3.6847 H   0  0  0  0  0  0  0  0  0  0  0  0
    0.2901    2.6929    5.9897 H   0  0  0  0  0  0  0  0  0  0  0  0
   -0.8873    1.5635    5.2099 H   0  0  0  0  0  0  0  0  0  0  0  0
   -1.3714    2.5245    6.6625 H   0  0  0  0  0  0  0  0  0  0  0  0
   -3.2528    3.7090    5.6355 H   0  0  0  0  0  0  0  0  0  0  0  0
   -4.0660    5.4114    4.0781 H   0  0  0  0  0  0  0  0  0  0  0  0
  1  2  2  3
  2  3  1  0
  3  4  2  0
  3  5  1  0
  5  6  2  0
  6  7  1  0
  7  8  1  0
  7  9  2  0
  9 10  1  0
 10 11  2  0
 11 12  1  0
 12 13  2  3
 13 14  1  0
 14 15  3  0
 13 16  1  0
 16 17  3  0
  1 18  1  0
 18 19  2  0
 19 20  1  0
 20 21  1  0
 21 22  1  0
 22 23  1  0
 20 24  2  0
 24 25  1  0
 24 26  1  0
 26 27  2  0
 27 28  1  0
 28 29  2  0
 29 30  1  0
 30 31  2  0
 31 32  1  0
 32 33  1  0
 33 34  1  0
 32 35  2  0
 27 36  1  0
 36 37  1  0
 37 38  1  0
 38 39  1  0
 39 40  1  0
 40 41  1  0
 41 42  2  0
 42 43  1  0
 43 44  1  0
 41 45  1  0
 45 46  1  0
 46 47  1  0
 47 48  1  0
 48 49  1  0
 49 50  1  0
 50 51  2  0
 51 52  1  0
 52 53  2  0
 53 54  1  0
 54 55  1  0
 55 56  1  0
 54 57  2  0
 49 58  2  0
 58 59  1  0
 59 60  1  0
 60 61  1  0
 61 62  1  0
 62 63  1  0
 63 64  1  0
 64 65  1  0
 65 66  1  0
 66 67  1  0
 67 68  1  0
 65 69  1  0
 69 70  1  0
 62 71  1  0
 71 72  1  0
 58 73  1  0
 73 74  2  0
 74 75  1  0
 75 76  1  0
 76 77  1  0
 77 78  1  0
 75 79  2  0
 79 80  1  0
 79 81  1  0
 81 82  2  3
 82 83  1  0
 83 84  2  0
 83 85  1  0
 85 86  2  0
 86 87  1  0
 87 88  1  0
 87 89  2  0
 89 90  1  0
 90 91  2  0
 91 92  1  0
 92 93  2  3
 93 94  1  0
 94 95  3  0
 93 96  1  0
 96 97  3  0
 12  2  1  0
 25 18  1  0
 68 26  1  0
 80 73  1  0
 92 82  1  0
 11  5  1  0
 35 28  1  0
 67 36  2  0
 91 85  1  0
 66 38  2  0
 64 39  2  0
 44 40  2  0
 63 45  2  0
 61 46  2  0
 60 48  2  0
 57 50  1  0
  1 98  1  0
  6 99  1  0
  9100  1  0
 10101  1  0
 19102  1  0
 22103  1  0
 22104  1  0
 23105  1  0
 23106  1  0
 23107  1  0
 29108  1  0
 30109  1  0
 31110  1  0
 33111  1  0
 33112  1  0
 34113  1  0
 34114  1  0
 34115  1  0
 35116  1  0
 51117  1  0
 52118  1  0
 53119  1  0
 55120  1  0
 55121  1  0
 56122  1  0
 56123  1  0
 56124  1  0
 57125  1  0
 69126  1  0
 69127  1  0
 70128  1  0
 70129  1  0
 70130  1  0
 71131  1  0
 71132  1  0
 72133  1  0
 72134  1  0
 72135  1  0
 74136  1  0
 77137  1  0
 77138  1  0
 78139  1  0
 78140  1  0
 78141  1  0
 81142  1  0
 86143  1  0
 88144  1  0
 88145  1  0
 88146  1  0
 89147  1  0
 90148  1  0
M  END

