
     RDKit          3D

145160  0  0  0  0  0  0  0  0999 V2000
   -6.3069    1.8485   -1.3062 C   0  0  0  0  0  0  0  0  0  0  0  0
   -5.8497    0.5805   -1.4058 C   0  0  0  0  0  0  0  0  0  0  0  0
   -4.7570    0.1183   -2.2738 C   0  0  0  0  0  0  0  0  0  0  0  0
   -4.3814    0.6498   -3.3518 O   0  0  0  0  0  0  0  0  0  0  0  0
   -4.2524   -1.1313   -1.7492 C   0  0  0  0  0  0  0  0  0  0  0  0
   -3.1286   -1.8482   -2.1595 C   0  0  0  0  0  0  0  0  0  0  0  0
   -2.7685   -2.9937   -1.4364 C   0  0  0  0  0  0  0  0  0  0  0  0
   -1.3571   -3.9192   -1.9110 Cl  0  0  0  0  0  0  0  0  0  0  0  0
   -3.5217   -3.3857   -0.3156 C   0  0  0  0  0  0  0  0  0  0  0  0
   -4.6510   -2.6497    0.0785 C   0  0  0  0  0  0  0  0  0  0  0  0
   -5.0280   -1.5254   -0.6748 C   0  0  0  0  0  0  0  0  0  0  0  0
   -6.1516   -0.5608   -0.4867 C   0  0  0  0  0  0  0  0  0  0  0  0
   -7.2989   -0.7776    0.2068 C   0  0  0  0  0  0  0  0  0  0  0  0
   -8.4265    0.1147    0.1318 C   0  0  0  0  0  0  0  0  0  0  0  0
   -9.3396    0.8245    0.0758 N   0  0  0  0  0  0  0  0  0  0  0  0
   -7.5357   -1.9867    0.9500 C   0  0  0  0  0  0  0  0  0  0  0  0
   -7.7381   -2.9559    1.5492 N   0  0  0  0  0  0  0  0  0  0  0  0
   -5.6575    3.0073   -1.9446 C   0  0  0  0  0  0  0  0  0  0  0  0
   -6.2919    4.1776   -2.3563 C   0  0  0  0  0  0  0  0  0  0  0  0
   -5.3963    5.1736   -2.7943 C   0  0  0  0  0  0  0  0  0  0  0  0
   -5.9239    6.8074   -3.3223 S   0  0  0  0  0  0  0  0  0  0  0  0
   -6.3349    6.3288   -5.0374 C   0  0  0  0  0  0  0  0  0  0  0  0
   -7.8287    6.0742   -5.1735 C   0  0  0  0  0  0  0  0  0  0  0  0
   -4.0614    4.8014   -2.6634 C   0  0  0  0  0  0  0  0  0  0  0  0
   -4.0001    3.2612   -2.0093 S   0  0  0  0  0  0  0  0  0  0  0  0
   -2.8506    5.5555   -3.0033 C   0  0  0  0  0  0  0  0  0  0  0  0
   -2.2446    5.5210   -4.2725 C   0  0  0  0  0  0  0  0  0  0  0  0
   -2.9163    5.1140   -5.5181 C   0  0  0  0  0  0  0  0  0  0  0  0
   -3.4516    3.8245   -5.6629 C   0  0  0  0  0  0  0  0  0  0  0  0
   -4.0896    3.4584   -6.8499 C   0  0  0  0  0  0  0  0  0  0  0  0
   -4.1815    4.3670   -7.9068 C   0  0  0  0  0  0  0  0  0  0  0  0
   -3.6166    5.6477   -7.7890 C   0  0  0  0  0  0  0  0  0  0  0  0
   -3.7428    6.6387   -8.9159 C   0  0  0  0  0  0  0  0  0  0  0  0
   -4.9864    7.5019   -8.7403 C   0  0  0  0  0  0  0  0  0  0  0  0
   -2.9911    6.0181   -6.5881 C   0  0  0  0  0  0  0  0  0  0  0  0
   -0.8534    5.6596   -4.1870 C   0  0  0  0  0  0  0  0  0  0  0  0
    0.3326    5.0256   -5.2176 S   0  0  0  0  0  0  0  0  0  0  0  0
    1.5055    5.0103   -3.9919 C   0  0  0  0  0  0  0  0  0  0  0  0
    2.4892    4.0954   -3.7041 C   0  0  0  0  0  0  0  0  0  0  0  0
    2.8917    2.9805   -4.4630 C   0  0  0  0  0  0  0  0  0  0  0  0
    3.5174    1.8783   -3.8022 C   0  0  0  0  0  0  0  0  0  0  0  0
    3.8083    0.7887   -4.5527 N   0  0  0  0  0  0  0  0  0  0  0  0
    3.2303    1.3003   -6.0188 S   0  0  0  0  0  0  0  0  0  0  0  0
    2.6244    2.8236   -5.7831 N   0  0  0  0  0  0  0  0  0  0  0  0
    3.7857    1.9863   -2.4368 C   0  0  0  0  0  0  0  0  0  0  0  0
    4.2834    1.0960   -1.5197 C   0  0  0  0  0  0  0  0  0  0  0  0
    4.3965   -0.5918   -1.3511 S   0  0  0  0  0  0  0  0  0  0  0  0
    4.5170   -0.4439    0.3512 C   0  0  0  0  0  0  0  0  0  0  0  0
    4.3792   -1.3606    1.3940 C   0  0  0  0  0  0  0  0  0  0  0  0
    4.2628   -2.8196    1.2124 C   0  0  0  0  0  0  0  0  0  0  0  0
    5.3361   -3.5606    0.6957 C   0  0  0  0  0  0  0  0  0  0  0  0
    5.2469   -4.9525    0.6040 C   0  0  0  0  0  0  0  0  0  0  0  0
    4.0908   -5.6145    1.0323 C   0  0  0  0  0  0  0  0  0  0  0  0
    3.0066   -4.8823    1.5433 C   0  0  0  0  0  0  0  0  0  0  0  0
    1.7590   -5.5815    2.0155 C   0  0  0  0  0  0  0  0  0  0  0  0
    0.6821   -5.5669    0.9366 C   0  0  0  0  0  0  0  0  0  0  0  0
    3.0884   -3.4841    1.5987 C   0  0  0  0  0  0  0  0  0  0  0  0
    4.2172   -0.6954    2.6261 C   0  0  0  0  0  0  0  0  0  0  0  0
    4.1957    0.9905    2.3969 S   0  0  0  0  0  0  0  0  0  0  0  0
    4.4451    0.8690    0.7438 C   0  0  0  0  0  0  0  0  0  0  0  0
    4.2999    1.7341   -0.3221 C   0  0  0  0  0  0  0  0  0  0  0  0
    3.8338    3.0006   -0.3945 N   0  0  0  0  0  0  0  0  0  0  0  0
    3.4465    3.1281   -1.6981 C   0  0  0  0  0  0  0  0  0  0  0  0
    2.6491    4.1290   -2.3109 C   0  0  0  0  0  0  0  0  0  0  0  0
    1.6762    4.9097   -1.7358 N   0  0  0  0  0  0  0  0  0  0  0  0
    0.9985    5.4409   -2.7943 C   0  0  0  0  0  0  0  0  0  0  0  0
   -0.3511    5.8129   -2.9142 C   0  0  0  0  0  0  0  0  0  0  0  0
   -1.6372    5.7647   -1.8414 S   0  0  0  0  0  0  0  0  0  0  0  0
    1.1141    4.7720   -0.3811 C   0  0  0  0  0  0  0  0  0  0  0  0
    1.0949    6.1153    0.3455 C   0  0  0  0  0  0  0  0  0  0  0  0
    4.1610    4.0754    0.5523 C   0  0  0  0  0  0  0  0  0  0  0  0
    5.6705    4.1997    0.7392 C   0  0  0  0  0  0  0  0  0  0  0  0
    4.0151   -1.3436    3.9207 C   0  0  0  0  0  0  0  0  0  0  0  0
    5.0298   -1.8089    4.7468 C   0  0  0  0  0  0  0  0  0  0  0  0
    4.5533   -2.5696    5.8212 C   0  0  0  0  0  0  0  0  0  0  0  0
    5.6422   -3.3074    7.0464 S   0  0  0  0  0  0  0  0  0  0  0  0
    5.6720   -1.8385    8.1364 C   0  0  0  0  0  0  0  0  0  0  0  0
    4.4319   -1.7850    9.0189 C   0  0  0  0  0  0  0  0  0  0  0  0
    3.1676   -2.7204    5.8178 C   0  0  0  0  0  0  0  0  0  0  0  0
    2.5318   -1.8668    4.5167 S   0  0  0  0  0  0  0  0  0  0  0  0
    2.3794   -3.6143    6.6736 C   0  0  0  0  0  0  0  0  0  0  0  0
    2.5095   -4.9531    6.6428 C   0  0  0  0  0  0  0  0  0  0  0  0
    3.2313   -5.7183    5.6135 C   0  0  0  0  0  0  0  0  0  0  0  0
    4.0391   -5.2647    4.7618 O   0  0  0  0  0  0  0  0  0  0  0  0
    2.7701   -7.0883    5.6604 C   0  0  0  0  0  0  0  0  0  0  0  0
    3.0726   -8.1276    4.7783 C   0  0  0  0  0  0  0  0  0  0  0  0
    2.4024   -9.3504    4.9332 C   0  0  0  0  0  0  0  0  0  0  0  0
    2.7739  -10.7957    3.7431 Br  0  0  0  0  0  0  0  0  0  0  0  0
    1.4326   -9.5021    5.9419 C   0  0  0  0  0  0  0  0  0  0  0  0
    1.1343   -8.4402    6.8125 C   0  0  0  0  0  0  0  0  0  0  0  0
    1.8380   -7.2309    6.6753 C   0  0  0  0  0  0  0  0  0  0  0  0
    1.7017   -5.9447    7.4126 C   0  0  0  0  0  0  0  0  0  0  0  0
    1.1700   -5.7665    8.6502 C   0  0  0  0  0  0  0  0  0  0  0  0
    1.3328   -4.5326    9.3790 C   0  0  0  0  0  0  0  0  0  0  0  0
    1.4737   -3.5512    9.9734 N   0  0  0  0  0  0  0  0  0  0  0  0
    0.5440   -6.8315    9.3898 C   0  0  0  0  0  0  0  0  0  0  0  0
    0.0384   -7.6703   10.0039 N   0  0  0  0  0  0  0  0  0  0  0  0
   -7.0946    2.0948   -0.6166 H   0  0  0  0  0  0  0  0  0  0  0  0
   -2.5406   -1.5197   -3.0079 H   0  0  0  0  0  0  0  0  0  0  0  0
   -3.2240   -4.2536    0.2591 H   0  0  0  0  0  0  0  0  0  0  0  0
   -5.1745   -2.9459    0.9714 H   0  0  0  0  0  0  0  0  0  0  0  0
   -7.3666    4.3104   -2.3342 H   0  0  0  0  0  0  0  0  0  0  0  0
   -5.7752    5.4281   -5.3569 H   0  0  0  0  0  0  0  0  0  0  0  0
   -6.0503    7.1663   -5.7070 H   0  0  0  0  0  0  0  0  0  0  0  0
   -8.0737    5.8642   -6.2360 H   0  0  0  0  0  0  0  0  0  0  0  0
   -8.4000    6.9704   -4.8471 H   0  0  0  0  0  0  0  0  0  0  0  0
   -8.1273    5.2042   -4.5525 H   0  0  0  0  0  0  0  0  0  0  0  0
   -3.3682    3.1004   -4.8638 H   0  0  0  0  0  0  0  0  0  0  0  0
   -4.5135    2.4677   -6.9486 H   0  0  0  0  0  0  0  0  0  0  0  0
   -4.6862    4.0715   -8.8174 H   0  0  0  0  0  0  0  0  0  0  0  0
   -2.8429    7.2926   -8.9524 H   0  0  0  0  0  0  0  0  0  0  0  0
   -3.8010    6.1056   -9.8909 H   0  0  0  0  0  0  0  0  0  0  0  0
   -4.8945    8.1259   -7.8266 H   0  0  0  0  0  0  0  0  0  0  0  0
   -5.8898    6.8632   -8.6593 H   0  0  0  0  0  0  0  0  0  0  0  0
   -5.1046    8.1701   -9.6194 H   0  0  0  0  0  0  0  0  0  0  0  0
   -2.5723    7.0117   -6.4800 H   0  0  0  0  0  0  0  0  0  0  0  0
    6.2451   -3.0615    0.3847 H   0  0  0  0  0  0  0  0  0  0  0  0
    6.0829   -5.5216    0.2182 H   0  0  0  0  0  0  0  0  0  0  0  0
    4.0480   -6.6949    0.9799 H   0  0  0  0  0  0  0  0  0  0  0  0
    1.9803   -6.6350    2.2940 H   0  0  0  0  0  0  0  0  0  0  0  0
    1.3702   -5.0783    2.9260 H   0  0  0  0  0  0  0  0  0  0  0  0
    1.0385   -6.0988    0.0289 H   0  0  0  0  0  0  0  0  0  0  0  0
    0.4166   -4.5232    0.6689 H   0  0  0  0  0  0  0  0  0  0  0  0
   -0.2311   -6.0722    1.3133 H   0  0  0  0  0  0  0  0  0  0  0  0
    2.2360   -2.9157    1.9446 H   0  0  0  0  0  0  0  0  0  0  0  0
    0.0954    4.3448   -0.4294 H   0  0  0  0  0  0  0  0  0  0  0  0
    1.6587    4.0339    0.2260 H   0  0  0  0  0  0  0  0  0  0  0  0
    2.1113    6.5597    0.3812 H   0  0  0  0  0  0  0  0  0  0  0  0
    0.7364    5.9716    1.3877 H   0  0  0  0  0  0  0  0  0  0  0  0
    0.4235    6.8347   -0.1678 H   0  0  0  0  0  0  0  0  0  0  0  0
    3.6827    3.8696    1.5337 H   0  0  0  0  0  0  0  0  0  0  0  0
    3.8023    5.0471    0.1659 H   0  0  0  0  0  0  0  0  0  0  0  0
    5.8940    5.0620    1.4037 H   0  0  0  0  0  0  0  0  0  0  0  0
    6.0848    3.2799    1.2033 H   0  0  0  0  0  0  0  0  0  0  0  0
    6.1625    4.3662   -0.2430 H   0  0  0  0  0  0  0  0  0  0  0  0
    6.0815   -1.6300    4.5603 H   0  0  0  0  0  0  0  0  0  0  0  0
    5.7591   -0.9054    7.5399 H   0  0  0  0  0  0  0  0  0  0  0  0
    6.5689   -1.9147    8.7871 H   0  0  0  0  0  0  0  0  0  0  0  0
    4.3031   -2.7469    9.5582 H   0  0  0  0  0  0  0  0  0  0  0  0
    3.5302   -1.5807    8.4083 H   0  0  0  0  0  0  0  0  0  0  0  0
    4.5423   -0.9718    9.7656 H   0  0  0  0  0  0  0  0  0  0  0  0
    1.5857   -3.1607    7.2431 H   0  0  0  0  0  0  0  0  0  0  0  0
    3.7871   -7.9852    3.9786 H   0  0  0  0  0  0  0  0  0  0  0  0
    0.8989  -10.4383    6.0387 H   0  0  0  0  0  0  0  0  0  0  0  0
    0.3457   -8.5722    7.5362 H   0  0  0  0  0  0  0  0  0  0  0  0
  1  2  2  3
  2  3  1  0
  3  4  2  0
  3  5  1  0
  5  6  2  0
  6  7  1  0
  7  8  1  0
  7  9  2  0
  9 10  1  0
 10 11  2  0
 11 12  1  0
 12 13  2  3
 13 14  1  0
 14 15  3  0
 13 16  1  0
 16 17  3  0
  1 18  1  0
 18 19  2  0
 19 20  1  0
 20 21  1  0
 21 22  1  0
 22 23  1  0
 20 24  2  0
 24 25  1  0
 24 26  1  0
 26 27  2  0
 27 28  1  0
 28 29  2  0
 29 30  1  0
 30 31  2  0
 31 32  1  0
 32 33  1  0
 33 34  1  0
 32 35  2  0
 27 36  1  0
 36 37  1  0
 37 38  1  0
 38 39  1  0
 39 40  1  0
 40 41  1  0
 41 42  2  0
 42 43  1  0
 43 44  1  0
 41 45  1  0
 45 46  1  0
 46 47  1  0
 47 48  1  0
 48 49  1  0
 49 50  1  0
 50 51  2  0
 51 52  1  0
 52 53  2  0
 53 54  1  0
 54 55  1  0
 55 56  1  0
 54 57  2  0
 49 58  2  0
 58 59  1  0
 59 60  1  0
 60 61  1  0
 61 62  1  0
 62 63  1  0
 63 64  1  0
 64 65  1  0
 65 66  1  0
 66 67  1  0
 67 68  1  0
 65 69  1  0
 69 70  1  0
 62 71  1  0
 71 72  1  0
 58 73  1  0
 73 74  2  0
 74 75  1  0
 75 76  1  0
 76 77  1  0
 77 78  1  0
 75 79  2  0
 79 80  1  0
 79 81  1  0
 81 82  2  3
 82 83  1  0
 83 84  2  0
 83 85  1  0
 85 86  2  0
 86 87  1  0
 87 88  1  0
 87 89  2  0
 89 90  1  0
 90 91  2  0
 91 92  1  0
 92 93  2  3
 93 94  1  0
 94 95  3  0
 93 96  1  0
 96 97  3  0
 12  2  1  0
 25 18  1  0
 68 26  1  0
 80 73  1  0
 92 82  1  0
 11  5  1  0
 35 28  1  0
 67 36  2  0
 91 85  1  0
 66 38  2  0
 64 39  2  0
 44 40  2  0
 63 45  2  0
 61 46  2  0
 60 48  2  0
 57 50  1  0
  1 98  1  0
  6 99  1  0
  9100  1  0
 10101  1  0
 19102  1  0
 22103  1  0
 22104  1  0
 23105  1  0
 23106  1  0
 23107  1  0
 29108  1  0
 30109  1  0
 31110  1  0
 33111  1  0
 33112  1  0
 34113  1  0
 34114  1  0
 34115  1  0
 35116  1  0
 51117  1  0
 52118  1  0
 53119  1  0
 55120  1  0
 55121  1  0
 56122  1  0
 56123  1  0
 56124  1  0
 57125  1  0
 69126  1  0
 69127  1  0
 70128  1  0
 70129  1  0
 70130  1  0
 71131  1  0
 71132  1  0
 72133  1  0
 72134  1  0
 72135  1  0
 74136  1  0
 77137  1  0
 77138  1  0
 78139  1  0
 78140  1  0
 78141  1  0
 81142  1  0
 86143  1  0
 89144  1  0
 90145  1  0
M  END

