
     RDKit          3D

144160  0  0  0  0  0  0  0  0999 V2000
    6.2048   -4.2209    4.3137 C   0  0  0  0  0  0  0  0  0  0  0  0
    6.1495   -3.9726    2.9821 C   0  0  0  0  0  0  0  0  0  0  0  0
    5.2125   -3.0519    2.3048 C   0  0  0  0  0  0  0  0  0  0  0  0
    4.2935   -2.3801    2.8448 O   0  0  0  0  0  0  0  0  0  0  0  0
    5.4621   -3.0908    0.8868 C   0  0  0  0  0  0  0  0  0  0  0  0
    4.9839   -2.1880   -0.0680 C   0  0  0  0  0  0  0  0  0  0  0  0
    5.5451   -2.2163   -1.3516 C   0  0  0  0  0  0  0  0  0  0  0  0
    5.0269   -1.0563   -2.5690 Cl  0  0  0  0  0  0  0  0  0  0  0  0
    6.5877   -3.1129   -1.6320 C   0  0  0  0  0  0  0  0  0  0  0  0
    7.0551   -4.0175   -0.6561 C   0  0  0  0  0  0  0  0  0  0  0  0
    6.4563   -4.0126    0.6163 C   0  0  0  0  0  0  0  0  0  0  0  0
    6.9222   -4.6277    1.8875 C   0  0  0  0  0  0  0  0  0  0  0  0
    7.9406   -5.5153    2.0283 C   0  0  0  0  0  0  0  0  0  0  0  0
    8.7911   -5.4674    3.1892 C   0  0  0  0  0  0  0  0  0  0  0  0
    9.5161   -5.3579    4.0824 N   0  0  0  0  0  0  0  0  0  0  0  0
    8.3974   -6.3287    0.9351 C   0  0  0  0  0  0  0  0  0  0  0  0
    8.7576   -6.9840    0.0400 N   0  0  0  0  0  0  0  0  0  0  0  0
    5.5478   -3.3399    5.2873 C   0  0  0  0  0  0  0  0  0  0  0  0
    4.3399   -3.6113    5.9237 C   0  0  0  0  0  0  0  0  0  0  0  0
    3.6674   -2.4482    6.3604 C   0  0  0  0  0  0  0  0  0  0  0  0
    2.0495   -2.5466    7.1458 S   0  0  0  0  0  0  0  0  0  0  0  0
    1.0770   -2.8674    5.6297 C   0  0  0  0  0  0  0  0  0  0  0  0
    0.8394   -1.5945    4.8340 C   0  0  0  0  0  0  0  0  0  0  0  0
    4.3772   -1.2528    6.1249 C   0  0  0  0  0  0  0  0  0  0  0  0
    5.8213   -1.6869    5.3694 S   0  0  0  0  0  0  0  0  0  0  0  0
    3.7513    0.0498    5.8114 C   0  0  0  0  0  0  0  0  0  0  0  0
    2.8090    0.7799    6.5711 C   0  0  0  0  0  0  0  0  0  0  0  0
    2.7611    0.7515    8.0412 C   0  0  0  0  0  0  0  0  0  0  0  0
    3.8749    1.2149    8.7549 C   0  0  0  0  0  0  0  0  0  0  0  0
    3.8891    1.1819   10.1489 C   0  0  0  0  0  0  0  0  0  0  0  0
    2.7982    0.6597   10.8475 C   0  0  0  0  0  0  0  0  0  0  0  0
    1.6759    0.1847   10.1465 C   0  0  0  0  0  0  0  0  0  0  0  0
    0.5783   -0.5156   10.9080 C   0  0  0  0  0  0  0  0  0  0  0  0
    0.9864   -1.9556   11.2125 C   0  0  0  0  0  0  0  0  0  0  0  0
    1.6430    0.2662    8.7441 C   0  0  0  0  0  0  0  0  0  0  0  0
    2.2025    1.7759    5.7896 C   0  0  0  0  0  0  0  0  0  0  0  0
    0.7105    2.6169    5.8990 S   0  0  0  0  0  0  0  0  0  0  0  0
    0.7923    3.0628    4.2571 C   0  0  0  0  0  0  0  0  0  0  0  0
   -0.0612    3.4237    3.2422 C   0  0  0  0  0  0  0  0  0  0  0  0
   -1.3426    3.9868    3.2589 C   0  0  0  0  0  0  0  0  0  0  0  0
   -1.9913    4.2527    2.0126 C   0  0  0  0  0  0  0  0  0  0  0  0
   -3.2367    4.7821    2.0696 N   0  0  0  0  0  0  0  0  0  0  0  0
   -3.4185    4.8939    3.7131 S   0  0  0  0  0  0  0  0  0  0  0  0
   -2.0232    4.3095    4.3868 N   0  0  0  0  0  0  0  0  0  0  0  0
   -1.3521    3.8652    0.8262 C   0  0  0  0  0  0  0  0  0  0  0  0
   -1.8471    3.7567   -0.4366 C   0  0  0  0  0  0  0  0  0  0  0  0
   -3.2745    4.1043   -1.2812 S   0  0  0  0  0  0  0  0  0  0  0  0
   -2.7652    3.1511   -2.6019 C   0  0  0  0  0  0  0  0  0  0  0  0
   -3.3583    2.8245   -3.8253 C   0  0  0  0  0  0  0  0  0  0  0  0
   -4.4883    3.6424   -4.2616 C   0  0  0  0  0  0  0  0  0  0  0  0
   -5.8086    3.2929   -3.9466 C   0  0  0  0  0  0  0  0  0  0  0  0
   -6.8610    4.1416   -4.3214 C   0  0  0  0  0  0  0  0  0  0  0  0
   -6.5869    5.3497   -4.9798 C   0  0  0  0  0  0  0  0  0  0  0  0
   -5.2646    5.7196   -5.2644 C   0  0  0  0  0  0  0  0  0  0  0  0
   -4.9560    7.0545   -5.8969 C   0  0  0  0  0  0  0  0  0  0  0  0
   -4.1880    6.8988   -7.2129 C   0  0  0  0  0  0  0  0  0  0  0  0
   -4.2196    4.8622   -4.8904 C   0  0  0  0  0  0  0  0  0  0  0  0
   -2.5773    1.8842   -4.5899 C   0  0  0  0  0  0  0  0  0  0  0  0
   -1.1851    1.5693   -3.6253 S   0  0  0  0  0  0  0  0  0  0  0  0
   -1.5527    2.5773   -2.3564 C   0  0  0  0  0  0  0  0  0  0  0  0
   -1.0082    2.9486   -1.1294 C   0  0  0  0  0  0  0  0  0  0  0  0
    0.0568    2.5413   -0.3963 N   0  0  0  0  0  0  0  0  0  0  0  0
   -0.1237    3.1813    0.8161 C   0  0  0  0  0  0  0  0  0  0  0  0
    0.5915    3.0768    2.0430 C   0  0  0  0  0  0  0  0  0  0  0  0
    1.8581    2.6159    2.3098 N   0  0  0  0  0  0  0  0  0  0  0  0
    1.9061    2.5874    3.6614 C   0  0  0  0  0  0  0  0  0  0  0  0
    2.6998    1.8533    4.5144 C   0  0  0  0  0  0  0  0  0  0  0  0
    3.8407    0.6793    4.2352 S   0  0  0  0  0  0  0  0  0  0  0  0
    3.0661    2.5920    1.4713 C   0  0  0  0  0  0  0  0  0  0  0  0
    3.1886    3.8464    0.5972 C   0  0  0  0  0  0  0  0  0  0  0  0
    0.9313    1.4174   -0.7578 C   0  0  0  0  0  0  0  0  0  0  0  0
    0.7057    0.2058    0.1454 C   0  0  0  0  0  0  0  0  0  0  0  0
   -2.9578    1.0530   -5.8282 C   0  0  0  0  0  0  0  0  0  0  0  0
   -2.2012   -0.0961   -6.2488 C   0  0  0  0  0  0  0  0  0  0  0  0
   -0.8021   -0.2531   -5.9115 C   0  0  0  0  0  0  0  0  0  0  0  0
    0.3181   -0.3905   -5.6685 N   0  0  0  0  0  0  0  0  0  0  0  0
   -2.7825   -1.0953   -7.0830 C   0  0  0  0  0  0  0  0  0  0  0  0
   -1.9738   -2.1981   -7.5839 C   0  0  0  0  0  0  0  0  0  0  0  0
   -1.3447   -3.0807   -7.9831 N   0  0  0  0  0  0  0  0  0  0  0  0
   -4.1349   -0.9989   -7.4697 C   0  0  0  0  0  0  0  0  0  0  0  0
   -4.7592    0.2373   -7.3260 C   0  0  0  0  0  0  0  0  0  0  0  0
   -4.1543    1.2806   -6.5588 C   0  0  0  0  0  0  0  0  0  0  0  0
   -4.7657    2.4807   -6.6404 N   0  0  0  0  0  0  0  0  0  0  0  0
   -6.0771    2.1307   -7.5741 S   0  0  0  0  0  0  0  0  0  0  0  0
   -5.9259    0.5373   -7.9576 N   0  0  0  0  0  0  0  0  0  0  0  0
   -4.8657   -2.1029   -8.1459 C   0  0  0  0  0  0  0  0  0  0  0  0
   -4.9489   -3.3702   -7.6794 C   0  0  0  0  0  0  0  0  0  0  0  0
   -4.2864   -3.9136   -6.4793 C   0  0  0  0  0  0  0  0  0  0  0  0
   -3.8157   -3.2592   -5.5139 O   0  0  0  0  0  0  0  0  0  0  0  0
   -4.3465   -5.3580   -6.5334 C   0  0  0  0  0  0  0  0  0  0  0  0
   -3.6801   -6.3052   -5.7548 C   0  0  0  0  0  0  0  0  0  0  0  0
   -3.8162   -7.6659   -6.0849 C   0  0  0  0  0  0  0  0  0  0  0  0
   -2.9716   -8.8904   -5.1484 Cl  0  0  0  0  0  0  0  0  0  0  0  0
   -4.5888   -8.0513   -7.2015 C   0  0  0  0  0  0  0  0  0  0  0  0
   -5.2549   -7.0766   -7.9657 C   0  0  0  0  0  0  0  0  0  0  0  0
   -5.1356   -5.7243   -7.6011 C   0  0  0  0  0  0  0  0  0  0  0  0
   -5.6637   -4.5305   -8.2978 C   0  0  0  0  0  0  0  0  0  0  0  0
   -6.8673   -4.4982   -8.9190 C   0  0  0  0  0  0  0  0  0  0  0  0
   -7.8432   -5.5039   -8.5671 C   0  0  0  0  0  0  0  0  0  0  0  0
   -8.5295   -6.3144   -8.1278 N   0  0  0  0  0  0  0  0  0  0  0  0
   -7.3409   -3.3629   -9.6651 C   0  0  0  0  0  0  0  0  0  0  0  0
   -7.7276   -2.4803  -10.3036 N   0  0  0  0  0  0  0  0  0  0  0  0
    6.7631   -5.0594    4.6928 H   0  0  0  0  0  0  0  0  0  0  0  0
    4.2170   -1.4674    0.1819 H   0  0  0  0  0  0  0  0  0  0  0  0
    7.0665   -3.0869   -2.5988 H   0  0  0  0  0  0  0  0  0  0  0  0
    7.9054   -4.6382   -0.8969 H   0  0  0  0  0  0  0  0  0  0  0  0
    3.9035   -4.6040    5.9743 H   0  0  0  0  0  0  0  0  0  0  0  0
    0.0906   -3.2712    5.9456 H   0  0  0  0  0  0  0  0  0  0  0  0
    1.5780   -3.6285    4.9912 H   0  0  0  0  0  0  0  0  0  0  0  0
    0.0589   -1.7857    4.0659 H   0  0  0  0  0  0  0  0  0  0  0  0
    0.4807   -0.7766    5.4949 H   0  0  0  0  0  0  0  0  0  0  0  0
    1.7677   -1.2850    4.3146 H   0  0  0  0  0  0  0  0  0  0  0  0
    4.7389    1.6046    8.2273 H   0  0  0  0  0  0  0  0  0  0  0  0
    4.7502    1.5434   10.6916 H   0  0  0  0  0  0  0  0  0  0  0  0
    2.8380    0.6096   11.9275 H   0  0  0  0  0  0  0  0  0  0  0  0
    0.3859    0.0207   11.8664 H   0  0  0  0  0  0  0  0  0  0  0  0
   -0.3666   -0.5100   10.3212 H   0  0  0  0  0  0  0  0  0  0  0  0
    0.2050   -2.4449   11.8359 H   0  0  0  0  0  0  0  0  0  0  0  0
    1.1057   -2.5288   10.2728 H   0  0  0  0  0  0  0  0  0  0  0  0
    1.9482   -1.9811   11.7736 H   0  0  0  0  0  0  0  0  0  0  0  0
    0.7768   -0.0940    8.2027 H   0  0  0  0  0  0  0  0  0  0  0  0
   -6.0219    2.3716   -3.4231 H   0  0  0  0  0  0  0  0  0  0  0  0
   -7.8849    3.8674   -4.0932 H   0  0  0  0  0  0  0  0  0  0  0  0
   -7.4172    5.9950   -5.2498 H   0  0  0  0  0  0  0  0  0  0  0  0
   -4.3420    7.6525   -5.1881 H   0  0  0  0  0  0  0  0  0  0  0  0
   -5.8925    7.6250   -6.1034 H   0  0  0  0  0  0  0  0  0  0  0  0
   -4.0464    7.8994   -7.6767 H   0  0  0  0  0  0  0  0  0  0  0  0
   -3.1821    6.4637   -7.0356 H   0  0  0  0  0  0  0  0  0  0  0  0
   -4.7493    6.2503   -7.9115 H   0  0  0  0  0  0  0  0  0  0  0  0
   -3.1919    5.1541   -5.0748 H   0  0  0  0  0  0  0  0  0  0  0  0
    3.9658    2.5881    2.1195 H   0  0  0  0  0  0  0  0  0  0  0  0
    3.1458    1.6467    0.9160 H   0  0  0  0  0  0  0  0  0  0  0  0
    2.3520    3.9348   -0.1184 H   0  0  0  0  0  0  0  0  0  0  0  0
    3.1951    4.7511    1.2433 H   0  0  0  0  0  0  0  0  0  0  0  0
    4.1366    3.8141    0.0268 H   0  0  0  0  0  0  0  0  0  0  0  0
    0.7225    1.0872   -1.7919 H   0  0  0  0  0  0  0  0  0  0  0  0
    1.9841    1.7280   -0.8091 H   0  0  0  0  0  0  0  0  0  0  0  0
   -0.3544   -0.1266    0.0760 H   0  0  0  0  0  0  0  0  0  0  0  0
    0.9277    0.4429    1.2031 H   0  0  0  0  0  0  0  0  0  0  0  0
    1.3692   -0.6270   -0.1677 H   0  0  0  0  0  0  0  0  0  0  0  0
   -5.4073   -1.8349   -9.0371 H   0  0  0  0  0  0  0  0  0  0  0  0
   -3.0382   -6.0012   -4.9305 H   0  0  0  0  0  0  0  0  0  0  0  0
   -4.6623   -9.0970   -7.4811 H   0  0  0  0  0  0  0  0  0  0  0  0
   -5.8300   -7.3768   -8.8353 H   0  0  0  0  0  0  0  0  0  0  0  0
  1  2  2  3
  2  3  1  0
  3  4  2  0
  3  5  1  0
  5  6  2  0
  6  7  1  0
  7  8  1  0
  7  9  2  0
  9 10  1  0
 10 11  2  0
 11 12  1  0
 12 13  2  3
 13 14  1  0
 14 15  3  0
 13 16  1  0
 16 17  3  0
  1 18  1  0
 18 19  2  0
 19 20  1  0
 20 21  1  0
 21 22  1  0
 22 23  1  0
 20 24  2  0
 24 25  1  0
 24 26  1  0
 26 27  2  0
 27 28  1  0
 28 29  2  0
 29 30  1  0
 30 31  2  0
 31 32  1  0
 32 33  1  0
 33 34  1  0
 32 35  2  0
 27 36  1  0
 36 37  1  0
 37 38  1  0
 38 39  1  0
 39 40  1  0
 40 41  1  0
 41 42  2  0
 42 43  1  0
 43 44  1  0
 41 45  1  0
 45 46  1  0
 46 47  1  0
 47 48  1  0
 48 49  1  0
 49 50  1  0
 50 51  2  0
 51 52  1  0
 52 53  2  0
 53 54  1  0
 54 55  1  0
 55 56  1  0
 54 57  2  0
 49 58  2  0
 58 59  1  0
 59 60  1  0
 60 61  1  0
 61 62  1  0
 62 63  1  0
 63 64  1  0
 64 65  1  0
 65 66  1  0
 66 67  1  0
 67 68  1  0
 65 69  1  0
 69 70  1  0
 62 71  1  0
 71 72  1  0
 58 73  1  0
 73 74  2  0
 74 75  1  0
 75 76  3  0
 74 77  1  0
 77 78  1  0
 78 79  3  0
 77 80  2  0
 80 81  1  0
 81 82  1  0
 82 83  2  0
 83 84  1  0
 84 85  1  0
 80 86  1  0
 86 87  2  3
 87 88  1  0
 88 89  2  0
 88 90  1  0
 90 91  2  0
 91 92  1  0
 92 93  1  0
 92 94  2  0
 94 95  1  0
 95 96  2  0
 96 97  1  0
 97 98  2  3
 98 99  1  0
 99100  3  0
 98101  1  0
101102  3  0
 12  2  1  0
 25 18  1  0
 68 26  1  0
 82 73  1  0
 97 87  1  0
 11  5  1  0
 35 28  1  0
 67 36  2  0
 85 81  2  0
 96 90  1  0
 66 38  2  0
 64 39  2  0
 44 40  2  0
 63 45  2  0
 61 46  2  0
 60 48  2  0
 57 50  1  0
  1103  1  0
  6104  1  0
  9105  1  0
 10106  1  0
 19107  1  0
 22108  1  0
 22109  1  0
 23110  1  0
 23111  1  0
 23112  1  0
 29113  1  0
 30114  1  0
 31115  1  0
 33116  1  0
 33117  1  0
 34118  1  0
 34119  1  0
 34120  1  0
 35121  1  0
 51122  1  0
 52123  1  0
 53124  1  0
 55125  1  0
 55126  1  0
 56127  1  0
 56128  1  0
 56129  1  0
 57130  1  0
 69131  1  0
 69132  1  0
 70133  1  0
 70134  1  0
 70135  1  0
 71136  1  0
 71137  1  0
 72138  1  0
 72139  1  0
 72140  1  0
 86141  1  0
 91142  1  0
 94143  1  0
 95144  1  0
M  END

