
     RDKit          3D

140154  0  0  0  0  0  0  0  0999 V2000
   -5.0862    7.2659   -2.7171 C   0  0  0  0  0  0  0  0  0  0  0  0
   -5.9089    6.3476   -3.2466 C   0  0  0  0  0  0  0  0  0  0  0  0
   -7.2775    6.2781   -2.7186 C   0  0  0  0  0  0  0  0  0  0  0  0
   -8.0087    7.2739   -2.4765 O   0  0  0  0  0  0  0  0  0  0  0  0
   -7.6277    4.8979   -2.4309 C   0  0  0  0  0  0  0  0  0  0  0  0
   -8.7809    4.4050   -1.8183 C   0  0  0  0  0  0  0  0  0  0  0  0
   -8.8618    3.0254   -1.5652 C   0  0  0  0  0  0  0  0  0  0  0  0
  -10.2866    2.3589   -0.7906 Cl  0  0  0  0  0  0  0  0  0  0  0  0
   -7.7939    2.1801   -1.9123 C   0  0  0  0  0  0  0  0  0  0  0  0
   -6.6385    2.7008   -2.5146 C   0  0  0  0  0  0  0  0  0  0  0  0
   -6.5745    4.0781   -2.7829 C   0  0  0  0  0  0  0  0  0  0  0  0
   -5.4938    4.9138   -3.3651 C   0  0  0  0  0  0  0  0  0  0  0  0
   -4.3709    4.5023   -4.0002 C   0  0  0  0  0  0  0  0  0  0  0  0
   -3.5252    5.4428   -4.6906 C   0  0  0  0  0  0  0  0  0  0  0  0
   -2.8510    6.1953   -5.2588 N   0  0  0  0  0  0  0  0  0  0  0  0
   -3.9705    3.1229   -4.0791 C   0  0  0  0  0  0  0  0  0  0  0  0
   -3.6301    2.0182   -4.1466 N   0  0  0  0  0  0  0  0  0  0  0  0
   -4.1528    6.8919   -1.6399 C   0  0  0  0  0  0  0  0  0  0  0  0
   -4.4972    6.1220   -0.5370 C   0  0  0  0  0  0  0  0  0  0  0  0
   -3.3954    5.6175    0.1661 C   0  0  0  0  0  0  0  0  0  0  0  0
   -3.5724    4.6560    1.2771 C   0  0  0  0  0  0  0  0  0  0  0  0
   -4.5812    3.8965    1.2739 O   0  0  0  0  0  0  0  0  0  0  0  0
   -2.5832    4.5689    2.4071 C   0  0  0  0  0  0  0  0  0  0  0  0
   -3.2597    4.2613    3.7441 C   0  0  0  0  0  0  0  0  0  0  0  0
   -2.1642    6.0173   -0.3806 C   0  0  0  0  0  0  0  0  0  0  0  0
   -2.4822    6.9572   -1.7428 S   0  0  0  0  0  0  0  0  0  0  0  0
   -0.9204    5.2543   -0.2593 C   0  0  0  0  0  0  0  0  0  0  0  0
    0.1495    5.4914    0.6316 C   0  0  0  0  0  0  0  0  0  0  0  0
    0.2422    6.6333    1.5687 C   0  0  0  0  0  0  0  0  0  0  0  0
    0.6378    6.4290    2.9009 C   0  0  0  0  0  0  0  0  0  0  0  0
    0.7021    7.5031    3.7917 C   0  0  0  0  0  0  0  0  0  0  0  0
    0.3632    8.7893    3.3658 C   0  0  0  0  0  0  0  0  0  0  0  0
   -0.0464    9.0088    2.0433 C   0  0  0  0  0  0  0  0  0  0  0  0
   -0.3848   10.3986    1.5761 C   0  0  0  0  0  0  0  0  0  0  0  0
    0.8557   11.1072    1.0401 C   0  0  0  0  0  0  0  0  0  0  0  0
   -0.0893    7.9308    1.1461 C   0  0  0  0  0  0  0  0  0  0  0  0
    1.0906    4.4586    0.5383 C   0  0  0  0  0  0  0  0  0  0  0  0
    2.5602    4.0933    1.3456 S   0  0  0  0  0  0  0  0  0  0  0  0
    2.6985    2.6332    0.4855 C   0  0  0  0  0  0  0  0  0  0  0  0
    3.5580    1.5835    0.3230 C   0  0  0  0  0  0  0  0  0  0  0  0
    4.8211    1.2960    0.8524 C   0  0  0  0  0  0  0  0  0  0  0  0
    5.5022    0.1216    0.3997 C   0  0  0  0  0  0  0  0  0  0  0  0
    6.7147   -0.1285    0.9457 N   0  0  0  0  0  0  0  0  0  0  0  0
    6.8413    1.1740    1.9619 S   0  0  0  0  0  0  0  0  0  0  0  0
    5.4551    2.0600    1.7743 N   0  0  0  0  0  0  0  0  0  0  0  0
    4.8656   -0.7130   -0.5339 C   0  0  0  0  0  0  0  0  0  0  0  0
    5.1364   -1.9993   -0.9225 C   0  0  0  0  0  0  0  0  0  0  0  0
    6.1537   -3.2403   -0.3567 S   0  0  0  0  0  0  0  0  0  0  0  0
    5.1010   -4.4406   -0.9526 C   0  0  0  0  0  0  0  0  0  0  0  0
    5.0332   -5.8294   -0.7918 C   0  0  0  0  0  0  0  0  0  0  0  0
    6.0640   -6.6473   -0.1237 C   0  0  0  0  0  0  0  0  0  0  0  0
    6.5823   -7.7813   -0.7671 C   0  0  0  0  0  0  0  0  0  0  0  0
    7.5399   -8.5761   -0.1357 C   0  0  0  0  0  0  0  0  0  0  0  0
    7.9928   -8.2449    1.1410 C   0  0  0  0  0  0  0  0  0  0  0  0
    7.4958   -7.1048    1.7952 C   0  0  0  0  0  0  0  0  0  0  0  0
    7.9559   -6.7750    3.1898 C   0  0  0  0  0  0  0  0  0  0  0  0
    7.0494   -7.4338    4.2264 C   0  0  0  0  0  0  0  0  0  0  0  0
    6.5225   -6.3140    1.1613 C   0  0  0  0  0  0  0  0  0  0  0  0
    3.7978   -6.3217   -1.2545 C   0  0  0  0  0  0  0  0  0  0  0  0
    2.8544   -5.0472   -1.8784 S   0  0  0  0  0  0  0  0  0  0  0  0
    3.9936   -3.8744   -1.5306 C   0  0  0  0  0  0  0  0  0  0  0  0
    3.9978   -2.4861   -1.5009 C   0  0  0  0  0  0  0  0  0  0  0  0
    2.9822   -1.5857   -1.4960 N   0  0  0  0  0  0  0  0  0  0  0  0
    3.5664   -0.4526   -0.9957 C   0  0  0  0  0  0  0  0  0  0  0  0
    2.9537    0.7662   -0.6445 C   0  0  0  0  0  0  0  0  0  0  0  0
    1.8316    1.3478   -1.1639 N   0  0  0  0  0  0  0  0  0  0  0  0
    1.6859    2.4521   -0.3963 C   0  0  0  0  0  0  0  0  0  0  0  0
    0.7815    3.4908   -0.3830 C   0  0  0  0  0  0  0  0  0  0  0  0
   -0.6771    3.8092   -1.1278 S   0  0  0  0  0  0  0  0  0  0  0  0
    1.3334    1.2216   -2.5440 C   0  0  0  0  0  0  0  0  0  0  0  0
    1.9438    2.2973   -3.4454 C   0  0  0  0  0  0  0  0  0  0  0  0
    1.5558   -1.9552   -1.3686 C   0  0  0  0  0  0  0  0  0  0  0  0
    1.2619   -2.5261    0.0186 C   0  0  0  0  0  0  0  0  0  0  0  0
    3.2720   -7.6809   -1.0158 C   0  0  0  0  0  0  0  0  0  0  0  0
    2.1386   -7.9206   -0.3382 C   0  0  0  0  0  0  0  0  0  0  0  0
    1.3801   -6.8657    0.3689 C   0  0  0  0  0  0  0  0  0  0  0  0
    0.1171   -7.0501    0.7664 C   0  0  0  0  0  0  0  0  0  0  0  0
   -0.6282   -5.9432    1.4052 C   0  0  0  0  0  0  0  0  0  0  0  0
   -1.8966   -6.0226    1.8584 C   0  0  0  0  0  0  0  0  0  0  0  0
   -2.8123   -7.1652    1.7134 C   0  0  0  0  0  0  0  0  0  0  0  0
   -2.5011   -8.3583    1.4591 O   0  0  0  0  0  0  0  0  0  0  0  0
   -4.1627   -6.6983    1.9370 C   0  0  0  0  0  0  0  0  0  0  0  0
   -5.3542   -7.4128    1.7928 C   0  0  0  0  0  0  0  0  0  0  0  0
   -6.5669   -6.7326    1.9734 C   0  0  0  0  0  0  0  0  0  0  0  0
   -8.0873   -7.5910    1.7990 Cl  0  0  0  0  0  0  0  0  0  0  0  0
   -6.5663   -5.3575    2.2734 C   0  0  0  0  0  0  0  0  0  0  0  0
   -5.3558   -4.6600    2.4152 C   0  0  0  0  0  0  0  0  0  0  0  0
   -4.1434   -5.3551    2.2697 C   0  0  0  0  0  0  0  0  0  0  0  0
   -2.7309   -4.8869    2.3685 C   0  0  0  0  0  0  0  0  0  0  0  0
   -2.2925   -3.7687    3.0081 C   0  0  0  0  0  0  0  0  0  0  0  0
   -3.1935   -2.7960    3.5743 C   0  0  0  0  0  0  0  0  0  0  0  0
   -3.9013   -2.0053    4.0356 N   0  0  0  0  0  0  0  0  0  0  0  0
   -0.9008   -3.5397    3.2989 C   0  0  0  0  0  0  0  0  0  0  0  0
    0.2165   -3.3487    3.5366 N   0  0  0  0  0  0  0  0  0  0  0  0
   -4.8096    8.1029   -3.3597 H   0  0  0  0  0  0  0  0  0  0  0  0
   -9.5852    5.0696   -1.5289 H   0  0  0  0  0  0  0  0  0  0  0  0
   -7.8556    1.1188   -1.7061 H   0  0  0  0  0  0  0  0  0  0  0  0
   -5.8277    2.0293   -2.7354 H   0  0  0  0  0  0  0  0  0  0  0  0
   -5.5173    5.8605   -0.2978 H   0  0  0  0  0  0  0  0  0  0  0  0
   -2.0619    5.5434    2.5149 H   0  0  0  0  0  0  0  0  0  0  0  0
   -1.8331    3.7777    2.1793 H   0  0  0  0  0  0  0  0  0  0  0  0
   -3.7828    3.2820    3.7025 H   0  0  0  0  0  0  0  0  0  0  0  0
   -2.4908    4.2203    4.5430 H   0  0  0  0  0  0  0  0  0  0  0  0
   -3.9905    5.0628    3.9930 H   0  0  0  0  0  0  0  0  0  0  0  0
    0.8681    5.4347    3.2639 H   0  0  0  0  0  0  0  0  0  0  0  0
    1.0090    7.3359    4.8176 H   0  0  0  0  0  0  0  0  0  0  0  0
    0.4216    9.6112    4.0686 H   0  0  0  0  0  0  0  0  0  0  0  0
   -1.1562   10.3578    0.7749 H   0  0  0  0  0  0  0  0  0  0  0  0
   -0.8099   10.9946    2.4140 H   0  0  0  0  0  0  0  0  0  0  0  0
    1.6322   11.1784    1.8343 H   0  0  0  0  0  0  0  0  0  0  0  0
    0.5847   12.1343    0.7121 H   0  0  0  0  0  0  0  0  0  0  0  0
    1.2705   10.5561    0.1680 H   0  0  0  0  0  0  0  0  0  0  0  0
   -0.3675    8.1090    0.1149 H   0  0  0  0  0  0  0  0  0  0  0  0
    6.2478   -8.0483   -1.7616 H   0  0  0  0  0  0  0  0  0  0  0  0
    7.9363   -9.4491   -0.6406 H   0  0  0  0  0  0  0  0  0  0  0  0
    8.7325   -8.8754    1.6210 H   0  0  0  0  0  0  0  0  0  0  0  0
    8.9992   -7.1242    3.3442 H   0  0  0  0  0  0  0  0  0  0  0  0
    7.9507   -5.6749    3.3452 H   0  0  0  0  0  0  0  0  0  0  0  0
    7.4217   -7.2071    5.2477 H   0  0  0  0  0  0  0  0  0  0  0  0
    7.0406   -8.5366    4.0865 H   0  0  0  0  0  0  0  0  0  0  0  0
    6.0131   -7.0449    4.1303 H   0  0  0  0  0  0  0  0  0  0  0  0
    6.1105   -5.4568    1.6773 H   0  0  0  0  0  0  0  0  0  0  0  0
    0.2287    1.3123   -2.5507 H   0  0  0  0  0  0  0  0  0  0  0  0
    1.6151    0.2497   -2.9879 H   0  0  0  0  0  0  0  0  0  0  0  0
    3.0526    2.2447   -3.4000 H   0  0  0  0  0  0  0  0  0  0  0  0
    1.6177    3.3122   -3.1380 H   0  0  0  0  0  0  0  0  0  0  0  0
    1.6246    2.1224   -4.4958 H   0  0  0  0  0  0  0  0  0  0  0  0
    0.8906   -1.0901   -1.4845 H   0  0  0  0  0  0  0  0  0  0  0  0
    1.2839   -2.6848   -2.1572 H   0  0  0  0  0  0  0  0  0  0  0  0
    1.4411   -1.7525    0.7963 H   0  0  0  0  0  0  0  0  0  0  0  0
    0.1970   -2.8395    0.0696 H   0  0  0  0  0  0  0  0  0  0  0  0
    1.8967   -3.4033    0.2457 H   0  0  0  0  0  0  0  0  0  0  0  0
    3.8270   -8.5216   -1.4086 H   0  0  0  0  0  0  0  0  0  0  0  0
    1.7840   -8.9410   -0.2777 H   0  0  0  0  0  0  0  0  0  0  0  0
    1.8581   -5.9134    0.5676 H   0  0  0  0  0  0  0  0  0  0  0  0
   -0.3488   -8.0033    0.5727 H   0  0  0  0  0  0  0  0  0  0  0  0
   -0.1256   -4.9913    1.4341 H   0  0  0  0  0  0  0  0  0  0  0  0
   -5.3408   -8.4642    1.5304 H   0  0  0  0  0  0  0  0  0  0  0  0
   -7.5032   -4.8269    2.3847 H   0  0  0  0  0  0  0  0  0  0  0  0
   -5.3929   -3.6000    2.6013 H   0  0  0  0  0  0  0  0  0  0  0  0
  1  2  2  3
  2  3  1  0
  3  4  2  0
  3  5  1  0
  5  6  2  0
  6  7  1  0
  7  8  1  0
  7  9  2  0
  9 10  1  0
 10 11  2  0
 11 12  1  0
 12 13  2  3
 13 14  1  0
 14 15  3  0
 13 16  1  0
 16 17  3  0
  1 18  1  0
 18 19  2  0
 19 20  1  0
 20 21  1  0
 21 22  2  0
 21 23  1  0
 23 24  1  0
 20 25  2  0
 25 26  1  0
 25 27  1  0
 27 28  2  0
 28 29  1  0
 29 30  2  0
 30 31  1  0
 31 32  2  0
 32 33  1  0
 33 34  1  0
 34 35  1  0
 33 36  2  0
 28 37  1  0
 37 38  1  0
 38 39  1  0
 39 40  1  0
 40 41  1  0
 41 42  1  0
 42 43  2  0
 43 44  1  0
 44 45  1  0
 42 46  1  0
 46 47  1  0
 47 48  1  0
 48 49  1  0
 49 50  1  0
 50 51  1  0
 51 52  2  0
 52 53  1  0
 53 54  2  0
 54 55  1  0
 55 56  1  0
 56 57  1  0
 55 58  2  0
 50 59  2  0
 59 60  1  0
 60 61  1  0
 61 62  1  0
 62 63  1  0
 63 64  1  0
 64 65  1  0
 65 66  1  0
 66 67  1  0
 67 68  1  0
 68 69  1  0
 66 70  1  0
 70 71  1  0
 63 72  1  0
 72 73  1  0
 59 74  1  0
 74 75  2  3
 75 76  1  0
 76 77  2  3
 77 78  1  0
 78 79  2  3
 79 80  1  0
 80 81  2  0
 80 82  1  0
 82 83  2  0
 83 84  1  0
 84 85  1  0
 84 86  2  0
 86 87  1  0
 87 88  2  0
 88 89  1  0
 89 90  2  3
 90 91  1  0
 91 92  3  0
 90 93  1  0
 93 94  3  0
 12  2  1  0
 26 18  1  0
 69 27  1  0
 89 79  1  0
 11  5  1  0
 36 29  1  0
 68 37  2  0
 88 82  1  0
 67 39  2  0
 65 40  2  0
 45 41  2  0
 64 46  2  0
 62 47  2  0
 61 49  2  0
 58 51  1  0
  1 95  1  0
  6 96  1  0
  9 97  1  0
 10 98  1  0
 19 99  1  0
 23100  1  0
 23101  1  0
 24102  1  0
 24103  1  0
 24104  1  0
 30105  1  0
 31106  1  0
 32107  1  0
 34108  1  0
 34109  1  0
 35110  1  0
 35111  1  0
 35112  1  0
 36113  1  0
 52114  1  0
 53115  1  0
 54116  1  0
 56117  1  0
 56118  1  0
 57119  1  0
 57120  1  0
 57121  1  0
 58122  1  0
 70123  1  0
 70124  1  0
 71125  1  0
 71126  1  0
 71127  1  0
 72128  1  0
 72129  1  0
 73130  1  0
 73131  1  0
 73132  1  0
 74133  1  0
 75134  1  0
 76135  1  0
 77136  1  0
 78137  1  0
 83138  1  0
 86139  1  0
 87140  1  0
M  END

