
     RDKit          3D

140157  0  0  0  0  0  0  0  0999 V2000
    6.3379    1.4019    9.3746 C   0  0  0  0  0  0  0  0  0  0  0  0
    5.1646    1.9323    9.7654 C   0  0  0  0  0  0  0  0  0  0  0  0
    4.9554    2.4974   11.0976 C   0  0  0  0  0  0  0  0  0  0  0  0
    5.8560    2.8230   11.9180 O   0  0  0  0  0  0  0  0  0  0  0  0
    3.5318    2.4822   11.3707 C   0  0  0  0  0  0  0  0  0  0  0  0
    2.8700    2.7570   12.5672 C   0  0  0  0  0  0  0  0  0  0  0  0
    1.4906    2.5095   12.6380 C   0  0  0  0  0  0  0  0  0  0  0  0
    0.6207    2.8360   14.1268 Cl  0  0  0  0  0  0  0  0  0  0  0  0
    0.8125    1.9647   11.5339 C   0  0  0  0  0  0  0  0  0  0  0  0
    1.4962    1.6983   10.3353 C   0  0  0  0  0  0  0  0  0  0  0  0
    2.8593    2.0065   10.2579 C   0  0  0  0  0  0  0  0  0  0  0  0
    3.8135    1.8041    9.1410 C   0  0  0  0  0  0  0  0  0  0  0  0
    3.5202    1.9963    7.8325 C   0  0  0  0  0  0  0  0  0  0  0  0
    4.5445    2.2384    6.8483 C   0  0  0  0  0  0  0  0  0  0  0  0
    5.3536    2.4415    6.0513 N   0  0  0  0  0  0  0  0  0  0  0  0
    2.1697    2.2220    7.3826 C   0  0  0  0  0  0  0  0  0  0  0  0
    1.0948    2.4220    7.0126 N   0  0  0  0  0  0  0  0  0  0  0  0
    6.4760    0.3933    8.3130 C   0  0  0  0  0  0  0  0  0  0  0  0
    7.6526    0.4716    7.0841 S   0  0  0  0  0  0  0  0  0  0  0  0
    7.0620   -0.8788    6.2845 C   0  0  0  0  0  0  0  0  0  0  0  0
    6.9206   -1.1898    4.9568 C   0  0  0  0  0  0  0  0  0  0  0  0
    5.7409   -1.8758    4.8473 C   0  0  0  0  0  0  0  0  0  0  0  0
    5.1367   -2.0285    6.0555 N   0  0  0  0  0  0  0  0  0  0  0  0
    3.7387   -2.4115    6.2840 C   0  0  0  0  0  0  0  0  0  0  0  0
    2.8037   -1.2105    6.1562 C   0  0  0  0  0  0  0  0  0  0  0  0
    5.9505   -1.3622    6.9128 C   0  0  0  0  0  0  0  0  0  0  0  0
    5.5996   -0.6774    8.0775 C   0  0  0  0  0  0  0  0  0  0  0  0
    5.1108   -1.7460    3.6071 C   0  0  0  0  0  0  0  0  0  0  0  0
    5.7911   -0.8545    2.7643 C   0  0  0  0  0  0  0  0  0  0  0  0
    7.1647   -0.2657    3.5854 S   0  0  0  0  0  0  0  0  0  0  0  0
    5.1403   -0.2086    1.6039 C   0  0  0  0  0  0  0  0  0  0  0  0
    5.1478    1.1777    1.3192 C   0  0  0  0  0  0  0  0  0  0  0  0
    6.0835    2.1687    1.8735 C   0  0  0  0  0  0  0  0  0  0  0  0
    5.6478    3.1189    2.8063 C   0  0  0  0  0  0  0  0  0  0  0  0
    6.5489    4.0598    3.3165 C   0  0  0  0  0  0  0  0  0  0  0  0
    7.8814    4.0578    2.8971 C   0  0  0  0  0  0  0  0  0  0  0  0
    8.3268    3.1110    1.9638 C   0  0  0  0  0  0  0  0  0  0  0  0
    9.7603    3.1032    1.5028 C   0  0  0  0  0  0  0  0  0  0  0  0
    9.9127    3.8606    0.1871 C   0  0  0  0  0  0  0  0  0  0  0  0
    7.4190    2.1753    1.4437 C   0  0  0  0  0  0  0  0  0  0  0  0
    4.0754    1.5331    0.5010 C   0  0  0  0  0  0  0  0  0  0  0  0
    3.3628    3.0419    0.1133 S   0  0  0  0  0  0  0  0  0  0  0  0
    2.0268    2.2516   -0.5703 C   0  0  0  0  0  0  0  0  0  0  0  0
    0.8433    2.5413   -1.1777 C   0  0  0  0  0  0  0  0  0  0  0  0
    0.2916    3.7633   -1.5752 C   0  0  0  0  0  0  0  0  0  0  0  0
   -0.9278    3.7547   -2.3085 C   0  0  0  0  0  0  0  0  0  0  0  0
   -1.4298    4.9559   -2.6831 N   0  0  0  0  0  0  0  0  0  0  0  0
   -0.2612    5.9514   -2.0596 S   0  0  0  0  0  0  0  0  0  0  0  0
    0.8567    4.9719   -1.3291 N   0  0  0  0  0  0  0  0  0  0  0  0
   -1.5445    2.5291   -2.5678 C   0  0  0  0  0  0  0  0  0  0  0  0
   -2.7440    2.2352   -3.1397 C   0  0  0  0  0  0  0  0  0  0  0  0
   -4.0497    3.0157   -3.8982 S   0  0  0  0  0  0  0  0  0  0  0  0
   -4.8784    1.5283   -4.0689 C   0  0  0  0  0  0  0  0  0  0  0  0
   -6.0411    1.1216   -4.7424 C   0  0  0  0  0  0  0  0  0  0  0  0
   -7.0118    2.0324   -5.4048 C   0  0  0  0  0  0  0  0  0  0  0  0
   -8.3886    1.7805   -5.2812 C   0  0  0  0  0  0  0  0  0  0  0  0
   -9.3220    2.6427   -5.8649 C   0  0  0  0  0  0  0  0  0  0  0  0
   -8.8949    3.7622   -6.5764 C   0  0  0  0  0  0  0  0  0  0  0  0
   -7.5247    4.0208   -6.7296 C   0  0  0  0  0  0  0  0  0  0  0  0
   -7.0702    5.2530   -7.4646 C   0  0  0  0  0  0  0  0  0  0  0  0
   -6.9601    6.4370   -6.5086 C   0  0  0  0  0  0  0  0  0  0  0  0
   -6.5870    3.1562   -6.1361 C   0  0  0  0  0  0  0  0  0  0  0  0
   -6.1894   -0.2809   -4.6753 C   0  0  0  0  0  0  0  0  0  0  0  0
   -4.9069   -0.9557   -3.7842 S   0  0  0  0  0  0  0  0  0  0  0  0
   -4.1640    0.5061   -3.4955 C   0  0  0  0  0  0  0  0  0  0  0  0
   -2.9389    0.9076   -2.9902 C   0  0  0  0  0  0  0  0  0  0  0  0
   -1.9292    0.2850   -2.3350 N   0  0  0  0  0  0  0  0  0  0  0  0
   -1.0227    1.2967   -2.1179 C   0  0  0  0  0  0  0  0  0  0  0  0
    0.2441    1.2976   -1.4635 C   0  0  0  0  0  0  0  0  0  0  0  0
    1.0910    0.2660   -1.1216 N   0  0  0  0  0  0  0  0  0  0  0  0
    2.1307    0.9064   -0.5325 C   0  0  0  0  0  0  0  0  0  0  0  0
    3.2987    0.4874    0.0828 C   0  0  0  0  0  0  0  0  0  0  0  0
    3.8326   -0.9374    0.7744 S   0  0  0  0  0  0  0  0  0  0  0  0
    1.2444   -1.0556   -1.7543 C   0  0  0  0  0  0  0  0  0  0  0  0
    1.3755   -0.9300   -3.2720 C   0  0  0  0  0  0  0  0  0  0  0  0
   -2.0974   -0.9641   -1.5779 C   0  0  0  0  0  0  0  0  0  0  0  0
   -1.9187   -2.1986   -2.4643 C   0  0  0  0  0  0  0  0  0  0  0  0
   -6.9403   -1.1038   -5.6313 C   0  0  0  0  0  0  0  0  0  0  0  0
   -7.3232   -2.4238   -5.4037 C   0  0  0  0  0  0  0  0  0  0  0  0
   -7.3806   -2.9773   -4.1670 F   0  0  0  0  0  0  0  0  0  0  0  0
   -7.4724   -3.1788   -6.5737 C   0  0  0  0  0  0  0  0  0  0  0  0
   -7.6798   -4.5174   -6.5601 F   0  0  0  0  0  0  0  0  0  0  0  0
   -7.2094   -2.4622   -7.7340 C   0  0  0  0  0  0  0  0  0  0  0  0
   -6.7884   -0.8976   -7.2941 S   0  0  0  0  0  0  0  0  0  0  0  0
   -6.8104   -3.0645   -9.0110 C   0  0  0  0  0  0  0  0  0  0  0  0
   -5.5667   -3.5293   -9.2132 C   0  0  0  0  0  0  0  0  0  0  0  0
   -5.0337   -4.0622  -10.4722 C   0  0  0  0  0  0  0  0  0  0  0  0
   -5.6821   -4.2328  -11.5404 O   0  0  0  0  0  0  0  0  0  0  0  0
   -3.6248   -4.3966  -10.2699 C   0  0  0  0  0  0  0  0  0  0  0  0
   -2.6962   -4.9109  -11.1733 C   0  0  0  0  0  0  0  0  0  0  0  0
   -1.3830   -5.1478  -10.7274 C   0  0  0  0  0  0  0  0  0  0  0  0
   -0.2017   -5.7907  -11.8602 Cl  0  0  0  0  0  0  0  0  0  0  0  0
   -1.0280   -4.8690   -9.3832 C   0  0  0  0  0  0  0  0  0  0  0  0
    0.6069   -5.1444   -8.7931 Cl  0  0  0  0  0  0  0  0  0  0  0  0
   -1.9842   -4.3444   -8.4942 C   0  0  0  0  0  0  0  0  0  0  0  0
   -3.2768   -4.1211   -8.9653 C   0  0  0  0  0  0  0  0  0  0  0  0
   -4.4359   -3.5791   -8.2648 C   0  0  0  0  0  0  0  0  0  0  0  0
   -4.4519   -3.2257   -7.0560 O   0  0  0  0  0  0  0  0  0  0  0  0
    7.2361    1.6424    9.9322 H   0  0  0  0  0  0  0  0  0  0  0  0
    3.4123    3.1294   13.4288 H   0  0  0  0  0  0  0  0  0  0  0  0
   -0.2447    1.7443   11.6032 H   0  0  0  0  0  0  0  0  0  0  0  0
    0.9805    1.2269    9.5121 H   0  0  0  0  0  0  0  0  0  0  0  0
    3.6336   -2.8589    7.2987 H   0  0  0  0  0  0  0  0  0  0  0  0
    3.4456   -3.1925    5.5447 H   0  0  0  0  0  0  0  0  0  0  0  0
    1.7594   -1.5618    6.0284 H   0  0  0  0  0  0  0  0  0  0  0  0
    2.8471   -0.5970    7.0759 H   0  0  0  0  0  0  0  0  0  0  0  0
    3.0782   -0.5826    5.2849 H   0  0  0  0  0  0  0  0  0  0  0  0
    4.7003   -0.8579    8.6497 H   0  0  0  0  0  0  0  0  0  0  0  0
    4.1031   -2.0909    3.4194 H   0  0  0  0  0  0  0  0  0  0  0  0
    4.6196    3.1239    3.1452 H   0  0  0  0  0  0  0  0  0  0  0  0
    6.2114    4.7870    4.0432 H   0  0  0  0  0  0  0  0  0  0  0  0
    8.5656    4.7910    3.3046 H   0  0  0  0  0  0  0  0  0  0  0  0
   10.1039    2.0553    1.3598 H   0  0  0  0  0  0  0  0  0  0  0  0
   10.4196    3.5652    2.2676 H   0  0  0  0  0  0  0  0  0  0  0  0
    9.6432    4.9318    0.3232 H   0  0  0  0  0  0  0  0  0  0  0  0
    9.2622    3.4124   -0.5955 H   0  0  0  0  0  0  0  0  0  0  0  0
   10.9669    3.7976   -0.1607 H   0  0  0  0  0  0  0  0  0  0  0  0
    7.7508    1.4470    0.7125 H   0  0  0  0  0  0  0  0  0  0  0  0
   -8.7456    0.9288   -4.7161 H   0  0  0  0  0  0  0  0  0  0  0  0
  -10.3816    2.4417   -5.7554 H   0  0  0  0  0  0  0  0  0  0  0  0
   -9.6307    4.4291   -7.0096 H   0  0  0  0  0  0  0  0  0  0  0  0
   -6.0829    5.0771   -7.9434 H   0  0  0  0  0  0  0  0  0  0  0  0
   -7.7905    5.5037   -8.2724 H   0  0  0  0  0  0  0  0  0  0  0  0
   -6.6663    7.3497   -7.0721 H   0  0  0  0  0  0  0  0  0  0  0  0
   -7.9415    6.6260   -6.0153 H   0  0  0  0  0  0  0  0  0  0  0  0
   -6.1959    6.2348   -5.7288 H   0  0  0  0  0  0  0  0  0  0  0  0
   -5.5299    3.3529   -6.2645 H   0  0  0  0  0  0  0  0  0  0  0  0
    2.1688   -1.5475   -1.3947 H   0  0  0  0  0  0  0  0  0  0  0  0
    0.4425   -1.7414   -1.4639 H   0  0  0  0  0  0  0  0  0  0  0  0
    1.4596   -1.9409   -3.7236 H   0  0  0  0  0  0  0  0  0  0  0  0
    2.2829   -0.3457   -3.5279 H   0  0  0  0  0  0  0  0  0  0  0  0
    0.4947   -0.4185   -3.7078 H   0  0  0  0  0  0  0  0  0  0  0  0
   -3.1127   -0.9894   -1.1286 H   0  0  0  0  0  0  0  0  0  0  0  0
   -1.4105   -0.9822   -0.7104 H   0  0  0  0  0  0  0  0  0  0  0  0
   -1.5638   -3.0546   -1.8480 H   0  0  0  0  0  0  0  0  0  0  0  0
   -2.8739   -2.5037   -2.9256 H   0  0  0  0  0  0  0  0  0  0  0  0
   -1.1905   -2.0126   -3.2776 H   0  0  0  0  0  0  0  0  0  0  0  0
   -7.5237   -3.0640   -9.8243 H   0  0  0  0  0  0  0  0  0  0  0  0
   -2.9804   -5.1242  -12.1958 H   0  0  0  0  0  0  0  0  0  0  0  0
   -1.7257   -4.1213   -7.4658 H   0  0  0  0  0  0  0  0  0  0  0  0
  1  2  2  3
  2  3  1  0
  3  4  2  0
  3  5  1  0
  5  6  2  0
  6  7  1  0
  7  8  1  0
  7  9  2  0
  9 10  1  0
 10 11  2  0
 11 12  1  0
 12 13  2  3
 13 14  1  0
 14 15  3  0
 13 16  1  0
 16 17  3  0
  1 18  1  0
 18 19  1  0
 19 20  1  0
 20 21  1  0
 21 22  2  0
 22 23  1  0
 23 24  1  0
 24 25  1  0
 23 26  1  0
 26 27  1  0
 22 28  1  0
 28 29  2  0
 29 30  1  0
 29 31  1  0
 31 32  2  0
 32 33  1  0
 33 34  2  0
 34 35  1  0
 35 36  2  0
 36 37  1  0
 37 38  1  0
 38 39  1  0
 37 40  2  0
 32 41  1  0
 41 42  1  0
 42 43  1  0
 43 44  1  0
 44 45  1  0
 45 46  1  0
 46 47  2  0
 47 48  1  0
 48 49  1  0
 46 50  1  0
 50 51  1  0
 51 52  1  0
 52 53  1  0
 53 54  1  0
 54 55  1  0
 55 56  2  0
 56 57  1  0
 57 58  2  0
 58 59  1  0
 59 60  1  0
 60 61  1  0
 59 62  2  0
 54 63  2  0
 63 64  1  0
 64 65  1  0
 65 66  1  0
 66 67  1  0
 67 68  1  0
 68 69  1  0
 69 70  1  0
 70 71  1  0
 71 72  1  0
 72 73  1  0
 70 74  1  0
 74 75  1  0
 67 76  1  0
 76 77  1  0
 63 78  1  0
 78 79  2  0
 79 80  1  0
 79 81  1  0
 81 82  1  0
 81 83  2  0
 83 84  1  0
 83 85  1  0
 85 86  2  3
 86 87  1  0
 87 88  2  0
 87 89  1  0
 89 90  2  0
 90 91  1  0
 91 92  1  0
 91 93  2  0
 93 94  1  0
 93 95  1  0
 95 96  2  0
 96 97  1  0
 97 98  2  0
 12  2  1  0
 27 18  2  0
 73 31  1  0
 84 78  1  0
 97 86  1  0
 11  5  1  0
 26 20  2  0
 40 33  1  0
 72 41  2  0
 96 89  1  0
 30 21  1  0
 71 43  2  0
 69 44  2  0
 49 45  2  0
 68 50  2  0
 66 51  2  0
 65 53  2  0
 62 55  1  0
  1 99  1  0
  6100  1  0
  9101  1  0
 10102  1  0
 24103  1  0
 24104  1  0
 25105  1  0
 25106  1  0
 25107  1  0
 27108  1  0
 28109  1  0
 34110  1  0
 35111  1  0
 36112  1  0
 38113  1  0
 38114  1  0
 39115  1  0
 39116  1  0
 39117  1  0
 40118  1  0
 56119  1  0
 57120  1  0
 58121  1  0
 60122  1  0
 60123  1  0
 61124  1  0
 61125  1  0
 61126  1  0
 62127  1  0
 74128  1  0
 74129  1  0
 75130  1  0
 75131  1  0
 75132  1  0
 76133  1  0
 76134  1  0
 77135  1  0
 77136  1  0
 77137  1  0
 85138  1  0
 90139  1  0
 95140  1  0
M  END

