
     RDKit          3D

147162  0  0  0  0  0  0  0  0999 V2000
   -4.2359   -2.1325   -8.0746 C   0  0  0  0  0  0  0  0  0  0  0  0
   -3.1776   -1.3335   -8.3451 C   0  0  0  0  0  0  0  0  0  0  0  0
   -2.3793   -0.6109   -7.3365 C   0  0  0  0  0  0  0  0  0  0  0  0
   -2.6694   -0.4279   -6.1247 O   0  0  0  0  0  0  0  0  0  0  0  0
   -1.1127   -0.2493   -7.9428 C   0  0  0  0  0  0  0  0  0  0  0  0
   -0.0135    0.3431   -7.3276 C   0  0  0  0  0  0  0  0  0  0  0  0
    1.1612    0.5070   -8.0694 C   0  0  0  0  0  0  0  0  0  0  0  0
    2.5631    1.2779   -7.3538 Cl  0  0  0  0  0  0  0  0  0  0  0  0
    1.2190    0.0253   -9.3925 C   0  0  0  0  0  0  0  0  0  0  0  0
    0.1076   -0.5849   -9.9862 C   0  0  0  0  0  0  0  0  0  0  0  0
   -1.0800   -0.6815   -9.2508 C   0  0  0  0  0  0  0  0  0  0  0  0
   -2.3950   -1.2794   -9.6163 C   0  0  0  0  0  0  0  0  0  0  0  0
   -2.8578   -1.5228  -10.8799 C   0  0  0  0  0  0  0  0  0  0  0  0
   -4.2177   -1.9005  -11.1474 C   0  0  0  0  0  0  0  0  0  0  0  0
   -5.3148   -2.2107  -11.3793 N   0  0  0  0  0  0  0  0  0  0  0  0
   -2.0344   -1.3001  -12.0550 C   0  0  0  0  0  0  0  0  0  0  0  0
   -1.3864   -1.1228  -12.9995 N   0  0  0  0  0  0  0  0  0  0  0  0
   -4.8677   -2.2311   -6.7493 C   0  0  0  0  0  0  0  0  0  0  0  0
   -5.4008   -1.1788   -6.0225 C   0  0  0  0  0  0  0  0  0  0  0  0
   -5.6516   -1.5039   -4.6658 C   0  0  0  0  0  0  0  0  0  0  0  0
   -6.0049   -0.4737   -3.6623 C   0  0  0  0  0  0  0  0  0  0  0  0
   -5.7517   -0.6831   -2.4370 O   0  0  0  0  0  0  0  0  0  0  0  0
   -6.5546    0.8714   -4.0807 C   0  0  0  0  0  0  0  0  0  0  0  0
   -7.4871    1.4731   -3.0298 C   0  0  0  0  0  0  0  0  0  0  0  0
   -5.3583   -2.8532   -4.3628 C   0  0  0  0  0  0  0  0  0  0  0  0
   -4.7497   -3.5751   -5.7564 S   0  0  0  0  0  0  0  0  0  0  0  0
   -5.1516   -3.4428   -3.0269 C   0  0  0  0  0  0  0  0  0  0  0  0
   -6.0866   -3.4998   -1.9634 C   0  0  0  0  0  0  0  0  0  0  0  0
   -7.5325   -3.2095   -2.0838 C   0  0  0  0  0  0  0  0  0  0  0  0
   -8.2931   -3.8422   -3.0739 C   0  0  0  0  0  0  0  0  0  0  0  0
   -9.6799   -3.6712   -3.1042 C   0  0  0  0  0  0  0  0  0  0  0  0
  -10.3159   -2.8802   -2.1404 C   0  0  0  0  0  0  0  0  0  0  0  0
   -9.5624   -2.2141   -1.1600 C   0  0  0  0  0  0  0  0  0  0  0  0
  -10.2509   -1.3965   -0.0934 C   0  0  0  0  0  0  0  0  0  0  0  0
  -10.1285   -2.0843    1.2661 C   0  0  0  0  0  0  0  0  0  0  0  0
   -8.1645   -2.3713   -1.1573 C   0  0  0  0  0  0  0  0  0  0  0  0
   -5.4446   -3.8387   -0.7557 C   0  0  0  0  0  0  0  0  0  0  0  0
   -5.9127   -3.7103    0.8780 S   0  0  0  0  0  0  0  0  0  0  0  0
   -4.3201   -3.9759    1.4121 C   0  0  0  0  0  0  0  0  0  0  0  0
   -3.5939   -3.4931    2.4743 C   0  0  0  0  0  0  0  0  0  0  0  0
   -4.0564   -2.8496    3.6347 C   0  0  0  0  0  0  0  0  0  0  0  0
   -3.1559   -2.0343    4.3734 C   0  0  0  0  0  0  0  0  0  0  0  0
   -3.6581   -1.3385    5.4242 N   0  0  0  0  0  0  0  0  0  0  0  0
   -5.2470   -1.8169    5.3204 S   0  0  0  0  0  0  0  0  0  0  0  0
   -5.3576   -2.8413    4.0299 N   0  0  0  0  0  0  0  0  0  0  0  0
   -1.8295   -1.9377    3.9451 C   0  0  0  0  0  0  0  0  0  0  0  0
   -0.8180   -1.0779    4.3131 C   0  0  0  0  0  0  0  0  0  0  0  0
   -0.6169    0.3636    5.2008 S   0  0  0  0  0  0  0  0  0  0  0  0
    0.8832    0.6684    4.4293 C   0  0  0  0  0  0  0  0  0  0  0  0
    1.7620    1.7578    4.4078 C   0  0  0  0  0  0  0  0  0  0  0  0
    1.7037    2.8582    5.3860 C   0  0  0  0  0  0  0  0  0  0  0  0
    2.7177    3.0140    6.3384 C   0  0  0  0  0  0  0  0  0  0  0  0
    2.6435    4.0502    7.2714 C   0  0  0  0  0  0  0  0  0  0  0  0
    1.5405    4.9140    7.2749 C   0  0  0  0  0  0  0  0  0  0  0  0
    0.5167    4.7611    6.3280 C   0  0  0  0  0  0  0  0  0  0  0  0
   -0.7051    5.6271    6.3917 C   0  0  0  0  0  0  0  0  0  0  0  0
   -1.8365    4.9179    7.1304 C   0  0  0  0  0  0  0  0  0  0  0  0
    0.5943    3.7178    5.3945 C   0  0  0  0  0  0  0  0  0  0  0  0
    2.7263    1.6046    3.3779 C   0  0  0  0  0  0  0  0  0  0  0  0
    2.4696    0.1204    2.5744 S   0  0  0  0  0  0  0  0  0  0  0  0
    1.1705   -0.3156    3.5226 C   0  0  0  0  0  0  0  0  0  0  0  0
    0.2084   -1.3097    3.4743 C   0  0  0  0  0  0  0  0  0  0  0  0
   -0.0053   -2.3197    2.6179 N   0  0  0  0  0  0  0  0  0  0  0  0
   -1.3257   -2.6631    2.8414 C   0  0  0  0  0  0  0  0  0  0  0  0
   -2.2444   -3.4179    2.0429 C   0  0  0  0  0  0  0  0  0  0  0  0
   -2.1839   -3.8091    0.7170 N   0  0  0  0  0  0  0  0  0  0  0  0
   -3.4551   -4.1215    0.3769 C   0  0  0  0  0  0  0  0  0  0  0  0
   -4.0920   -4.0484   -0.8561 C   0  0  0  0  0  0  0  0  0  0  0  0
   -3.6037   -3.7982   -2.4462 S   0  0  0  0  0  0  0  0  0  0  0  0
   -1.0896   -3.7214   -0.2570 C   0  0  0  0  0  0  0  0  0  0  0  0
   -0.8355   -2.2793   -0.6999 C   0  0  0  0  0  0  0  0  0  0  0  0
    1.1037   -3.1009    2.0383 C   0  0  0  0  0  0  0  0  0  0  0  0
    1.0353   -4.5679    2.4596 C   0  0  0  0  0  0  0  0  0  0  0  0
    3.7977    2.5351    2.9377 C   0  0  0  0  0  0  0  0  0  0  0  0
    4.2200    3.7463    3.5001 C   0  0  0  0  0  0  0  0  0  0  0  0
    5.3932    4.2789    2.8970 C   0  0  0  0  0  0  0  0  0  0  0  0
    6.1642    5.4333    3.4501 C   0  0  0  0  0  0  0  0  0  0  0  0
    7.2935    5.7087    2.9611 O   0  0  0  0  0  0  0  0  0  0  0  0
    5.7068    6.2347    4.6431 C   0  0  0  0  0  0  0  0  0  0  0  0
    5.9188    7.7546    4.4634 C   0  0  0  0  0  0  0  0  0  0  0  0
    5.8519    3.4898    1.8305 C   0  0  0  0  0  0  0  0  0  0  0  0
    4.8439    2.1737    1.6671 S   0  0  0  0  0  0  0  0  0  0  0  0
    7.1563    3.5705    1.1657 C   0  0  0  0  0  0  0  0  0  0  0  0
    8.1021    2.6299    1.3567 C   0  0  0  0  0  0  0  0  0  0  0  0
    8.1029    1.6301    2.4411 C   0  0  0  0  0  0  0  0  0  0  0  0
    7.3127    1.5995    3.4239 O   0  0  0  0  0  0  0  0  0  0  0  0
    9.2760    0.7788    2.3021 C   0  0  0  0  0  0  0  0  0  0  0  0
    9.5561   -0.4162    2.9698 C   0  0  0  0  0  0  0  0  0  0  0  0
   10.6120   -1.2147    2.4910 C   0  0  0  0  0  0  0  0  0  0  0  0
   10.9782   -2.7482    3.2469 Cl  0  0  0  0  0  0  0  0  0  0  0  0
   11.3615   -0.8001    1.3811 C   0  0  0  0  0  0  0  0  0  0  0  0
   11.0693    0.4254    0.7341 C   0  0  0  0  0  0  0  0  0  0  0  0
   10.0357    1.2366    1.2377 C   0  0  0  0  0  0  0  0  0  0  0  0
    9.3918    2.4381    0.6404 C   0  0  0  0  0  0  0  0  0  0  0  0
    9.8687    3.1441   -0.4139 C   0  0  0  0  0  0  0  0  0  0  0  0
    8.9960    3.8467   -1.3326 C   0  0  0  0  0  0  0  0  0  0  0  0
    8.2835    4.3585   -2.0849 N   0  0  0  0  0  0  0  0  0  0  0  0
   11.2922    3.2754   -0.6317 C   0  0  0  0  0  0  0  0  0  0  0  0
   12.4284    3.4528   -0.7210 N   0  0  0  0  0  0  0  0  0  0  0  0
   -4.5586   -2.8568   -8.8082 H   0  0  0  0  0  0  0  0  0  0  0  0
   -0.0643    0.6690   -6.2977 H   0  0  0  0  0  0  0  0  0  0  0  0
    2.1384    0.1199   -9.9638 H   0  0  0  0  0  0  0  0  0  0  0  0
    0.2236   -0.9955  -10.9763 H   0  0  0  0  0  0  0  0  0  0  0  0
   -5.4683   -0.1807   -6.4220 H   0  0  0  0  0  0  0  0  0  0  0  0
   -5.7153    1.5754   -4.2624 H   0  0  0  0  0  0  0  0  0  0  0  0
   -7.1369    0.7674   -5.0151 H   0  0  0  0  0  0  0  0  0  0  0  0
   -6.9460    1.6040   -2.0613 H   0  0  0  0  0  0  0  0  0  0  0  0
   -7.8488    2.4682   -3.3658 H   0  0  0  0  0  0  0  0  0  0  0  0
   -8.3744    0.8242   -2.8752 H   0  0  0  0  0  0  0  0  0  0  0  0
   -7.8292   -4.5056   -3.7831 H   0  0  0  0  0  0  0  0  0  0  0  0
  -10.2732   -4.1826   -3.8484 H   0  0  0  0  0  0  0  0  0  0  0  0
  -11.4021   -2.7934   -2.1533 H   0  0  0  0  0  0  0  0  0  0  0  0
  -11.3159   -1.2563   -0.3439 H   0  0  0  0  0  0  0  0  0  0  0  0
   -9.7764   -0.3886   -0.0348 H   0  0  0  0  0  0  0  0  0  0  0  0
   -9.0901   -2.0669    1.6433 H   0  0  0  0  0  0  0  0  0  0  0  0
  -10.7728   -1.5505    2.0010 H   0  0  0  0  0  0  0  0  0  0  0  0
  -10.4724   -3.1472    1.2135 H   0  0  0  0  0  0  0  0  0  0  0  0
   -7.5742   -1.8269   -0.4153 H   0  0  0  0  0  0  0  0  0  0  0  0
    3.5656    2.3600    6.3438 H   0  0  0  0  0  0  0  0  0  0  0  0
    3.4494    4.2018    7.9847 H   0  0  0  0  0  0  0  0  0  0  0  0
    1.4904    5.7194    8.0149 H   0  0  0  0  0  0  0  0  0  0  0  0
   -0.4702    6.5894    6.9018 H   0  0  0  0  0  0  0  0  0  0  0  0
   -1.0442    5.8837    5.3507 H   0  0  0  0  0  0  0  0  0  0  0  0
   -2.6873    5.6261    7.2879 H   0  0  0  0  0  0  0  0  0  0  0  0
   -1.4822    4.5409    8.1039 H   0  0  0  0  0  0  0  0  0  0  0  0
   -2.2055    4.0652    6.5275 H   0  0  0  0  0  0  0  0  0  0  0  0
   -0.2012    3.5648    4.6754 H   0  0  0  0  0  0  0  0  0  0  0  0
   -1.3304   -4.3324   -1.1599 H   0  0  0  0  0  0  0  0  0  0  0  0
   -0.1932   -4.2419    0.1023 H   0  0  0  0  0  0  0  0  0  0  0  0
   -1.6828   -1.9192   -1.3367 H   0  0  0  0  0  0  0  0  0  0  0  0
    0.0874   -2.2373   -1.3048 H   0  0  0  0  0  0  0  0  0  0  0  0
   -0.7356   -1.5990    0.1648 H   0  0  0  0  0  0  0  0  0  0  0  0
    1.2114   -2.9260    0.9626 H   0  0  0  0  0  0  0  0  0  0  0  0
    2.0574   -2.7265    2.4587 H   0  0  0  0  0  0  0  0  0  0  0  0
    0.0592   -5.0356    2.2087 H   0  0  0  0  0  0  0  0  0  0  0  0
    1.8339   -5.1356    1.9407 H   0  0  0  0  0  0  0  0  0  0  0  0
    1.1867   -4.6332    3.5500 H   0  0  0  0  0  0  0  0  0  0  0  0
    3.7150    4.2268    4.3065 H   0  0  0  0  0  0  0  0  0  0  0  0
    6.2931    5.8803    5.5193 H   0  0  0  0  0  0  0  0  0  0  0  0
    4.6449    6.0660    4.8814 H   0  0  0  0  0  0  0  0  0  0  0  0
    4.9176    8.2694    4.4627 H   0  0  0  0  0  0  0  0  0  0  0  0
    6.4380    8.0058    3.5179 H   0  0  0  0  0  0  0  0  0  0  0  0
    6.5006    8.1654    5.3318 H   0  0  0  0  0  0  0  0  0  0  0  0
    7.3273    4.4189    0.5276 H   0  0  0  0  0  0  0  0  0  0  0  0
    8.9397   -0.7393    3.8033 H   0  0  0  0  0  0  0  0  0  0  0  0
   12.1255   -1.4609    0.9699 H   0  0  0  0  0  0  0  0  0  0  0  0
   11.6009    0.6974   -0.1564 H   0  0  0  0  0  0  0  0  0  0  0  0
  1  2  2  3
  2  3  1  0
  3  4  2  0
  3  5  1  0
  5  6  2  0
  6  7  1  0
  7  8  1  0
  7  9  2  0
  9 10  1  0
 10 11  2  0
 11 12  1  0
 12 13  2  3
 13 14  1  0
 14 15  3  0
 13 16  1  0
 16 17  3  0
  1 18  1  0
 18 19  2  0
 19 20  1  0
 20 21  1  0
 21 22  2  0
 21 23  1  0
 23 24  1  0
 20 25  2  0
 25 26  1  0
 25 27  1  0
 27 28  2  0
 28 29  1  0
 29 30  2  0
 30 31  1  0
 31 32  2  0
 32 33  1  0
 33 34  1  0
 34 35  1  0
 33 36  2  0
 28 37  1  0
 37 38  1  0
 38 39  1  0
 39 40  1  0
 40 41  1  0
 41 42  1  0
 42 43  2  0
 43 44  1  0
 44 45  1  0
 42 46  1  0
 46 47  1  0
 47 48  1  0
 48 49  1  0
 49 50  1  0
 50 51  1  0
 51 52  2  0
 52 53  1  0
 53 54  2  0
 54 55  1  0
 55 56  1  0
 56 57  1  0
 55 58  2  0
 50 59  2  0
 59 60  1  0
 60 61  1  0
 61 62  1  0
 62 63  1  0
 63 64  1  0
 64 65  1  0
 65 66  1  0
 66 67  1  0
 67 68  1  0
 68 69  1  0
 66 70  1  0
 70 71  1  0
 63 72  1  0
 72 73  1  0
 59 74  1  0
 74 75  2  0
 75 76  1  0
 76 77  1  0
 77 78  2  0
 77 79  1  0
 79 80  1  0
 76 81  2  0
 81 82  1  0
 81 83  1  0
 83 84  2  3
 84 85  1  0
 85 86  2  0
 85 87  1  0
 87 88  2  0
 88 89  1  0
 89 90  1  0
 89 91  2  0
 91 92  1  0
 92 93  2  0
 93 94  1  0
 94 95  2  3
 95 96  1  0
 96 97  3  0
 95 98  1  0
 98 99  3  0
 12  2  1  0
 26 18  1  0
 69 27  1  0
 82 74  1  0
 94 84  1  0
 11  5  1  0
 36 29  1  0
 68 37  2  0
 93 87  1  0
 67 39  2  0
 65 40  2  0
 45 41  2  0
 64 46  2  0
 62 47  2  0
 61 49  2  0
 58 51  1  0
  1100  1  0
  6101  1  0
  9102  1  0
 10103  1  0
 19104  1  0
 23105  1  0
 23106  1  0
 24107  1  0
 24108  1  0
 24109  1  0
 30110  1  0
 31111  1  0
 32112  1  0
 34113  1  0
 34114  1  0
 35115  1  0
 35116  1  0
 35117  1  0
 36118  1  0
 52119  1  0
 53120  1  0
 54121  1  0
 56122  1  0
 56123  1  0
 57124  1  0
 57125  1  0
 57126  1  0
 58127  1  0
 70128  1  0
 70129  1  0
 71130  1  0
 71131  1  0
 71132  1  0
 72133  1  0
 72134  1  0
 73135  1  0
 73136  1  0
 73137  1  0
 75138  1  0
 79139  1  0
 79140  1  0
 80141  1  0
 80142  1  0
 80143  1  0
 83144  1  0
 88145  1  0
 91146  1  0
 92147  1  0
M  END

