
     RDKit          3D

184204  0  0  0  0  0  0  0  0999 V2000
  -10.5330    3.6900    7.0775 C   0  0  0  0  0  0  0  0  0  0  0  0
   -9.7052    4.5518    7.7000 C   0  0  0  0  0  0  0  0  0  0  0  0
   -8.3197    4.8595    7.3092 C   0  0  0  0  0  0  0  0  0  0  0  0
   -7.5753    4.1569    6.5736 O   0  0  0  0  0  0  0  0  0  0  0  0
   -7.8909    6.0346    8.0291 C   0  0  0  0  0  0  0  0  0  0  0  0
   -6.7081    6.7557    7.8651 C   0  0  0  0  0  0  0  0  0  0  0  0
   -6.5268    7.9225    8.6203 C   0  0  0  0  0  0  0  0  0  0  0  0
   -5.0567    8.8574    8.4359 Cl  0  0  0  0  0  0  0  0  0  0  0  0
   -7.5269    8.3426    9.5220 C   0  0  0  0  0  0  0  0  0  0  0  0
   -8.7145    7.6051    9.6608 C   0  0  0  0  0  0  0  0  0  0  0  0
   -8.8767    6.4215    8.9205 C   0  0  0  0  0  0  0  0  0  0  0  0
  -10.0246    5.4637    8.8528 C   0  0  0  0  0  0  0  0  0  0  0  0
  -11.0312    5.3466    9.7587 C   0  0  0  0  0  0  0  0  0  0  0  0
  -12.0196    4.3034    9.7163 C   0  0  0  0  0  0  0  0  0  0  0  0
  -12.8341    3.4834    9.7128 N   0  0  0  0  0  0  0  0  0  0  0  0
  -11.1340    6.1965   10.9172 C   0  0  0  0  0  0  0  0  0  0  0  0
  -11.2206    6.8737   11.8520 N   0  0  0  0  0  0  0  0  0  0  0  0
  -10.1867    2.9214    5.8726 C   0  0  0  0  0  0  0  0  0  0  0  0
  -10.5118    1.2490    5.6984 S   0  0  0  0  0  0  0  0  0  0  0  0
   -9.9624    1.2233    4.1186 C   0  0  0  0  0  0  0  0  0  0  0  0
   -9.4637    0.3171    3.2278 C   0  0  0  0  0  0  0  0  0  0  0  0
   -8.7191    1.0285    2.3400 C   0  0  0  0  0  0  0  0  0  0  0  0
   -8.7093    2.3580    2.6266 N   0  0  0  0  0  0  0  0  0  0  0  0
   -7.7281    3.3406    2.1613 C   0  0  0  0  0  0  0  0  0  0  0  0
   -6.4140    3.1929    2.9304 C   0  0  0  0  0  0  0  0  0  0  0  0
   -9.4824    2.4354    3.7421 C   0  0  0  0  0  0  0  0  0  0  0  0
   -9.6053    3.4377    4.6994 C   0  0  0  0  0  0  0  0  0  0  0  0
   -7.8129    0.2708    1.6059 C   0  0  0  0  0  0  0  0  0  0  0  0
   -7.8620   -1.0728    2.0003 C   0  0  0  0  0  0  0  0  0  0  0  0
   -8.9841   -1.2828    3.2754 S   0  0  0  0  0  0  0  0  0  0  0  0
   -6.9026   -2.0880    1.5558 C   0  0  0  0  0  0  0  0  0  0  0  0
   -6.3676   -3.1023    2.3617 C   0  0  0  0  0  0  0  0  0  0  0  0
   -5.3612   -3.7854    1.6878 C   0  0  0  0  0  0  0  0  0  0  0  0
   -4.1566   -4.8707    2.1958 S   0  0  0  0  0  0  0  0  0  0  0  0
   -3.4020   -4.8290    0.6702 C   0  0  0  0  0  0  0  0  0  0  0  0
   -2.0449   -5.0036    0.2338 C   0  0  0  0  0  0  0  0  0  0  0  0
   -1.8768   -4.2119   -0.9141 C   0  0  0  0  0  0  0  0  0  0  0  0
   -3.2001   -3.6234   -1.4054 C   0  0  0  0  0  0  0  0  0  0  0  0
   -3.0881   -2.1132   -1.6777 C   0  0  0  0  0  0  0  0  0  0  0  0
   -3.3758   -1.5609   -2.9476 C   0  0  0  0  0  0  0  0  0  0  0  0
   -3.2498   -0.1895   -3.1787 C   0  0  0  0  0  0  0  0  0  0  0  0
   -2.8364    0.6706   -2.1541 C   0  0  0  0  0  0  0  0  0  0  0  0
   -2.7512    2.1544   -2.4131 C   0  0  0  0  0  0  0  0  0  0  0  0
   -4.1084    2.8211   -2.2114 C   0  0  0  0  0  0  0  0  0  0  0  0
   -2.5550    0.1395   -0.8858 C   0  0  0  0  0  0  0  0  0  0  0  0
   -2.6648   -1.2375   -0.6539 C   0  0  0  0  0  0  0  0  0  0  0  0
   -3.7600   -4.4239   -2.5957 C   0  0  0  0  0  0  0  0  0  0  0  0
   -5.1531   -4.5302   -2.7981 C   0  0  0  0  0  0  0  0  0  0  0  0
   -5.6699   -5.2484   -3.8798 C   0  0  0  0  0  0  0  0  0  0  0  0
   -4.8112   -5.8522   -4.8041 C   0  0  0  0  0  0  0  0  0  0  0  0
   -5.3634   -6.6950   -5.9227 C   0  0  0  0  0  0  0  0  0  0  0  0
   -5.5809   -8.1299   -5.4573 C   0  0  0  0  0  0  0  0  0  0  0  0
   -3.4268   -5.7150   -4.6453 C   0  0  0  0  0  0  0  0  0  0  0  0
   -2.9059   -4.9946   -3.5689 C   0  0  0  0  0  0  0  0  0  0  0  0
   -4.0196   -3.9419   -0.1772 C   0  0  0  0  0  0  0  0  0  0  0  0
   -5.1265   -3.3584    0.4152 C   0  0  0  0  0  0  0  0  0  0  0  0
   -6.1133   -2.0571    0.0411 S   0  0  0  0  0  0  0  0  0  0  0  0
   -0.5910   -3.9804   -1.4302 C   0  0  0  0  0  0  0  0  0  0  0  0
    0.4659   -4.6540   -0.8069 C   0  0  0  0  0  0  0  0  0  0  0  0
    1.8085   -4.6269   -1.0625 C   0  0  0  0  0  0  0  0  0  0  0  0
    2.5435   -3.8178   -1.9262 C   0  0  0  0  0  0  0  0  0  0  0  0
    3.9389   -3.9233   -1.8538 C   0  0  0  0  0  0  0  0  0  0  0  0
    4.5464   -4.8611   -1.0038 C   0  0  0  0  0  0  0  0  0  0  0  0
    3.8046   -5.6593   -0.1157 C   0  0  0  0  0  0  0  0  0  0  0  0
    2.4053   -5.4905   -0.1518 C   0  0  0  0  0  0  0  0  0  0  0  0
    1.4756   -6.0292    0.6826 N   0  0  0  0  0  0  0  0  0  0  0  0
    1.7000   -6.9970    1.7639 C   0  0  0  0  0  0  0  0  0  0  0  0
    1.5797   -8.4170    1.2238 C   0  0  0  0  0  0  0  0  0  0  0  0
    0.2874   -5.5065    0.2790 C   0  0  0  0  0  0  0  0  0  0  0  0
   -0.9846   -5.6802    0.8540 C   0  0  0  0  0  0  0  0  0  0  0  0
    5.9720   -4.6761   -1.1220 C   0  0  0  0  0  0  0  0  0  0  0  0
    7.3030   -5.0087   -0.1120 S   0  0  0  0  0  0  0  0  0  0  0  0
    8.2485   -3.8256   -0.8747 C   0  0  0  0  0  0  0  0  0  0  0  0
    9.4532   -3.2095   -0.5297 C   0  0  0  0  0  0  0  0  0  0  0  0
    9.6554   -2.0467   -1.2924 C   0  0  0  0  0  0  0  0  0  0  0  0
    8.3194   -1.7973   -2.3236 S   0  0  0  0  0  0  0  0  0  0  0  0
    7.5257   -3.1789   -1.8406 C   0  0  0  0  0  0  0  0  0  0  0  0
    6.2182   -3.6255   -1.9671 C   0  0  0  0  0  0  0  0  0  0  0  0
    4.9501   -2.9387   -2.4242 C   0  0  0  0  0  0  0  0  0  0  0  0
    4.9463   -2.8124   -3.9517 C   0  0  0  0  0  0  0  0  0  0  0  0
    4.2828   -3.7392   -4.7800 C   0  0  0  0  0  0  0  0  0  0  0  0
    4.1952   -3.5218   -6.1589 C   0  0  0  0  0  0  0  0  0  0  0  0
    4.8004   -2.4011   -6.7443 C   0  0  0  0  0  0  0  0  0  0  0  0
    4.5762   -2.0844   -8.1986 C   0  0  0  0  0  0  0  0  0  0  0  0
    3.3929   -1.1373   -8.3586 C   0  0  0  0  0  0  0  0  0  0  0  0
    5.5216   -1.5121   -5.9336 C   0  0  0  0  0  0  0  0  0  0  0  0
    5.6016   -1.7192   -4.5603 C   0  0  0  0  0  0  0  0  0  0  0  0
    4.6988   -1.5888   -1.7161 C   0  0  0  0  0  0  0  0  0  0  0  0
    3.7381   -0.6949   -2.2385 C   0  0  0  0  0  0  0  0  0  0  0  0
    3.4213    0.4942   -1.5734 C   0  0  0  0  0  0  0  0  0  0  0  0
    4.0211    0.8046   -0.3502 C   0  0  0  0  0  0  0  0  0  0  0  0
    3.6940    2.0930    0.3504 C   0  0  0  0  0  0  0  0  0  0  0  0
    4.6310    3.2041   -0.1040 C   0  0  0  0  0  0  0  0  0  0  0  0
    4.9544   -0.0865    0.1993 C   0  0  0  0  0  0  0  0  0  0  0  0
    5.2773   -1.2751   -0.4632 C   0  0  0  0  0  0  0  0  0  0  0  0
   10.6569   -0.9910   -1.0650 C   0  0  0  0  0  0  0  0  0  0  0  0
   10.8709   -0.4705    0.2240 C   0  0  0  0  0  0  0  0  0  0  0  0
   10.3566   -1.0965    1.3133 F   0  0  0  0  0  0  0  0  0  0  0  0
   11.4998    0.7734    0.3856 C   0  0  0  0  0  0  0  0  0  0  0  0
   11.5977    1.3136    1.6251 F   0  0  0  0  0  0  0  0  0  0  0  0
   11.9013    1.5053   -0.7407 C   0  0  0  0  0  0  0  0  0  0  0  0
   11.8178    0.9204   -2.0142 C   0  0  0  0  0  0  0  0  0  0  0  0
   12.2391    1.6076   -3.1125 F   0  0  0  0  0  0  0  0  0  0  0  0
   11.1962   -0.3175   -2.1746 C   0  0  0  0  0  0  0  0  0  0  0  0
   11.0317   -0.8127   -3.4308 F   0  0  0  0  0  0  0  0  0  0  0  0
   12.2107    2.9425   -0.6207 C   0  0  0  0  0  0  0  0  0  0  0  0
   11.3237    3.8815   -1.0053 C   0  0  0  0  0  0  0  0  0  0  0  0
    9.9107    3.6289   -1.3511 C   0  0  0  0  0  0  0  0  0  0  0  0
    9.3545    2.5086   -1.4814 O   0  0  0  0  0  0  0  0  0  0  0  0
    9.2136    4.8909   -1.3450 C   0  0  0  0  0  0  0  0  0  0  0  0
    7.8439    5.1055   -1.4877 C   0  0  0  0  0  0  0  0  0  0  0  0
    7.3496    6.4089   -1.3005 C   0  0  0  0  0  0  0  0  0  0  0  0
    5.6247    6.7187   -1.4413 Cl  0  0  0  0  0  0  0  0  0  0  0  0
    8.2312    7.4543   -0.9600 C   0  0  0  0  0  0  0  0  0  0  0  0
    9.6098    7.2121   -0.8243 C   0  0  0  0  0  0  0  0  0  0  0  0
   10.1000    5.9127   -1.0457 C   0  0  0  0  0  0  0  0  0  0  0  0
   11.4833    5.3668   -0.9364 C   0  0  0  0  0  0  0  0  0  0  0  0
   12.6415    6.0652   -1.0560 C   0  0  0  0  0  0  0  0  0  0  0  0
   13.9181    5.4174   -1.1890 C   0  0  0  0  0  0  0  0  0  0  0  0
   14.9568    4.9121   -1.3015 N   0  0  0  0  0  0  0  0  0  0  0  0
   12.6675    7.4907   -1.2321 C   0  0  0  0  0  0  0  0  0  0  0  0
   12.6983    8.6371   -1.3986 N   0  0  0  0  0  0  0  0  0  0  0  0
  -11.5325    3.5243    7.4294 H   0  0  0  0  0  0  0  0  0  0  0  0
   -5.9632    6.4370    7.1451 H   0  0  0  0  0  0  0  0  0  0  0  0
   -7.3972    9.2531   10.0912 H   0  0  0  0  0  0  0  0  0  0  0  0
   -9.4849    7.9909   10.3090 H   0  0  0  0  0  0  0  0  0  0  0  0
   -8.1237    4.3669    2.2871 H   0  0  0  0  0  0  0  0  0  0  0  0
   -7.5387    3.1770    1.0745 H   0  0  0  0  0  0  0  0  0  0  0  0
   -5.6492    3.8668    2.5012 H   0  0  0  0  0  0  0  0  0  0  0  0
   -6.0402    2.1537    2.8666 H   0  0  0  0  0  0  0  0  0  0  0  0
   -6.5632    3.4529    4.0022 H   0  0  0  0  0  0  0  0  0  0  0  0
   -9.2481    4.4532    4.5740 H   0  0  0  0  0  0  0  0  0  0  0  0
   -7.0722    0.6886    0.9392 H   0  0  0  0  0  0  0  0  0  0  0  0
   -6.6267   -3.2639    3.3975 H   0  0  0  0  0  0  0  0  0  0  0  0
   -3.6975   -2.1781   -3.7752 H   0  0  0  0  0  0  0  0  0  0  0  0
   -3.4885    0.2019   -4.1610 H   0  0  0  0  0  0  0  0  0  0  0  0
   -2.0060    2.6239   -1.7410 H   0  0  0  0  0  0  0  0  0  0  0  0
   -2.4053    2.3311   -3.4582 H   0  0  0  0  0  0  0  0  0  0  0  0
   -4.0708    3.8722   -2.5700 H   0  0  0  0  0  0  0  0  0  0  0  0
   -4.8988    2.2855   -2.7774 H   0  0  0  0  0  0  0  0  0  0  0  0
   -4.3775    2.8300   -1.1309 H   0  0  0  0  0  0  0  0  0  0  0  0
   -2.2421    0.7911   -0.0787 H   0  0  0  0  0  0  0  0  0  0  0  0
   -2.4318   -1.6207    0.3313 H   0  0  0  0  0  0  0  0  0  0  0  0
   -5.8564   -4.0643   -2.1224 H   0  0  0  0  0  0  0  0  0  0  0  0
   -6.7442   -5.3367   -3.9901 H   0  0  0  0  0  0  0  0  0  0  0  0
   -4.6625   -6.6955   -6.7821 H   0  0  0  0  0  0  0  0  0  0  0  0
   -6.3267   -6.2699   -6.2792 H   0  0  0  0  0  0  0  0  0  0  0  0
   -6.3121   -8.1648   -4.6191 H   0  0  0  0  0  0  0  0  0  0  0  0
   -4.6198   -8.5751   -5.1172 H   0  0  0  0  0  0  0  0  0  0  0  0
   -5.9755   -8.7383   -6.2978 H   0  0  0  0  0  0  0  0  0  0  0  0
   -2.7467   -6.1682   -5.3553 H   0  0  0  0  0  0  0  0  0  0  0  0
   -1.8338   -4.8918   -3.5171 H   0  0  0  0  0  0  0  0  0  0  0  0
   -0.4323   -3.3235   -2.2753 H   0  0  0  0  0  0  0  0  0  0  0  0
    2.0698   -3.0851   -2.5614 H   0  0  0  0  0  0  0  0  0  0  0  0
    4.2894   -6.3235    0.5870 H   0  0  0  0  0  0  0  0  0  0  0  0
    2.7035   -6.8561    2.2093 H   0  0  0  0  0  0  0  0  0  0  0  0
    0.9537   -6.8467    2.5730 H   0  0  0  0  0  0  0  0  0  0  0  0
    1.6987   -9.1440    2.0629 H   0  0  0  0  0  0  0  0  0  0  0  0
    2.3664   -8.6125    0.4672 H   0  0  0  0  0  0  0  0  0  0  0  0
    0.5832   -8.5680    0.7608 H   0  0  0  0  0  0  0  0  0  0  0  0
   -1.1424   -6.2801    1.7381 H   0  0  0  0  0  0  0  0  0  0  0  0
   10.0922   -3.5301    0.2802 H   0  0  0  0  0  0  0  0  0  0  0  0
    3.8009   -4.6175   -4.3683 H   0  0  0  0  0  0  0  0  0  0  0  0
    3.6302   -4.2191   -6.7630 H   0  0  0  0  0  0  0  0  0  0  0  0
    4.3869   -3.0167   -8.7731 H   0  0  0  0  0  0  0  0  0  0  0  0
    5.4864   -1.6071   -8.6248 H   0  0  0  0  0  0  0  0  0  0  0  0
    2.4641   -1.6182   -7.9772 H   0  0  0  0  0  0  0  0  0  0  0  0
    3.5724   -0.1960   -7.7995 H   0  0  0  0  0  0  0  0  0  0  0  0
    3.2525   -0.8961   -9.4359 H   0  0  0  0  0  0  0  0  0  0  0  0
    5.9902   -0.6362   -6.3640 H   0  0  0  0  0  0  0  0  0  0  0  0
    6.1361   -0.9895   -3.9639 H   0  0  0  0  0  0  0  0  0  0  0  0
    3.2096   -0.9190   -3.1595 H   0  0  0  0  0  0  0  0  0  0  0  0
    2.6890    1.1636   -2.0117 H   0  0  0  0  0  0  0  0  0  0  0  0
    3.7822    1.9689    1.4505 H   0  0  0  0  0  0  0  0  0  0  0  0
    2.6451    2.3890    0.1312 H   0  0  0  0  0  0  0  0  0  0  0  0
    4.5809    3.3164   -1.2107 H   0  0  0  0  0  0  0  0  0  0  0  0
    4.3168    4.1616    0.3586 H   0  0  0  0  0  0  0  0  0  0  0  0
    5.6808    2.9711    0.1874 H   0  0  0  0  0  0  0  0  0  0  0  0
    5.4292    0.1378    1.1464 H   0  0  0  0  0  0  0  0  0  0  0  0
    5.9682   -1.9512    0.0222 H   0  0  0  0  0  0  0  0  0  0  0  0
   13.1425    3.2099   -0.1498 H   0  0  0  0  0  0  0  0  0  0  0  0
    7.1711    4.2799   -1.7017 H   0  0  0  0  0  0  0  0  0  0  0  0
    7.8422    8.4532   -0.7894 H   0  0  0  0  0  0  0  0  0  0  0  0
   10.2543    8.0143   -0.5092 H   0  0  0  0  0  0  0  0  0  0  0  0
  1  2  2  3
  2  3  1  0
  3  4  2  0
  3  5  1  0
  5  6  2  0
  6  7  1  0
  7  8  1  0
  7  9  2  0
  9 10  1  0
 10 11  2  0
 11 12  1  0
 12 13  2  3
 13 14  1  0
 14 15  3  0
 13 16  1  0
 16 17  3  0
  1 18  1  0
 18 19  1  0
 19 20  1  0
 20 21  1  0
 21 22  2  0
 22 23  1  0
 23 24  1  0
 24 25  1  0
 23 26  1  0
 26 27  1  0
 22 28  1  0
 28 29  2  0
 29 30  1  0
 29 31  1  0
 31 32  2  0
 32 33  1  0
 33 34  1  0
 34 35  1  0
 35 36  1  0
 36 37  2  0
 37 38  1  0
 38 39  1  0
 39 40  2  0
 40 41  1  0
 41 42  2  0
 42 43  1  0
 43 44  1  0
 42 45  1  0
 45 46  2  0
 38 47  1  0
 47 48  2  0
 48 49  1  0
 49 50  2  0
 50 51  1  0
 51 52  1  0
 50 53  1  0
 53 54  2  0
 38 55  1  0
 55 56  1  0
 56 57  1  0
 37 58  1  0
 58 59  2  0
 59 60  1  0
 60 61  2  0
 61 62  1  0
 62 63  2  0
 63 64  1  0
 64 65  2  0
 65 66  1  0
 66 67  1  0
 67 68  1  0
 66 69  1  0
 69 70  2  0
 63 71  1  0
 71 72  1  0
 72 73  1  0
 73 74  1  0
 74 75  2  0
 75 76  1  0
 76 77  1  0
 77 78  1  0
 78 79  1  0
 79 80  1  0
 80 81  2  0
 81 82  1  0
 82 83  2  0
 83 84  1  0
 84 85  1  0
 83 86  1  0
 86 87  2  0
 79 88  1  0
 88 89  2  0
 89 90  1  0
 90 91  2  0
 91 92  1  0
 92 93  1  0
 91 94  1  0
 94 95  2  0
 75 96  1  0
 96 97  2  0
 97 98  1  0
 97 99  1  0
 99100  1  0
 99101  2  0
101102  1  0
102103  1  0
102104  2  0
104105  1  0
101106  1  0
106107  2  3
107108  1  0
108109  2  0
108110  1  0
110111  2  0
111112  1  0
112113  1  0
112114  2  0
114115  1  0
115116  2  0
116117  1  0
117118  2  3
118119  1  0
119120  3  0
118121  1  0
121122  3  0
 12  2  1  0
 27 18  2  0
 57 31  1  0
 69 59  1  0
 78 71  2  0
 87 80  1  0
 95 88  1  0
104 96  1  0
117107  1  0
 11  5  1  0
 26 20  2  0
 56 33  2  0
 65 60  1  0
 77 73  2  0
116110  1  0
 30 21  1  0
 55 35  2  0
 79 62  1  0
 70 36  1  0
 46 39  1  0
 54 47  1  0
  1123  1  0
  6124  1  0
  9125  1  0
 10126  1  0
 24127  1  0
 24128  1  0
 25129  1  0
 25130  1  0
 25131  1  0
 27132  1  0
 28133  1  0
 32134  1  0
 40135  1  0
 41136  1  0
 43137  1  0
 43138  1  0
 44139  1  0
 44140  1  0
 44141  1  0
 45142  1  0
 46143  1  0
 48144  1  0
 49145  1  0
 51146  1  0
 51147  1  0
 52148  1  0
 52149  1  0
 52150  1  0
 53151  1  0
 54152  1  0
 58153  1  0
 61154  1  0
 64155  1  0
 67156  1  0
 67157  1  0
 68158  1  0
 68159  1  0
 68160  1  0
 70161  1  0
 74162  1  0
 81163  1  0
 82164  1  0
 84165  1  0
 84166  1  0
 85167  1  0
 85168  1  0
 85169  1  0
 86170  1  0
 87171  1  0
 89172  1  0
 90173  1  0
 92174  1  0
 92175  1  0
 93176  1  0
 93177  1  0
 93178  1  0
 94179  1  0
 95180  1  0
106181  1  0
111182  1  0
114183  1  0
115184  1  0
M  END

