
     RDKit          3D

217240  0  0  0  0  0  0  0  0999 V2000
   -1.6533    6.2171    5.6076 C   0  0  0  0  0  0  0  0  0  0  0  0
   -2.0652    6.2670    4.3121 C   0  0  0  0  0  0  0  0  0  0  0  0
   -2.4178    5.1953    3.3909 C   0  0  0  0  0  0  0  0  0  0  0  0
   -3.0385    4.1805    3.7320 O   0  0  0  0  0  0  0  0  0  0  0  0
   -1.5012    5.3836    2.2966 C   0  0  0  0  0  0  0  0  0  0  0  0
   -1.5687    4.5736    1.1666 C   0  0  0  0  0  0  0  0  0  0  0  0
   -1.9135    5.0743   -0.1242 C   0  0  0  0  0  0  0  0  0  0  0  0
   -2.4080    3.9058   -1.4386 Cl  0  0  0  0  0  0  0  0  0  0  0  0
   -1.9039    6.4340   -0.3276 C   0  0  0  0  0  0  0  0  0  0  0  0
   -1.8716    7.2798    0.7844 C   0  0  0  0  0  0  0  0  0  0  0  0
   -1.6720    6.7460    2.0933 C   0  0  0  0  0  0  0  0  0  0  0  0
   -1.9143    7.4041    3.4138 C   0  0  0  0  0  0  0  0  0  0  0  0
   -2.1285    8.7473    3.6948 C   0  0  0  0  0  0  0  0  0  0  0  0
   -2.4774    9.6966    2.6809 C   0  0  0  0  0  0  0  0  0  0  0  0
   -2.7810   10.4651    1.8445 N   0  0  0  0  0  0  0  0  0  0  0  0
   -2.2886    9.2403    5.0024 C   0  0  0  0  0  0  0  0  0  0  0  0
   -2.3760    9.6287    6.0978 N   0  0  0  0  0  0  0  0  0  0  0  0
   -1.4488    4.8985    6.2061 C   0  0  0  0  0  0  0  0  0  0  0  0
   -0.3087    4.1177    6.4942 C   0  0  0  0  0  0  0  0  0  0  0  0
   -0.6575    2.7915    6.9851 C   0  0  0  0  0  0  0  0  0  0  0  0
    0.1792    1.7365    7.3654 C   0  0  0  0  0  0  0  0  0  0  0  0
    1.6247    1.8289    7.2834 C   0  0  0  0  0  0  0  0  0  0  0  0
    2.4131    2.3738    8.3104 C   0  0  0  0  0  0  0  0  0  0  0  0
    3.7609    2.6317    8.0453 C   0  0  0  0  0  0  0  0  0  0  0  0
    4.3143    2.3225    6.7912 C   0  0  0  0  0  0  0  0  0  0  0  0
    3.5015    1.7201    5.8110 C   0  0  0  0  0  0  0  0  0  0  0  0
    4.1509    1.3559    4.1845 S   0  0  0  0  0  0  0  0  0  0  0  0
    4.5759   -0.3989    4.4685 C   0  0  0  0  0  0  0  0  0  0  0  0
    3.4674   -1.3421    4.0049 C   0  0  0  0  0  0  0  0  0  0  0  0
    2.1663    1.4999    6.0583 C   0  0  0  0  0  0  0  0  0  0  0  0
   -0.4548    0.4540    7.5306 C   0  0  0  0  0  0  0  0  0  0  0  0
   -1.8130    0.3288    7.3486 C   0  0  0  0  0  0  0  0  0  0  0  0
   -2.6579    1.4072    7.0501 C   0  0  0  0  0  0  0  0  0  0  0  0
   -4.1002    1.3328    6.9171 C   0  0  0  0  0  0  0  0  0  0  0  0
   -4.8364    2.0216    7.8593 C   0  0  0  0  0  0  0  0  0  0  0  0
   -6.2115    2.0029    7.8344 C   0  0  0  0  0  0  0  0  0  0  0  0
   -6.8863    1.2547    6.8516 C   0  0  0  0  0  0  0  0  0  0  0  0
   -6.1549    0.5368    5.8918 C   0  0  0  0  0  0  0  0  0  0  0  0
   -6.9327   -0.4767    4.5749 S   0  0  0  0  0  0  0  0  0  0  0  0
   -8.7042   -0.5353    5.0621 C   0  0  0  0  0  0  0  0  0  0  0  0
   -9.4607    0.6076    4.4042 C   0  0  0  0  0  0  0  0  0  0  0  0
   -4.7591    0.5998    5.9028 C   0  0  0  0  0  0  0  0  0  0  0  0
   -2.0390    2.6914    7.0027 C   0  0  0  0  0  0  0  0  0  0  0  0
   -2.7437    4.1347    6.6310 S   0  0  0  0  0  0  0  0  0  0  0  0
   -2.3110   -1.0170    7.3737 C   0  0  0  0  0  0  0  0  0  0  0  0
   -1.3204   -1.9730    7.4798 C   0  0  0  0  0  0  0  0  0  0  0  0
    0.1332   -1.0819    7.6260 S   0  0  0  0  0  0  0  0  0  0  0  0
   -1.5425   -3.2760    6.7713 C   0  0  0  0  0  0  0  0  0  0  0  0
   -0.9047   -4.5326    6.9002 C   0  0  0  0  0  0  0  0  0  0  0  0
    0.0739   -4.8854    7.8968 C   0  0  0  0  0  0  0  0  0  0  0  0
   -0.1642   -4.7016    9.2899 C   0  0  0  0  0  0  0  0  0  0  0  0
    0.8113   -5.0934   10.2047 C   0  0  0  0  0  0  0  0  0  0  0  0
    2.0213   -5.6476    9.7781 C   0  0  0  0  0  0  0  0  0  0  0  0
    2.2534   -5.8227    8.3858 C   0  0  0  0  0  0  0  0  0  0  0  0
    3.5673   -6.3064    7.8747 C   0  0  0  0  0  0  0  0  0  0  0  0
    4.4845   -5.1201    7.5864 C   0  0  0  0  0  0  0  0  0  0  0  0
    1.2924   -5.4123    7.4950 C   0  0  0  0  0  0  0  0  0  0  0  0
   -1.2451   -5.3970    5.8034 C   0  0  0  0  0  0  0  0  0  0  0  0
   -0.6334   -6.8629    5.1325 S   0  0  0  0  0  0  0  0  0  0  0  0
   -1.5629   -6.7483    3.7079 C   0  0  0  0  0  0  0  0  0  0  0  0
   -1.5018   -7.1435    2.3872 C   0  0  0  0  0  0  0  0  0  0  0  0
   -0.7001   -8.0830    1.7062 C   0  0  0  0  0  0  0  0  0  0  0  0
   -0.5517   -8.0023    0.3005 C   0  0  0  0  0  0  0  0  0  0  0  0
    0.2911   -8.9035   -0.2780 N   0  0  0  0  0  0  0  0  0  0  0  0
    0.7999   -9.7556    1.0462 S   0  0  0  0  0  0  0  0  0  0  0  0
    0.0255   -9.0544    2.3311 N   0  0  0  0  0  0  0  0  0  0  0  0
   -1.2263   -7.0148   -0.4193 C   0  0  0  0  0  0  0  0  0  0  0  0
   -1.0711   -6.4883   -1.6833 C   0  0  0  0  0  0  0  0  0  0  0  0
   -0.0452   -6.5190   -3.0358 S   0  0  0  0  0  0  0  0  0  0  0  0
   -0.6372   -5.0129   -3.6376 C   0  0  0  0  0  0  0  0  0  0  0  0
   -0.1530   -4.0931   -4.5793 C   0  0  0  0  0  0  0  0  0  0  0  0
    0.3756   -4.5943   -5.8350 C   0  0  0  0  0  0  0  0  0  0  0  0
   -0.5305   -5.0135   -6.8232 C   0  0  0  0  0  0  0  0  0  0  0  0
   -0.0748   -5.6522   -7.9707 C   0  0  0  0  0  0  0  0  0  0  0  0
    1.2952   -5.8754   -8.1442 C   0  0  0  0  0  0  0  0  0  0  0  0
    2.2060   -5.4504   -7.1632 C   0  0  0  0  0  0  0  0  0  0  0  0
    3.6736   -5.5859   -7.4157 C   0  0  0  0  0  0  0  0  0  0  0  0
    4.0793   -4.5836   -8.4835 C   0  0  0  0  0  0  0  0  0  0  0  0
    1.7459   -4.8035   -6.0123 C   0  0  0  0  0  0  0  0  0  0  0  0
   -0.6548   -2.7849   -4.3615 C   0  0  0  0  0  0  0  0  0  0  0  0
   -1.7784   -2.8701   -3.0632 S   0  0  0  0  0  0  0  0  0  0  0  0
   -1.5721   -4.5298   -2.8005 C   0  0  0  0  0  0  0  0  0  0  0  0
   -1.8624   -5.3641   -1.7378 C   0  0  0  0  0  0  0  0  0  0  0  0
   -2.5511   -5.2030   -0.6211 N   0  0  0  0  0  0  0  0  0  0  0  0
   -2.1474   -6.1287    0.2323 C   0  0  0  0  0  0  0  0  0  0  0  0
   -2.2156   -6.1828    1.6619 C   0  0  0  0  0  0  0  0  0  0  0  0
   -2.6801   -5.1864    2.5207 N   0  0  0  0  0  0  0  0  0  0  0  0
   -2.2920   -5.6033    3.7488 C   0  0  0  0  0  0  0  0  0  0  0  0
   -2.1260   -4.8584    4.9278 C   0  0  0  0  0  0  0  0  0  0  0  0
   -2.5168   -3.3163    5.4105 S   0  0  0  0  0  0  0  0  0  0  0  0
   -3.1398   -3.8269    2.2557 C   0  0  0  0  0  0  0  0  0  0  0  0
   -4.6357   -3.6851    2.5800 C   0  0  0  0  0  0  0  0  0  0  0  0
   -3.8980   -4.5242   -0.6465 C   0  0  0  0  0  0  0  0  0  0  0  0
   -4.7661   -5.0696   -1.7612 C   0  0  0  0  0  0  0  0  0  0  0  0
   -0.1166   -1.5186   -4.9192 C   0  0  0  0  0  0  0  0  0  0  0  0
    0.7639   -1.3461   -5.9916 C   0  0  0  0  0  0  0  0  0  0  0  0
    1.1545    0.0065   -6.1978 C   0  0  0  0  0  0  0  0  0  0  0  0
    2.0768    0.4850   -7.1618 C   0  0  0  0  0  0  0  0  0  0  0  0
    3.0684   -0.3817   -7.8084 C   0  0  0  0  0  0  0  0  0  0  0  0
    2.9905   -0.7778   -9.1558 C   0  0  0  0  0  0  0  0  0  0  0  0
    4.1058   -1.3755   -9.7560 C   0  0  0  0  0  0  0  0  0  0  0  0
    5.2774   -1.5903   -9.0160 C   0  0  0  0  0  0  0  0  0  0  0  0
    5.3437   -1.2067   -7.6658 C   0  0  0  0  0  0  0  0  0  0  0  0
    6.9118   -1.2793   -6.7800 S   0  0  0  0  0  0  0  0  0  0  0  0
    6.6447   -2.8515   -5.8823 C   0  0  0  0  0  0  0  0  0  0  0  0
    5.8223   -2.6591   -4.6091 C   0  0  0  0  0  0  0  0  0  0  0  0
    4.2265   -0.6364   -7.0648 C   0  0  0  0  0  0  0  0  0  0  0  0
    2.2783    1.8996   -7.2444 C   0  0  0  0  0  0  0  0  0  0  0  0
    1.6772    2.7642   -6.3579 C   0  0  0  0  0  0  0  0  0  0  0  0
    0.9298    2.2783   -5.2629 C   0  0  0  0  0  0  0  0  0  0  0  0
    0.8966    3.0415   -3.9958 C   0  0  0  0  0  0  0  0  0  0  0  0
    0.1195    4.2118   -3.8757 C   0  0  0  0  0  0  0  0  0  0  0  0
    0.3467    5.0994   -2.8148 C   0  0  0  0  0  0  0  0  0  0  0  0
    1.3624    4.8485   -1.8861 C   0  0  0  0  0  0  0  0  0  0  0  0
    2.1938    3.7288   -2.0380 C   0  0  0  0  0  0  0  0  0  0  0  0
    3.8111    3.7536   -1.2544 S   0  0  0  0  0  0  0  0  0  0  0  0
    3.5404    2.9536    0.3724 C   0  0  0  0  0  0  0  0  0  0  0  0
    4.7712    3.2673    1.2323 C   0  0  0  0  0  0  0  0  0  0  0  0
    1.9461    2.8293   -3.0778 C   0  0  0  0  0  0  0  0  0  0  0  0
    0.6111    0.8794   -5.2575 C   0  0  0  0  0  0  0  0  0  0  0  0
   -0.3495   -0.0129   -4.1931 S   0  0  0  0  0  0  0  0  0  0  0  0
    2.0059    4.1263   -6.5878 C   0  0  0  0  0  0  0  0  0  0  0  0
    2.8392    4.3218   -7.6601 C   0  0  0  0  0  0  0  0  0  0  0  0
    3.2619    2.8088   -8.2734 S   0  0  0  0  0  0  0  0  0  0  0  0
    3.1390    5.6613   -8.1933 C   0  0  0  0  0  0  0  0  0  0  0  0
    2.1456    6.5555   -8.4075 C   0  0  0  0  0  0  0  0  0  0  0  0
    2.1825    8.0022   -8.3888 C   0  0  0  0  0  0  0  0  0  0  0  0
    3.2011    8.7315   -8.3502 O   0  0  0  0  0  0  0  0  0  0  0  0
    0.7959    8.4825   -8.3507 C   0  0  0  0  0  0  0  0  0  0  0  0
    0.3585    9.7790   -8.1509 C   0  0  0  0  0  0  0  0  0  0  0  0
   -1.0425   10.0046   -7.9551 C   0  0  0  0  0  0  0  0  0  0  0  0
   -1.6597   11.7124   -7.7837 Cl  0  0  0  0  0  0  0  0  0  0  0  0
   -1.9466    8.9016   -7.9246 C   0  0  0  0  0  0  0  0  0  0  0  0
   -1.4730    7.6082   -8.1745 C   0  0  0  0  0  0  0  0  0  0  0  0
   -0.0807    7.4231   -8.3929 C   0  0  0  0  0  0  0  0  0  0  0  0
    0.7410    6.1815   -8.5953 C   0  0  0  0  0  0  0  0  0  0  0  0
    0.4785    5.1536   -9.4959 C   0  0  0  0  0  0  0  0  0  0  0  0
   -0.3364    4.0499   -8.9325 C   0  0  0  0  0  0  0  0  0  0  0  0
   -0.9633    3.1500   -8.4674 N   0  0  0  0  0  0  0  0  0  0  0  0
    1.5232    4.6659  -10.4313 C   0  0  0  0  0  0  0  0  0  0  0  0
    2.2212    4.0378  -11.0652 N   0  0  0  0  0  0  0  0  0  0  0  0
   -0.9697    7.0427    5.9341 H   0  0  0  0  0  0  0  0  0  0  0  0
   -1.7533    3.5216    1.2982 H   0  0  0  0  0  0  0  0  0  0  0  0
   -1.4722    6.8052   -1.2157 H   0  0  0  0  0  0  0  0  0  0  0  0
   -2.2264    8.2686    0.6153 H   0  0  0  0  0  0  0  0  0  0  0  0
    0.7139    4.4388    6.3453 H   0  0  0  0  0  0  0  0  0  0  0  0
    1.9815    2.6233    9.2839 H   0  0  0  0  0  0  0  0  0  0  0  0
    4.3745    3.0945    8.8146 H   0  0  0  0  0  0  0  0  0  0  0  0
    5.3355    2.5987    6.5809 H   0  0  0  0  0  0  0  0  0  0  0  0
    5.4825   -0.6168    3.8662 H   0  0  0  0  0  0  0  0  0  0  0  0
    4.8144   -0.5677    5.5230 H   0  0  0  0  0  0  0  0  0  0  0  0
    3.5448   -1.5386    2.9128 H   0  0  0  0  0  0  0  0  0  0  0  0
    2.4524   -0.9244    4.2234 H   0  0  0  0  0  0  0  0  0  0  0  0
    3.5624   -2.3104    4.5354 H   0  0  0  0  0  0  0  0  0  0  0  0
    1.5254    1.1292    5.2644 H   0  0  0  0  0  0  0  0  0  0  0  0
   -4.3054    2.6111    8.6329 H   0  0  0  0  0  0  0  0  0  0  0  0
   -6.7512    2.5697    8.5973 H   0  0  0  0  0  0  0  0  0  0  0  0
   -7.9698    1.2752    6.8971 H   0  0  0  0  0  0  0  0  0  0  0  0
   -9.1077   -1.4813    4.6578 H   0  0  0  0  0  0  0  0  0  0  0  0
   -8.8550   -0.5620    6.1514 H   0  0  0  0  0  0  0  0  0  0  0  0
   -9.0419    1.5892    4.7231 H   0  0  0  0  0  0  0  0  0  0  0  0
  -10.5252    0.5644    4.6812 H   0  0  0  0  0  0  0  0  0  0  0  0
   -9.3786    0.5322    3.2963 H   0  0  0  0  0  0  0  0  0  0  0  0
   -4.1893    0.0868    5.1399 H   0  0  0  0  0  0  0  0  0  0  0  0
   -3.3267   -1.2572    7.1366 H   0  0  0  0  0  0  0  0  0  0  0  0
   -1.0993   -4.3006    9.6406 H   0  0  0  0  0  0  0  0  0  0  0  0
    0.6371   -4.9675   11.2858 H   0  0  0  0  0  0  0  0  0  0  0  0
    2.7841   -5.9278   10.4951 H   0  0  0  0  0  0  0  0  0  0  0  0
    4.0296   -7.0046    8.6047 H   0  0  0  0  0  0  0  0  0  0  0  0
    3.4002   -6.8735    6.9272 H   0  0  0  0  0  0  0  0  0  0  0  0
    4.2012   -4.6520    6.6241 H   0  0  0  0  0  0  0  0  0  0  0  0
    5.5316   -5.4763    7.5253 H   0  0  0  0  0  0  0  0  0  0  0  0
    4.4092   -4.3580    8.3933 H   0  0  0  0  0  0  0  0  0  0  0  0
    1.4858   -5.5118    6.4225 H   0  0  0  0  0  0  0  0  0  0  0  0
   -1.5950   -4.8862   -6.6780 H   0  0  0  0  0  0  0  0  0  0  0  0
   -0.7810   -5.9881   -8.7303 H   0  0  0  0  0  0  0  0  0  0  0  0
    1.6427   -6.3571   -9.0550 H   0  0  0  0  0  0  0  0  0  0  0  0
    4.2570   -5.3877   -6.4888 H   0  0  0  0  0  0  0  0  0  0  0  0
    3.9124   -6.6196   -7.7559 H   0  0  0  0  0  0  0  0  0  0  0  0
    3.7092   -3.5843   -8.1876 H   0  0  0  0  0  0  0  0  0  0  0  0
    3.6345   -4.8578   -9.4645 H   0  0  0  0  0  0  0  0  0  0  0  0
    5.1890   -4.5580   -8.5871 H   0  0  0  0  0  0  0  0  0  0  0  0
    2.4383   -4.4613   -5.2539 H   0  0  0  0  0  0  0  0  0  0  0  0
   -2.8624   -3.4766    1.2584 H   0  0  0  0  0  0  0  0  0  0  0  0
   -2.5812   -3.1016    2.8485 H   0  0  0  0  0  0  0  0  0  0  0  0
   -5.1885   -4.6516    2.4162 H   0  0  0  0  0  0  0  0  0  0  0  0
   -5.0988   -2.9014    1.9410 H   0  0  0  0  0  0  0  0  0  0  0  0
   -4.7812   -3.4064    3.6453 H   0  0  0  0  0  0  0  0  0  0  0  0
   -4.4444   -4.7646    0.2707 H   0  0  0  0  0  0  0  0  0  0  0  0
   -3.7589   -3.4407   -0.7816 H   0  0  0  0  0  0  0  0  0  0  0  0
   -5.7456   -4.5195   -1.7368 H   0  0  0  0  0  0  0  0  0  0  0  0
   -4.9526   -6.1544   -1.6046 H   0  0  0  0  0  0  0  0  0  0  0  0
   -4.3019   -4.9033   -2.7562 H   0  0  0  0  0  0  0  0  0  0  0  0
    1.1343   -2.1369   -6.6105 H   0  0  0  0  0  0  0  0  0  0  0  0
    2.1010   -0.5620   -9.7401 H   0  0  0  0  0  0  0  0  0  0  0  0
    4.0593   -1.6620  -10.7983 H   0  0  0  0  0  0  0  0  0  0  0  0
    6.1487   -2.0174   -9.5093 H   0  0  0  0  0  0  0  0  0  0  0  0
    6.1939   -3.6211   -6.5295 H   0  0  0  0  0  0  0  0  0  0  0  0
    7.6511   -3.2105   -5.5872 H   0  0  0  0  0  0  0  0  0  0  0  0
    4.7778   -2.9994   -4.7702 H   0  0  0  0  0  0  0  0  0  0  0  0
    5.8045   -1.5934   -4.2895 H   0  0  0  0  0  0  0  0  0  0  0  0
    6.2539   -3.2526   -3.7801 H   0  0  0  0  0  0  0  0  0  0  0  0
    4.3158   -0.2383   -6.0556 H   0  0  0  0  0  0  0  0  0  0  0  0
   -0.6191    4.4547   -4.6452 H   0  0  0  0  0  0  0  0  0  0  0  0
   -0.2479    6.0122   -2.7685 H   0  0  0  0  0  0  0  0  0  0  0  0
    1.5558    5.5969   -1.1224 H   0  0  0  0  0  0  0  0  0  0  0  0
    2.6360    3.3255    0.8808 H   0  0  0  0  0  0  0  0  0  0  0  0
    3.4506    1.8596    0.2628 H   0  0  0  0  0  0  0  0  0  0  0  0
    5.0344    2.4290    1.9038 H   0  0  0  0  0  0  0  0  0  0  0  0
    5.6765    3.4309    0.5993 H   0  0  0  0  0  0  0  0  0  0  0  0
    4.6074    4.1896    1.8320 H   0  0  0  0  0  0  0  0  0  0  0  0
    2.6702    2.0481   -3.2672 H   0  0  0  0  0  0  0  0  0  0  0  0
    1.6197    4.9325   -5.9713 H   0  0  0  0  0  0  0  0  0  0  0  0
    4.1565    5.9813   -8.2542 H   0  0  0  0  0  0  0  0  0  0  0  0
    1.0273   10.6508   -8.2057 H   0  0  0  0  0  0  0  0  0  0  0  0
   -2.9929    9.1184   -7.7089 H   0  0  0  0  0  0  0  0  0  0  0  0
   -2.1561    6.7925   -8.0798 H   0  0  0  0  0  0  0  0  0  0  0  0
  1  2  2  3
  2  3  1  0
  3  4  2  0
  3  5  1  0
  5  6  2  0
  6  7  1  0
  7  8  1  0
  7  9  2  0
  9 10  1  0
 10 11  2  0
 11 12  1  0
 12 13  2  3
 13 14  1  0
 14 15  3  0
 13 16  1  0
 16 17  3  0
  1 18  1  0
 18 19  2  0
 19 20  1  0
 20 21  2  0
 21 22  1  0
 22 23  2  0
 23 24  1  0
 24 25  2  0
 25 26  1  0
 26 27  1  0
 27 28  1  0
 28 29  1  0
 26 30  2  0
 21 31  1  0
 31 32  2  0
 32 33  1  0
 33 34  1  0
 34 35  2  0
 35 36  1  0
 36 37  2  0
 37 38  1  0
 38 39  1  0
 39 40  1  0
 40 41  1  0
 38 42  2  0
 33 43  2  0
 43 44  1  0
 32 45  1  0
 45 46  2  0
 46 47  1  0
 46 48  1  0
 48 49  2  0
 49 50  1  0
 50 51  2  0
 51 52  1  0
 52 53  2  0
 53 54  1  0
 54 55  1  0
 55 56  1  0
 54 57  2  0
 49 58  1  0
 58 59  1  0
 59 60  1  0
 60 61  1  0
 61 62  1  0
 62 63  1  0
 63 64  2  0
 64 65  1  0
 65 66  1  0
 63 67  1  0
 67 68  1  0
 68 69  1  0
 69 70  1  0
 70 71  1  0
 71 72  1  0
 72 73  2  0
 73 74  1  0
 74 75  2  0
 75 76  1  0
 76 77  1  0
 77 78  1  0
 76 79  2  0
 71 80  2  0
 80 81  1  0
 81 82  1  0
 82 83  1  0
 83 84  1  0
 84 85  1  0
 85 86  1  0
 86 87  1  0
 87 88  1  0
 88 89  1  0
 89 90  1  0
 87 91  1  0
 91 92  1  0
 84 93  1  0
 93 94  1  0
 80 95  1  0
 95 96  2  0
 96 97  1  0
 97 98  2  0
 98 99  1  0
 99100  2  0
100101  1  0
101102  2  0
102103  1  0
103104  1  0
104105  1  0
105106  1  0
103107  2  0
 98108  1  0
108109  2  0
109110  1  0
110111  1  0
111112  2  0
112113  1  0
113114  2  0
114115  1  0
115116  1  0
116117  1  0
117118  1  0
115119  2  0
110120  2  0
120121  1  0
109122  1  0
122123  2  0
123124  1  0
123125  1  0
125126  2  3
126127  1  0
127128  2  0
127129  1  0
129130  2  0
130131  1  0
131132  1  0
131133  2  0
133134  1  0
134135  2  0
135136  1  0
136137  2  3
137138  1  0
138139  3  0
137140  1  0
140141  3  0
 12  2  1  0
 44 18  1  0
 90 48  1  0
121 95  1  0
136126  1  0
 11  5  1  0
 43 20  1  0
 57 50  1  0
 89 58  2  0
120 97  1  0
135129  1  0
 30 22  1  0
 47 31  1  0
 88 60  2  0
107 99  1  0
124108  1  0
 42 34  1  0
 86 61  2  0
119111  1  0
 66 62  2  0
 85 67  2  0
 83 68  2  0
 82 70  2  0
 79 72  1  0
  1142  1  0
  6143  1  0
  9144  1  0
 10145  1  0
 19146  1  0
 23147  1  0
 24148  1  0
 25149  1  0
 28150  1  0
 28151  1  0
 29152  1  0
 29153  1  0
 29154  1  0
 30155  1  0
 35156  1  0
 36157  1  0
 37158  1  0
 40159  1  0
 40160  1  0
 41161  1  0
 41162  1  0
 41163  1  0
 42164  1  0
 45165  1  0
 51166  1  0
 52167  1  0
 53168  1  0
 55169  1  0
 55170  1  0
 56171  1  0
 56172  1  0
 56173  1  0
 57174  1  0
 73175  1  0
 74176  1  0
 75177  1  0
 77178  1  0
 77179  1  0
 78180  1  0
 78181  1  0
 78182  1  0
 79183  1  0
 91184  1  0
 91185  1  0
 92186  1  0
 92187  1  0
 92188  1  0
 93189  1  0
 93190  1  0
 94191  1  0
 94192  1  0
 94193  1  0
 96194  1  0
100195  1  0
101196  1  0
102197  1  0
105198  1  0
105199  1  0
106200  1  0
106201  1  0
106202  1  0
107203  1  0
112204  1  0
113205  1  0
114206  1  0
117207  1  0
117208  1  0
118209  1  0
118210  1  0
118211  1  0
119212  1  0
122213  1  0
125214  1  0
130215  1  0
133216  1  0
134217  1  0
M  END

