
     RDKit          3D

249274  0  0  0  0  0  0  0  0999 V2000
   -8.5634    3.7400    9.2165 C   0  0  0  0  0  0  0  0  0  0  0  0
   -9.8275    3.9069    8.7776 C   0  0  0  0  0  0  0  0  0  0  0  0
  -10.4872    3.0016    7.8316 C   0  0  0  0  0  0  0  0  0  0  0  0
  -10.0372    1.9064    7.4074 O   0  0  0  0  0  0  0  0  0  0  0  0
  -11.8033    3.5252    7.5398 C   0  0  0  0  0  0  0  0  0  0  0  0
  -12.6968    3.0814    6.5634 C   0  0  0  0  0  0  0  0  0  0  0  0
  -13.8223    3.8700    6.2940 C   0  0  0  0  0  0  0  0  0  0  0  0
  -14.0260    5.0752    6.9813 C   0  0  0  0  0  0  0  0  0  0  0  0
  -15.6493    6.3162    6.4469 I   0  0  0  0  0  0  0  0  0  0  0  0
  -13.1243    5.4885    7.9805 C   0  0  0  0  0  0  0  0  0  0  0  0
  -12.0183    4.6682    8.2869 C   0  0  0  0  0  0  0  0  0  0  0  0
  -10.8304    4.9435    9.1508 C   0  0  0  0  0  0  0  0  0  0  0  0
  -10.6699    5.9949    9.9894 C   0  0  0  0  0  0  0  0  0  0  0  0
   -9.3609    6.4578   10.3873 C   0  0  0  0  0  0  0  0  0  0  0  0
   -8.3060    6.8381   10.6812 N   0  0  0  0  0  0  0  0  0  0  0  0
  -11.7998    6.7273   10.5280 C   0  0  0  0  0  0  0  0  0  0  0  0
  -12.6941    7.2768   11.0086 N   0  0  0  0  0  0  0  0  0  0  0  0
   -7.5769    3.0945    8.3389 C   0  0  0  0  0  0  0  0  0  0  0  0
   -7.3980    3.4499    6.9983 C   0  0  0  0  0  0  0  0  0  0  0  0
   -7.8387    4.6886    6.4083 N   0  0  0  0  0  0  0  0  0  0  0  0
   -6.8669    5.7523    6.3563 C   0  0  0  0  0  0  0  0  0  0  0  0
   -6.2216    6.1665    7.5284 C   0  0  0  0  0  0  0  0  0  0  0  0
   -5.1559    7.0769    7.4710 C   0  0  0  0  0  0  0  0  0  0  0  0
   -4.7086    7.5573    6.2333 C   0  0  0  0  0  0  0  0  0  0  0  0
   -3.5379    8.4966    6.1726 C   0  0  0  0  0  0  0  0  0  0  0  0
   -5.3799    7.1851    5.0623 C   0  0  0  0  0  0  0  0  0  0  0  0
   -6.4456    6.2767    5.1214 C   0  0  0  0  0  0  0  0  0  0  0  0
   -8.9988    4.7215    5.5512 C   0  0  0  0  0  0  0  0  0  0  0  0
   -9.7801    5.8823    5.4884 C   0  0  0  0  0  0  0  0  0  0  0  0
  -10.8673    5.9580    4.6107 C   0  0  0  0  0  0  0  0  0  0  0  0
  -11.1729    4.8795    3.7683 C   0  0  0  0  0  0  0  0  0  0  0  0
  -12.3278    4.9653    2.8138 C   0  0  0  0  0  0  0  0  0  0  0  0
  -10.4198    3.7031    3.8556 C   0  0  0  0  0  0  0  0  0  0  0  0
   -9.3411    3.6198    4.7416 C   0  0  0  0  0  0  0  0  0  0  0  0
   -6.4211    2.6772    6.4096 C   0  0  0  0  0  0  0  0  0  0  0  0
   -5.7915    2.6548    4.8856 S   0  0  0  0  0  0  0  0  0  0  0  0
   -4.7222    1.3721    5.2009 C   0  0  0  0  0  0  0  0  0  0  0  0
   -4.8064    1.0291    6.5607 C   0  0  0  0  0  0  0  0  0  0  0  0
   -3.8603    0.2073    7.2588 N   0  0  0  0  0  0  0  0  0  0  0  0
   -2.9049    0.8843    8.1136 C   0  0  0  0  0  0  0  0  0  0  0  0
   -2.6782    0.4352    9.4291 C   0  0  0  0  0  0  0  0  0  0  0  0
   -1.8385    1.1541   10.2831 C   0  0  0  0  0  0  0  0  0  0  0  0
   -1.2341    2.3388    9.8463 C   0  0  0  0  0  0  0  0  0  0  0  0
   -0.3152    3.1003   10.7642 C   0  0  0  0  0  0  0  0  0  0  0  0
   -1.4296    2.7736    8.5320 C   0  0  0  0  0  0  0  0  0  0  0  0
   -2.2682    2.0538    7.6753 C   0  0  0  0  0  0  0  0  0  0  0  0
   -4.1000   -1.2103    7.3897 C   0  0  0  0  0  0  0  0  0  0  0  0
   -5.4097   -1.7078    7.5144 C   0  0  0  0  0  0  0  0  0  0  0  0
   -5.6329   -3.0543    7.7984 C   0  0  0  0  0  0  0  0  0  0  0  0
   -4.5509   -3.9350    7.9408 C   0  0  0  0  0  0  0  0  0  0  0  0
   -4.7730   -5.3727    8.3099 C   0  0  0  0  0  0  0  0  0  0  0  0
   -3.2426   -3.4504    7.7918 C   0  0  0  0  0  0  0  0  0  0  0  0
   -3.0201   -2.1036    7.5102 C   0  0  0  0  0  0  0  0  0  0  0  0
   -5.8150    1.7656    7.2075 C   0  0  0  0  0  0  0  0  0  0  0  0
   -6.4552    1.8698    8.7642 S   0  0  0  0  0  0  0  0  0  0  0  0
   -3.8442    0.8481    4.1372 C   0  0  0  0  0  0  0  0  0  0  0  0
   -4.2038    1.0429    2.7825 C   0  0  0  0  0  0  0  0  0  0  0  0
   -5.5900    0.9755    2.2634 C   0  0  0  0  0  0  0  0  0  0  0  0
   -6.4185   -0.0827    2.6710 C   0  0  0  0  0  0  0  0  0  0  0  0
   -7.7161   -0.1964    2.1686 C   0  0  0  0  0  0  0  0  0  0  0  0
   -8.1972    0.7509    1.2684 C   0  0  0  0  0  0  0  0  0  0  0  0
   -7.3995    1.8364    0.8754 C   0  0  0  0  0  0  0  0  0  0  0  0
   -7.9272    2.8909   -0.0592 C   0  0  0  0  0  0  0  0  0  0  0  0
   -7.2327    2.8244   -1.4234 C   0  0  0  0  0  0  0  0  0  0  0  0
   -6.0968    1.9473    1.3833 C   0  0  0  0  0  0  0  0  0  0  0  0
   -3.0786    1.2444    1.9901 C   0  0  0  0  0  0  0  0  0  0  0  0
   -2.8666    2.0346    0.4915 S   0  0  0  0  0  0  0  0  0  0  0  0
   -1.1940    1.9679    0.6827 C   0  0  0  0  0  0  0  0  0  0  0  0
   -0.0606    2.4318    0.0879 C   0  0  0  0  0  0  0  0  0  0  0  0
    0.1709    3.3912   -0.9038 C   0  0  0  0  0  0  0  0  0  0  0  0
    1.5234    3.7135   -1.2271 C   0  0  0  0  0  0  0  0  0  0  0  0
    1.7066    4.6482   -2.1948 N   0  0  0  0  0  0  0  0  0  0  0  0
    0.1267    5.0097   -2.5425 S   0  0  0  0  0  0  0  0  0  0  0  0
   -0.8070    4.0484   -1.5740 N   0  0  0  0  0  0  0  0  0  0  0  0
    2.5665    2.9762   -0.6316 C   0  0  0  0  0  0  0  0  0  0  0  0
    3.7354    2.6016   -1.2503 C   0  0  0  0  0  0  0  0  0  0  0  0
    4.2366    2.8774   -2.8384 S   0  0  0  0  0  0  0  0  0  0  0  0
    4.7527    1.2835   -3.0464 C   0  0  0  0  0  0  0  0  0  0  0  0
    5.1400    0.5518   -4.1743 C   0  0  0  0  0  0  0  0  0  0  0  0
    5.4181    1.1617   -5.5074 C   0  0  0  0  0  0  0  0  0  0  0  0
    6.5339    0.7671   -6.2688 C   0  0  0  0  0  0  0  0  0  0  0  0
    6.8148    1.3911   -7.4845 C   0  0  0  0  0  0  0  0  0  0  0  0
    6.0515    2.4732   -7.9217 C   0  0  0  0  0  0  0  0  0  0  0  0
    4.9643    2.9181   -7.1473 C   0  0  0  0  0  0  0  0  0  0  0  0
    4.1973    4.1478   -7.5636 C   0  0  0  0  0  0  0  0  0  0  0  0
    3.0168    3.8013   -8.4522 C   0  0  0  0  0  0  0  0  0  0  0  0
    4.6127    2.2184   -5.9855 C   0  0  0  0  0  0  0  0  0  0  0  0
    5.2066   -0.8209   -3.8407 C   0  0  0  0  0  0  0  0  0  0  0  0
    4.7996   -1.0609   -2.2090 S   0  0  0  0  0  0  0  0  0  0  0  0
    4.5371    0.5670   -1.8923 C   0  0  0  0  0  0  0  0  0  0  0  0
    3.9804    1.3124   -0.8447 C   0  0  0  0  0  0  0  0  0  0  0  0
    3.1444    0.9062    0.1526 N   0  0  0  0  0  0  0  0  0  0  0  0
    2.2906    1.9746    0.3206 C   0  0  0  0  0  0  0  0  0  0  0  0
    0.9850    1.8842    0.8206 C   0  0  0  0  0  0  0  0  0  0  0  0
    0.5330    1.2607    1.9538 N   0  0  0  0  0  0  0  0  0  0  0  0
   -0.8095    1.3350    1.8230 C   0  0  0  0  0  0  0  0  0  0  0  0
   -1.8888    0.9989    2.6211 C   0  0  0  0  0  0  0  0  0  0  0  0
   -2.1428    0.7343    4.2589 S   0  0  0  0  0  0  0  0  0  0  0  0
    1.2819    0.9244    3.1633 C   0  0  0  0  0  0  0  0  0  0  0  0
    1.2871    2.1069    4.1351 C   0  0  0  0  0  0  0  0  0  0  0  0
    2.8343   -0.4973    0.4389 C   0  0  0  0  0  0  0  0  0  0  0  0
    3.9822   -1.1847    1.1623 C   0  0  0  0  0  0  0  0  0  0  0  0
    5.8295   -1.8706   -4.6429 C   0  0  0  0  0  0  0  0  0  0  0  0
    5.2365   -2.7016   -5.6123 C   0  0  0  0  0  0  0  0  0  0  0  0
    3.8189   -2.8276   -5.8693 N   0  0  0  0  0  0  0  0  0  0  0  0
    2.9601   -1.6838   -5.8966 C   0  0  0  0  0  0  0  0  0  0  0  0
    3.0454   -0.7676   -6.9505 C   0  0  0  0  0  0  0  0  0  0  0  0
    2.1012    0.2510   -7.0755 C   0  0  0  0  0  0  0  0  0  0  0  0
    1.0550    0.3701   -6.1410 C   0  0  0  0  0  0  0  0  0  0  0  0
   -0.0043    1.4233   -6.3269 C   0  0  0  0  0  0  0  0  0  0  0  0
    0.9668   -0.5519   -5.0899 C   0  0  0  0  0  0  0  0  0  0  0  0
    1.9022   -1.5833   -4.9791 C   0  0  0  0  0  0  0  0  0  0  0  0
    3.2624   -4.1130   -6.2031 C   0  0  0  0  0  0  0  0  0  0  0  0
    2.5248   -4.2734   -7.3884 C   0  0  0  0  0  0  0  0  0  0  0  0
    2.1070   -5.5423   -7.7902 C   0  0  0  0  0  0  0  0  0  0  0  0
    2.4003   -6.6689   -7.0091 C   0  0  0  0  0  0  0  0  0  0  0  0
    2.0242   -8.0376   -7.4958 C   0  0  0  0  0  0  0  0  0  0  0  0
    3.1114   -6.5080   -5.8097 C   0  0  0  0  0  0  0  0  0  0  0  0
    3.5333   -5.2356   -5.4099 C   0  0  0  0  0  0  0  0  0  0  0  0
    6.2061   -3.5582   -6.1520 C   0  0  0  0  0  0  0  0  0  0  0  0
    6.2361   -4.7295   -7.3371 S   0  0  0  0  0  0  0  0  0  0  0  0
    7.8636   -5.1754   -7.1044 C   0  0  0  0  0  0  0  0  0  0  0  0
    8.4052   -4.3350   -6.1097 C   0  0  0  0  0  0  0  0  0  0  0  0
    9.6909   -4.4694   -5.4944 N   0  0  0  0  0  0  0  0  0  0  0  0
   10.6705   -3.4817   -5.8549 C   0  0  0  0  0  0  0  0  0  0  0  0
   11.1207   -2.5519   -4.8988 C   0  0  0  0  0  0  0  0  0  0  0  0
   12.0108   -1.5431   -5.2631 C   0  0  0  0  0  0  0  0  0  0  0  0
   12.4592   -1.4347   -6.5854 C   0  0  0  0  0  0  0  0  0  0  0  0
   13.4254   -0.3412   -6.9504 C   0  0  0  0  0  0  0  0  0  0  0  0
   11.9831   -2.3397   -7.5519 C   0  0  0  0  0  0  0  0  0  0  0  0
   11.0939   -3.3527   -7.1846 C   0  0  0  0  0  0  0  0  0  0  0  0
    9.8098   -5.2352   -4.2528 C   0  0  0  0  0  0  0  0  0  0  0  0
   11.0758   -5.5379   -3.7145 C   0  0  0  0  0  0  0  0  0  0  0  0
   11.1904   -6.3140   -2.5526 C   0  0  0  0  0  0  0  0  0  0  0  0
   10.0417   -6.8171   -1.9184 C   0  0  0  0  0  0  0  0  0  0  0  0
   10.1485   -7.7422   -0.7366 C   0  0  0  0  0  0  0  0  0  0  0  0
    8.7840   -6.5117   -2.4406 C   0  0  0  0  0  0  0  0  0  0  0  0
    8.6643   -5.7358   -3.5900 C   0  0  0  0  0  0  0  0  0  0  0  0
    7.4460   -3.4520   -5.6206 C   0  0  0  0  0  0  0  0  0  0  0  0
    7.4631   -2.2940   -4.4204 S   0  0  0  0  0  0  0  0  0  0  0  0
    8.5870   -5.8495   -8.1830 C   0  0  0  0  0  0  0  0  0  0  0  0
    8.8920   -7.1579   -8.1915 C   0  0  0  0  0  0  0  0  0  0  0  0
    9.4199   -7.9321   -7.0680 C   0  0  0  0  0  0  0  0  0  0  0  0
    9.6379   -7.4854   -5.8997 O   0  0  0  0  0  0  0  0  0  0  0  0
   10.0347   -9.1290   -7.5993 C   0  0  0  0  0  0  0  0  0  0  0  0
   10.6013  -10.1913   -6.8971 C   0  0  0  0  0  0  0  0  0  0  0  0
   10.9688  -11.3509   -7.5996 C   0  0  0  0  0  0  0  0  0  0  0  0
   10.7513  -11.4325   -8.9858 C   0  0  0  0  0  0  0  0  0  0  0  0
   11.1074  -12.9295   -9.8375 Cl  0  0  0  0  0  0  0  0  0  0  0  0
   10.2107  -10.3426   -9.6888 C   0  0  0  0  0  0  0  0  0  0  0  0
    9.8922   -9.1700   -8.9750 C   0  0  0  0  0  0  0  0  0  0  0  0
    9.1868   -7.9557   -9.4149 C   0  0  0  0  0  0  0  0  0  0  0  0
    8.7649   -7.6898  -10.6732 C   0  0  0  0  0  0  0  0  0  0  0  0
    7.5995   -6.8906  -10.9315 C   0  0  0  0  0  0  0  0  0  0  0  0
    6.6593   -6.2424  -11.1328 N   0  0  0  0  0  0  0  0  0  0  0  0
    9.6225   -7.9987  -11.7995 C   0  0  0  0  0  0  0  0  0  0  0  0
   10.3314   -8.1122  -12.6860 N   0  0  0  0  0  0  0  0  0  0  0  0
   -8.1983    4.2084   10.1128 H   0  0  0  0  0  0  0  0  0  0  0  0
  -12.4960    2.1807    5.9935 H   0  0  0  0  0  0  0  0  0  0  0  0
  -14.5040    3.5602    5.5137 H   0  0  0  0  0  0  0  0  0  0  0  0
  -13.2954    6.4278    8.4789 H   0  0  0  0  0  0  0  0  0  0  0  0
   -6.5289    5.7775    8.4903 H   0  0  0  0  0  0  0  0  0  0  0  0
   -4.6677    7.3745    8.3883 H   0  0  0  0  0  0  0  0  0  0  0  0
   -2.8062    8.2638    6.9740 H   0  0  0  0  0  0  0  0  0  0  0  0
   -3.0147    8.4105    5.1955 H   0  0  0  0  0  0  0  0  0  0  0  0
   -3.8962    9.5384    6.3057 H   0  0  0  0  0  0  0  0  0  0  0  0
   -5.0573    7.5638    4.1038 H   0  0  0  0  0  0  0  0  0  0  0  0
   -6.9187    5.9598    4.1999 H   0  0  0  0  0  0  0  0  0  0  0  0
   -9.5381    6.7362    6.1093 H   0  0  0  0  0  0  0  0  0  0  0  0
  -11.4584    6.8653    4.5813 H   0  0  0  0  0  0  0  0  0  0  0  0
  -13.2225    4.5140    3.2919 H   0  0  0  0  0  0  0  0  0  0  0  0
  -12.1035    4.4157    1.8718 H   0  0  0  0  0  0  0  0  0  0  0  0
  -12.5501    6.0263    2.5473 H   0  0  0  0  0  0  0  0  0  0  0  0
  -10.6600    2.8578    3.2240 H   0  0  0  0  0  0  0  0  0  0  0  0
   -8.7553    2.7182    4.7532 H   0  0  0  0  0  0  0  0  0  0  0  0
   -3.1600   -0.4523    9.8088 H   0  0  0  0  0  0  0  0  0  0  0  0
   -1.6776    0.8026   11.2907 H   0  0  0  0  0  0  0  0  0  0  0  0
    0.7267    2.7296   10.6574 H   0  0  0  0  0  0  0  0  0  0  0  0
   -0.6461    2.9748   11.8155 H   0  0  0  0  0  0  0  0  0  0  0  0
   -0.3441    4.1850   10.5275 H   0  0  0  0  0  0  0  0  0  0  0  0
   -0.9531    3.6744    8.1705 H   0  0  0  0  0  0  0  0  0  0  0  0
   -2.4279    2.4283    6.6730 H   0  0  0  0  0  0  0  0  0  0  0  0
   -6.2651   -1.0479    7.4307 H   0  0  0  0  0  0  0  0  0  0  0  0
   -6.6484   -3.4118    7.9214 H   0  0  0  0  0  0  0  0  0  0  0  0
   -4.2295   -6.0391    7.6042 H   0  0  0  0  0  0  0  0  0  0  0  0
   -5.8540   -5.6354    8.2834 H   0  0  0  0  0  0  0  0  0  0  0  0
   -4.3921   -5.5434    9.3401 H   0  0  0  0  0  0  0  0  0  0  0  0
   -2.3978   -4.1150    7.9112 H   0  0  0  0  0  0  0  0  0  0  0  0
   -2.0064   -1.7415    7.4134 H   0  0  0  0  0  0  0  0  0  0  0  0
   -6.0568   -0.8248    3.3769 H   0  0  0  0  0  0  0  0  0  0  0  0
   -8.3438   -1.0183    2.4807 H   0  0  0  0  0  0  0  0  0  0  0  0
   -9.1969    0.6431    0.8729 H   0  0  0  0  0  0  0  0  0  0  0  0
   -7.7475    3.8947    0.3859 H   0  0  0  0  0  0  0  0  0  0  0  0
   -9.0233    2.7785   -0.2062 H   0  0  0  0  0  0  0  0  0  0  0  0
   -7.6588    3.6051   -2.0949 H   0  0  0  0  0  0  0  0  0  0  0  0
   -6.1394    2.9993   -1.3112 H   0  0  0  0  0  0  0  0  0  0  0  0
   -7.3981    1.8374   -1.9047 H   0  0  0  0  0  0  0  0  0  0  0  0
   -5.4962    2.8129    1.1146 H   0  0  0  0  0  0  0  0  0  0  0  0
    7.2087    0.0005   -5.9187 H   0  0  0  0  0  0  0  0  0  0  0  0
    7.6618    1.0718   -8.0721 H   0  0  0  0  0  0  0  0  0  0  0  0
    6.3033    2.9753   -8.8460 H   0  0  0  0  0  0  0  0  0  0  0  0
    4.8717    4.8482   -8.1036 H   0  0  0  0  0  0  0  0  0  0  0  0
    3.8278    4.6872   -6.6561 H   0  0  0  0  0  0  0  0  0  0  0  0
    2.5511    4.7341   -8.8399 H   0  0  0  0  0  0  0  0  0  0  0  0
    2.2586    3.2523   -7.8642 H   0  0  0  0  0  0  0  0  0  0  0  0
    3.3453    3.1760   -9.3119 H   0  0  0  0  0  0  0  0  0  0  0  0
    3.7111    2.5075   -5.4542 H   0  0  0  0  0  0  0  0  0  0  0  0
    0.8229    0.0390    3.6498 H   0  0  0  0  0  0  0  0  0  0  0  0
    2.3337    0.6838    2.9106 H   0  0  0  0  0  0  0  0  0  0  0  0
    0.2636    2.3157    4.4985 H   0  0  0  0  0  0  0  0  0  0  0  0
    1.6873    3.0170    3.6419 H   0  0  0  0  0  0  0  0  0  0  0  0
    1.9113    1.8645    5.0116 H   0  0  0  0  0  0  0  0  0  0  0  0
    1.9192   -0.6225    1.0514 H   0  0  0  0  0  0  0  0  0  0  0  0
    2.6116   -1.0388   -0.5069 H   0  0  0  0  0  0  0  0  0  0  0  0
    3.8451   -2.2867    1.1293 H   0  0  0  0  0  0  0  0  0  0  0  0
    4.9586   -0.9250    0.7002 H   0  0  0  0  0  0  0  0  0  0  0  0
    4.0092   -0.8695    2.2324 H   0  0  0  0  0  0  0  0  0  0  0  0
    3.8315   -0.8649   -7.6878 H   0  0  0  0  0  0  0  0  0  0  0  0
    2.1550    0.9073   -7.9230 H   0  0  0  0  0  0  0  0  0  0  0  0
    0.4688    2.3887   -6.5764 H   0  0  0  0  0  0  0  0  0  0  0  0
   -0.5956    1.5648   -5.3988 H   0  0  0  0  0  0  0  0  0  0  0  0
   -0.6795    1.1339   -7.1546 H   0  0  0  0  0  0  0  0  0  0  0  0
    0.1489   -0.4964   -4.3786 H   0  0  0  0  0  0  0  0  0  0  0  0
    1.8039   -2.3054   -4.1856 H   0  0  0  0  0  0  0  0  0  0  0  0
    2.3053   -3.4208   -8.0210 H   0  0  0  0  0  0  0  0  0  0  0  0
    1.5654   -5.6547   -8.7248 H   0  0  0  0  0  0  0  0  0  0  0  0
    2.1705   -8.8029   -6.7024 H   0  0  0  0  0  0  0  0  0  0  0  0
    0.9560   -8.0545   -7.7996 H   0  0  0  0  0  0  0  0  0  0  0  0
    2.6566   -8.3109   -8.3695 H   0  0  0  0  0  0  0  0  0  0  0  0
    3.3600   -7.3683   -5.1950 H   0  0  0  0  0  0  0  0  0  0  0  0
    4.0969   -5.1308   -4.4961 H   0  0  0  0  0  0  0  0  0  0  0  0
   10.7624   -2.6000   -3.8838 H   0  0  0  0  0  0  0  0  0  0  0  0
   12.3377   -0.8300   -4.5168 H   0  0  0  0  0  0  0  0  0  0  0  0
   12.9393    0.6442   -6.8026 H   0  0  0  0  0  0  0  0  0  0  0  0
   14.3163   -0.3999   -6.2905 H   0  0  0  0  0  0  0  0  0  0  0  0
   13.7635   -0.4263   -8.0054 H   0  0  0  0  0  0  0  0  0  0  0  0
   12.2956   -2.2527   -8.5870 H   0  0  0  0  0  0  0  0  0  0  0  0
   10.7289   -4.0367   -7.9380 H   0  0  0  0  0  0  0  0  0  0  0  0
   11.9749   -5.1942   -4.1991 H   0  0  0  0  0  0  0  0  0  0  0  0
   12.1724   -6.5540   -2.1683 H   0  0  0  0  0  0  0  0  0  0  0  0
    9.4977   -7.3737    0.0847 H   0  0  0  0  0  0  0  0  0  0  0  0
   11.1901   -7.8037   -0.3616 H   0  0  0  0  0  0  0  0  0  0  0  0
    9.8077   -8.7551   -1.0310 H   0  0  0  0  0  0  0  0  0  0  0  0
    7.8887   -6.9102   -1.9694 H   0  0  0  0  0  0  0  0  0  0  0  0
    7.6595   -5.5597   -3.9512 H   0  0  0  0  0  0  0  0  0  0  0  0
    8.5190   -5.3276   -9.1281 H   0  0  0  0  0  0  0  0  0  0  0  0
   10.7217  -10.1378   -5.8248 H   0  0  0  0  0  0  0  0  0  0  0  0
   11.3857  -12.1890   -7.0528 H   0  0  0  0  0  0  0  0  0  0  0  0
   10.0055  -10.4374  -10.7493 H   0  0  0  0  0  0  0  0  0  0  0  0
  1  2  2  3
  2  3  1  0
  3  4  2  0
  3  5  1  0
  5  6  2  0
  6  7  1  0
  7  8  2  0
  8  9  1  0
  8 10  1  0
 10 11  2  0
 11 12  1  0
 12 13  2  3
 13 14  1  0
 14 15  3  0
 13 16  1  0
 16 17  3  0
  1 18  1  0
 18 19  2  0
 19 20  1  0
 20 21  1  0
 21 22  2  0
 22 23  1  0
 23 24  2  0
 24 25  1  0
 24 26  1  0
 26 27  2  0
 20 28  1  0
 28 29  2  0
 29 30  1  0
 30 31  2  0
 31 32  1  0
 31 33  1  0
 33 34  2  0
 19 35  1  0
 35 36  1  0
 36 37  1  0
 37 38  2  0
 38 39  1  0
 39 40  1  0
 40 41  2  0
 41 42  1  0
 42 43  2  0
 43 44  1  0
 43 45  1  0
 45 46  2  0
 39 47  1  0
 47 48  2  0
 48 49  1  0
 49 50  2  0
 50 51  1  0
 50 52  1  0
 52 53  2  0
 38 54  1  0
 54 55  1  0
 37 56  1  0
 56 57  2  0
 57 58  1  0
 58 59  2  0
 59 60  1  0
 60 61  2  0
 61 62  1  0
 62 63  1  0
 63 64  1  0
 62 65  2  0
 57 66  1  0
 66 67  1  0
 67 68  1  0
 68 69  1  0
 69 70  1  0
 70 71  1  0
 71 72  2  0
 72 73  1  0
 73 74  1  0
 71 75  1  0
 75 76  1  0
 76 77  1  0
 77 78  1  0
 78 79  1  0
 79 80  1  0
 80 81  2  0
 81 82  1  0
 82 83  2  0
 83 84  1  0
 84 85  1  0
 85 86  1  0
 84 87  2  0
 79 88  2  0
 88 89  1  0
 89 90  1  0
 90 91  1  0
 91 92  1  0
 92 93  1  0
 93 94  1  0
 94 95  1  0
 95 96  1  0
 96 97  1  0
 97 98  1  0
 95 99  1  0
 99100  1  0
 92101  1  0
101102  1  0
 88103  1  0
103104  2  0
104105  1  0
105106  1  0
106107  2  0
107108  1  0
108109  2  0
109110  1  0
109111  1  0
111112  2  0
105113  1  0
113114  2  0
114115  1  0
115116  2  0
116117  1  0
116118  1  0
118119  2  0
104120  1  0
120121  1  0
121122  1  0
122123  2  0
123124  1  0
124125  1  0
125126  2  0
126127  1  0
127128  2  0
128129  1  0
128130  1  0
130131  2  0
124132  1  0
132133  2  0
133134  1  0
134135  2  0
135136  1  0
135137  1  0
137138  2  0
123139  1  0
139140  1  0
122141  1  0
141142  2  3
142143  1  0
143144  2  0
143145  1  0
145146  2  0
146147  1  0
147148  2  0
148149  1  0
148150  1  0
150151  2  0
151152  1  0
152153  2  3
153154  1  0
154155  3  0
153156  1  0
156157  3  0
 12  2  1  0
 55 18  1  0
 98 56  1  0
140103  1  0
152142  1  0
 11  5  1  0
 27 21  1  0
 34 28  1  0
 54 35  2  0
 65 58  1  0
 97 66  2  0
112106  1  0
119113  1  0
139120  2  0
151145  1  0
 46 40  1  0
 53 47  1  0
 96 68  2  0
131125  1  0
138132  1  0
 94 69  2  0
 74 70  2  0
 93 75  2  0
 91 76  2  0
 90 78  2  0
 87 80  1  0
  1158  1  0
  6159  1  0
  7160  1  0
 10161  1  0
 22162  1  0
 23163  1  0
 25164  1  0
 25165  1  0
 25166  1  0
 26167  1  0
 27168  1  0
 29169  1  0
 30170  1  0
 32171  1  0
 32172  1  0
 32173  1  0
 33174  1  0
 34175  1  0
 41176  1  0
 42177  1  0
 44178  1  0
 44179  1  0
 44180  1  0
 45181  1  0
 46182  1  0
 48183  1  0
 49184  1  0
 51185  1  0
 51186  1  0
 51187  1  0
 52188  1  0
 53189  1  0
 59190  1  0
 60191  1  0
 61192  1  0
 63193  1  0
 63194  1  0
 64195  1  0
 64196  1  0
 64197  1  0
 65198  1  0
 81199  1  0
 82200  1  0
 83201  1  0
 85202  1  0
 85203  1  0
 86204  1  0
 86205  1  0
 86206  1  0
 87207  1  0
 99208  1  0
 99209  1  0
100210  1  0
100211  1  0
100212  1  0
101213  1  0
101214  1  0
102215  1  0
102216  1  0
102217  1  0
107218  1  0
108219  1  0
110220  1  0
110221  1  0
110222  1  0
111223  1  0
112224  1  0
114225  1  0
115226  1  0
117227  1  0
117228  1  0
117229  1  0
118230  1  0
119231  1  0
126232  1  0
127233  1  0
129234  1  0
129235  1  0
129236  1  0
130237  1  0
131238  1  0
133239  1  0
134240  1  0
136241  1  0
136242  1  0
136243  1  0
137244  1  0
138245  1  0
141246  1  0
146247  1  0
147248  1  0
150249  1  0
M  END

