
     RDKit          3D

190208  0  0  0  0  0  0  0  0999 V2000
    4.3237    2.7599    5.0123 C   0  0  0  0  0  0  0  0  0  0  0  0
    4.3329    2.6328    6.3218 C   0  0  0  0  0  0  0  0  0  0  0  0
    3.5826    3.3569    7.3015 C   0  0  0  0  0  0  0  0  0  0  0  0
    2.9562    4.3865    7.1061 O   0  0  0  0  0  0  0  0  0  0  0  0
    3.7243    2.6475    8.5865 C   0  0  0  0  0  0  0  0  0  0  0  0
    3.3554    2.7873    9.8480 C   0  0  0  0  0  0  0  0  0  0  0  0
    2.5514    4.0284    9.9924 F   0  0  0  0  0  0  0  0  0  0  0  0
    3.5215    2.1705   10.9758 C   0  0  0  0  0  0  0  0  0  0  0  0
    4.4193    0.9021   10.7705 C   0  0  0  0  0  0  0  0  0  0  0  0
    4.7573    0.8029    9.5043 C   0  0  0  0  0  0  0  0  0  0  0  0
    4.5225    1.5252    8.3453 C   0  0  0  0  0  0  0  0  0  0  0  0
    4.9831    1.3845    7.0037 C   0  0  0  0  0  0  0  0  0  0  0  0
    5.7627    0.4606    6.3860 C   0  0  0  0  0  0  0  0  0  0  0  0
    6.1264    0.4633    5.1341 C   0  0  0  0  0  0  0  0  0  0  0  0
    6.5050    0.4709    3.8985 N   0  0  0  0  0  0  0  0  0  0  0  0
    5.7616   -0.7918    7.2006 C   0  0  0  0  0  0  0  0  0  0  0  0
    5.7693   -1.8459    7.9104 N   0  0  0  0  0  0  0  0  0  0  0  0
    3.3679    3.7133    4.3945 C   0  0  0  0  0  0  0  0  0  0  0  0
    2.1242    3.1459    4.2119 C   0  0  0  0  0  0  0  0  0  0  0  0
    1.8522    1.9479    4.7517 F   0  0  0  0  0  0  0  0  0  0  0  0
    1.1997    3.8309    3.4592 C   0  0  0  0  0  0  0  0  0  0  0  0
   -0.0284    3.3647    3.3039 F   0  0  0  0  0  0  0  0  0  0  0  0
    1.5316    5.1253    2.8633 C   0  0  0  0  0  0  0  0  0  0  0  0
    2.7148    5.5692    3.1027 C   0  0  0  0  0  0  0  0  0  0  0  0
    3.0588    6.8204    2.6027 N   0  0  0  0  0  0  0  0  0  0  0  0
    4.3010    7.3177    2.9079 C   0  0  0  0  0  0  0  0  0  0  0  0
    4.5828    8.6806    2.2716 C   0  0  0  0  0  0  0  0  0  0  0  0
    5.3134    8.4306    0.9656 C   0  0  0  0  0  0  0  0  0  0  0  0
    5.1731    6.7021    3.6409 C   0  0  0  0  0  0  0  0  0  0  0  0
    4.9052    5.4708    4.1426 N   0  0  0  0  0  0  0  0  0  0  0  0
    3.7303    4.9308    3.8901 C   0  0  0  0  0  0  0  0  0  0  0  0
    6.4878    7.3206    4.0993 C   0  0  0  0  0  0  0  0  0  0  0  0
    6.2472    8.2019    5.3356 C   0  0  0  0  0  0  0  0  0  0  0  0
    0.5255    5.4210    1.8725 C   0  0  0  0  0  0  0  0  0  0  0  0
   -0.2170    6.4144    1.2464 C   0  0  0  0  0  0  0  0  0  0  0  0
   -0.9628    5.9080    0.3185 C   0  0  0  0  0  0  0  0  0  0  0  0
   -2.3018    4.3994    1.2095 S   0  0  0  0  0  0  0  0  0  0  0  0
   -2.8605    3.8170   -0.2978 C   0  0  0  0  0  0  0  0  0  0  0  0
   -3.5917    2.7859   -0.9898 C   0  0  0  0  0  0  0  0  0  0  0  0
   -3.9068    1.5328   -0.5325 C   0  0  0  0  0  0  0  0  0  0  0  0
   -4.1491    0.4376   -1.2247 C   0  0  0  0  0  0  0  0  0  0  0  0
   -4.0147   -0.9999   -0.8454 C   0  0  0  0  0  0  0  0  0  0  0  0
   -4.9908   -1.5813    0.0380 C   0  0  0  0  0  0  0  0  0  0  0  0
   -4.5465   -2.4044    1.0876 C   0  0  0  0  0  0  0  0  0  0  0  0
   -5.5269   -3.0202    1.8729 C   0  0  0  0  0  0  0  0  0  0  0  0
   -6.7686   -2.8554    1.6817 C   0  0  0  0  0  0  0  0  0  0  0  0
   -7.7526   -3.6069    2.5636 C   0  0  0  0  0  0  0  0  0  0  0  0
   -7.8748   -2.8402    3.8627 C   0  0  0  0  0  0  0  0  0  0  0  0
   -7.3059   -2.0642    0.6441 C   0  0  0  0  0  0  0  0  0  0  0  0
   -6.3575   -1.4381   -0.1572 C   0  0  0  0  0  0  0  0  0  0  0  0
   -2.6041   -1.0867   -0.1808 C   0  0  0  0  0  0  0  0  0  0  0  0
   -1.5410   -1.4924   -1.0138 C   0  0  0  0  0  0  0  0  0  0  0  0
   -0.2763   -1.3801   -0.4987 C   0  0  0  0  0  0  0  0  0  0  0  0
   -0.0342   -0.8739    0.7629 C   0  0  0  0  0  0  0  0  0  0  0  0
    1.3870   -0.6294    1.2448 C   0  0  0  0  0  0  0  0  0  0  0  0
    1.8313    0.7092    0.6893 C   0  0  0  0  0  0  0  0  0  0  0  0
   -1.0970   -0.4798    1.5597 C   0  0  0  0  0  0  0  0  0  0  0  0
   -2.3912   -0.6069    1.0367 C   0  0  0  0  0  0  0  0  0  0  0  0
   -3.8691   -1.7368   -2.0867 C   0  0  0  0  0  0  0  0  0  0  0  0
   -4.0384   -0.7406   -3.1809 C   0  0  0  0  0  0  0  0  0  0  0  0
   -4.1337    0.5645   -2.6052 C   0  0  0  0  0  0  0  0  0  0  0  0
   -3.8030    1.8614   -3.1531 C   0  0  0  0  0  0  0  0  0  0  0  0
   -3.5168    2.9686   -2.3296 C   0  0  0  0  0  0  0  0  0  0  0  0
   -2.8163    4.2819   -2.5402 C   0  0  0  0  0  0  0  0  0  0  0  0
   -1.5588    4.0907   -3.3422 C   0  0  0  0  0  0  0  0  0  0  0  0
   -0.6912    3.3925   -3.1774 C   0  0  0  0  0  0  0  0  0  0  0  0
    0.6168    3.0264   -3.5727 C   0  0  0  0  0  0  0  0  0  0  0  0
    0.8663    4.1240   -4.7282 C   0  0  0  0  0  0  0  0  0  0  0  0
    2.2516    3.9491   -5.2390 C   0  0  0  0  0  0  0  0  0  0  0  0
    2.3685    2.9372   -6.3684 C   0  0  0  0  0  0  0  0  0  0  0  0
   -0.0909    4.8254   -4.8553 C   0  0  0  0  0  0  0  0  0  0  0  0
   -1.4358    5.2272   -4.4921 C   0  0  0  0  0  0  0  0  0  0  0  0
   -3.7323    5.3456   -2.8410 C   0  0  0  0  0  0  0  0  0  0  0  0
   -4.1930    5.6757   -4.1786 C   0  0  0  0  0  0  0  0  0  0  0  0
   -5.0844    6.7600   -4.3870 C   0  0  0  0  0  0  0  0  0  0  0  0
   -5.5026    7.4907   -3.2076 C   0  0  0  0  0  0  0  0  0  0  0  0
   -6.4195    8.7174   -3.3646 C   0  0  0  0  0  0  0  0  0  0  0  0
   -5.5981    9.9074   -2.9619 C   0  0  0  0  0  0  0  0  0  0  0  0
   -5.0674    7.1416   -2.0795 C   0  0  0  0  0  0  0  0  0  0  0  0
   -4.2073    6.1147   -1.8145 C   0  0  0  0  0  0  0  0  0  0  0  0
   -2.2221    4.6865   -1.2064 C   0  0  0  0  0  0  0  0  0  0  0  0
   -1.5078    5.3884   -0.3898 C   0  0  0  0  0  0  0  0  0  0  0  0
   -0.0611    3.8643    0.8037 Se  0  0  0  0  0  2  0  0  0  0  0  0
   -3.9688   -1.7675   -4.6345 S   0  0  0  0  0  0  0  0  0  0  0  0
   -3.6805   -3.3929   -3.6119 C   0  0  0  0  0  0  0  0  0  0  0  0
   -3.3393   -4.6225   -4.0884 C   0  0  0  0  0  0  0  0  0  0  0  0
   -2.7757   -5.5515   -3.2844 C   0  0  0  0  0  0  0  0  0  0  0  0
   -2.7993   -4.5342   -1.6104 Se  0  0  0  0  0  2  0  0  0  0  0  0
   -3.7414   -2.7834   -2.8717 C   0  0  0  0  0  0  0  0  0  0  0  0
   -1.9832   -6.7379   -3.3077 C   0  0  0  0  0  0  0  0  0  0  0  0
   -1.3315   -7.0746   -4.4849 C   0  0  0  0  0  0  0  0  0  0  0  0
   -1.8250   -6.5584   -5.6568 F   0  0  0  0  0  0  0  0  0  0  0  0
   -0.2566   -7.9032   -4.4495 C   0  0  0  0  0  0  0  0  0  0  0  0
    0.3447   -8.3082   -5.6335 F   0  0  0  0  0  0  0  0  0  0  0  0
    0.2785   -8.4227   -3.2444 C   0  0  0  0  0  0  0  0  0  0  0  0
   -0.3570   -8.1496   -2.1029 C   0  0  0  0  0  0  0  0  0  0  0  0
   -0.0444   -8.6762   -0.8745 N   0  0  0  0  0  0  0  0  0  0  0  0
   -0.6424   -8.4744    0.2277 C   0  0  0  0  0  0  0  0  0  0  0  0
   -0.2544   -9.1102    1.5145 C   0  0  0  0  0  0  0  0  0  0  0  0
    0.4771   -8.2546    2.4952 C   0  0  0  0  0  0  0  0  0  0  0  0
   -1.7604   -7.6340    0.2108 C   0  0  0  0  0  0  0  0  0  0  0  0
   -2.1104   -7.1204   -0.9231 N   0  0  0  0  0  0  0  0  0  0  0  0
   -1.5046   -7.2795   -2.1404 C   0  0  0  0  0  0  0  0  0  0  0  0
   -2.3999   -7.2579    1.5171 C   0  0  0  0  0  0  0  0  0  0  0  0
   -1.7324   -6.0578    2.1293 C   0  0  0  0  0  0  0  0  0  0  0  0
    1.6978   -8.8240   -3.4733 C   0  0  0  0  0  0  0  0  0  0  0  0
    2.7459   -8.2424   -2.8379 C   0  0  0  0  0  0  0  0  0  0  0  0
    2.3907   -7.1343   -1.8208 C   0  0  0  0  0  0  0  0  0  0  0  0
    1.4548   -6.7321   -1.3111 O   0  0  0  0  0  0  0  0  0  0  0  0
    3.7471   -6.5627   -1.5737 C   0  0  0  0  0  0  0  0  0  0  0  0
    4.2688   -5.5339   -0.8575 C   0  0  0  0  0  0  0  0  0  0  0  0
    3.1818   -4.8993   -0.0927 F   0  0  0  0  0  0  0  0  0  0  0  0
    5.3584   -4.9469   -0.6027 C   0  0  0  0  0  0  0  0  0  0  0  0
    6.5037   -5.6447   -1.4187 C   0  0  0  0  0  0  0  0  0  0  0  0
    5.9608   -6.6745   -2.1311 C   0  0  0  0  0  0  0  0  0  0  0  0
    4.7273   -7.2182   -2.3070 C   0  0  0  0  0  0  0  0  0  0  0  0
    4.1768   -8.3123   -3.1385 C   0  0  0  0  0  0  0  0  0  0  0  0
    4.7527   -8.9614   -4.0866 C   0  0  0  0  0  0  0  0  0  0  0  0
    6.2428   -8.8194   -4.1006 C   0  0  0  0  0  0  0  0  0  0  0  0
    7.5228   -8.6921   -4.1304 N   0  0  0  0  0  0  0  0  0  0  0  0
    4.2176   -9.6227   -5.2183 C   0  0  0  0  0  0  0  0  0  0  0  0
    3.7630  -10.1602   -6.1453 N   0  0  0  0  0  0  0  0  0  0  0  0
    4.9730    2.2237    4.3876 H   0  0  0  0  0  0  0  0  0  0  0  0
    3.2430    2.2345   11.9495 H   0  0  0  0  0  0  0  0  0  0  0  0
    4.5883    0.3417   11.6142 H   0  0  0  0  0  0  0  0  0  0  0  0
    5.4810   -0.0842    9.3070 H   0  0  0  0  0  0  0  0  0  0  0  0
    5.1967    9.2890    2.9200 H   0  0  0  0  0  0  0  0  0  0  0  0
    3.6063    9.1394    2.0659 H   0  0  0  0  0  0  0  0  0  0  0  0
    6.3589    8.2071    1.0532 H   0  0  0  0  0  0  0  0  0  0  0  0
    5.1216    9.2842    0.2632 H   0  0  0  0  0  0  0  0  0  0  0  0
    4.8391    7.5372    0.4623 H   0  0  0  0  0  0  0  0  0  0  0  0
    6.9066    8.0200    3.3688 H   0  0  0  0  0  0  0  0  0  0  0  0
    7.1647    6.5288    4.4325 H   0  0  0  0  0  0  0  0  0  0  0  0
    7.0805    8.0659    6.0465 H   0  0  0  0  0  0  0  0  0  0  0  0
    6.1288    9.2406    5.0532 H   0  0  0  0  0  0  0  0  0  0  0  0
    5.3078    7.8684    5.7916 H   0  0  0  0  0  0  0  0  0  0  0  0
   -0.1198    7.3939    1.6190 H   0  0  0  0  0  0  0  0  0  0  0  0
   -3.9808    1.4786    0.5817 H   0  0  0  0  0  0  0  0  0  0  0  0
   -3.5534   -2.5881    1.3037 H   0  0  0  0  0  0  0  0  0  0  0  0
   -5.1052   -3.6831    2.6754 H   0  0  0  0  0  0  0  0  0  0  0  0
   -7.3356   -4.5853    2.7334 H   0  0  0  0  0  0  0  0  0  0  0  0
   -8.7486   -3.5912    2.0221 H   0  0  0  0  0  0  0  0  0  0  0  0
   -7.4151   -3.4460    4.7070 H   0  0  0  0  0  0  0  0  0  0  0  0
   -7.2788   -1.9091    3.8876 H   0  0  0  0  0  0  0  0  0  0  0  0
   -8.9323   -2.7099    4.1255 H   0  0  0  0  0  0  0  0  0  0  0  0
   -8.3490   -1.9543    0.4906 H   0  0  0  0  0  0  0  0  0  0  0  0
   -6.6555   -0.8175   -0.9920 H   0  0  0  0  0  0  0  0  0  0  0  0
   -1.6495   -1.8118   -2.0184 H   0  0  0  0  0  0  0  0  0  0  0  0
    0.5828   -1.6676   -1.0707 H   0  0  0  0  0  0  0  0  0  0  0  0
    1.3609   -0.6476    2.3540 H   0  0  0  0  0  0  0  0  0  0  0  0
    1.9636   -1.4307    0.7746 H   0  0  0  0  0  0  0  0  0  0  0  0
    2.6596    0.5414   -0.0728 H   0  0  0  0  0  0  0  0  0  0  0  0
    1.0334    1.1720    0.0668 H   0  0  0  0  0  0  0  0  0  0  0  0
    2.2481    1.3982    1.4717 H   0  0  0  0  0  0  0  0  0  0  0  0
   -0.9314   -0.0799    2.5166 H   0  0  0  0  0  0  0  0  0  0  0  0
   -3.1550   -0.3168    1.7259 H   0  0  0  0  0  0  0  0  0  0  0  0
   -3.7633    1.9340   -4.1909 H   0  0  0  0  0  0  0  0  0  0  0  0
   -0.7877    2.5292   -2.2497 H   0  0  0  0  0  0  0  0  0  0  0  0
    1.3539    2.4358   -3.4428 H   0  0  0  0  0  0  0  0  0  0  0  0
    2.9407    3.6224   -4.4145 H   0  0  0  0  0  0  0  0  0  0  0  0
    2.6936    4.9229   -5.5844 H   0  0  0  0  0  0  0  0  0  0  0  0
    2.1433    1.9264   -5.9402 H   0  0  0  0  0  0  0  0  0  0  0  0
    3.4453    2.9327   -6.7330 H   0  0  0  0  0  0  0  0  0  0  0  0
    1.7573    3.1390   -7.2301 H   0  0  0  0  0  0  0  0  0  0  0  0
    0.1256    5.6768   -5.7697 H   0  0  0  0  0  0  0  0  0  0  0  0
   -2.0171    5.8571   -4.7296 H   0  0  0  0  0  0  0  0  0  0  0  0
   -3.8844    5.0764   -4.9787 H   0  0  0  0  0  0  0  0  0  0  0  0
   -5.4078    7.0743   -5.3441 H   0  0  0  0  0  0  0  0  0  0  0  0
   -7.2708    8.6616   -2.6882 H   0  0  0  0  0  0  0  0  0  0  0  0
   -6.7630    8.8581   -4.3787 H   0  0  0  0  0  0  0  0  0  0  0  0
   -4.5637    9.6087   -3.0458 H   0  0  0  0  0  0  0  0  0  0  0  0
   -5.7331   10.8216   -3.6258 H   0  0  0  0  0  0  0  0  0  0  0  0
   -5.7161   10.2530   -1.8990 H   0  0  0  0  0  0  0  0  0  0  0  0
   -5.3709    7.7185   -1.1644 H   0  0  0  0  0  0  0  0  0  0  0  0
   -3.8743    5.8979   -0.8057 H   0  0  0  0  0  0  0  0  0  0  0  0
   -3.4521   -4.9303   -5.1832 H   0  0  0  0  0  0  0  0  0  0  0  0
    0.4255  -10.0246    1.2895 H   0  0  0  0  0  0  0  0  0  0  0  0
   -1.1198   -9.5774    2.0077 H   0  0  0  0  0  0  0  0  0  0  0  0
    1.3700   -8.8326    2.9190 H   0  0  0  0  0  0  0  0  0  0  0  0
    0.9210   -7.3222    2.0988 H   0  0  0  0  0  0  0  0  0  0  0  0
   -0.0925   -8.0209    3.4265 H   0  0  0  0  0  0  0  0  0  0  0  0
   -3.4831   -6.9913    1.3319 H   0  0  0  0  0  0  0  0  0  0  0  0
   -2.4158   -8.0960    2.2219 H   0  0  0  0  0  0  0  0  0  0  0  0
   -2.3862   -5.1301    2.0618 H   0  0  0  0  0  0  0  0  0  0  0  0
   -0.7657   -5.7789    1.6278 H   0  0  0  0  0  0  0  0  0  0  0  0
   -1.4843   -6.1564    3.2028 H   0  0  0  0  0  0  0  0  0  0  0  0
    1.9172   -9.6459   -4.1172 H   0  0  0  0  0  0  0  0  0  0  0  0
    5.7776   -4.1788   -0.0161 H   0  0  0  0  0  0  0  0  0  0  0  0
    7.4098   -5.2222   -1.3111 H   0  0  0  0  0  0  0  0  0  0  0  0
    6.8157   -7.1777   -2.7252 H   0  0  0  0  0  0  0  0  0  0  0  0
  1  2  2  3
  2  3  1  0
  3  4  2  0
  3  5  1  0
  5  6  2  0
  6  7  1  0
  6  8  1  0
  8  9  2  0
  9 10  1  0
 10 11  2  0
 11 12  1  0
 12 13  2  3
 13 14  1  0
 14 15  3  0
 13 16  1  0
 16 17  3  0
  1 18  1  0
 18 19  2  0
 19 20  1  0
 19 21  1  0
 21 22  1  0
 21 23  2  0
 23 24  1  0
 24 25  2  0
 25 26  1  0
 26 27  1  0
 27 28  1  0
 26 29  2  0
 29 30  1  0
 30 31  2  0
 29 32  1  0
 32 33  1  0
 23 34  1  0
 34 35  2  0
 35 36  1  0
 36 37  1  0
 37 38  1  0
 38 39  1  0
 39 40  2  0
 40 41  1  0
 41 42  1  0
 42 43  1  0
 43 44  2  0
 44 45  1  0
 45 46  2  0
 46 47  1  0
 47 48  1  0
 46 49  1  0
 49 50  2  0
 42 51  1  0
 51 52  2  0
 52 53  1  0
 53 54  2  0
 54 55  1  0
 55 56  1  0
 54 57  1  0
 57 58  2  0
 42 59  1  0
 59 60  2  0
 60 61  1  0
 61 62  1  0
 62 63  2  0
 63 64  1  0
 64 65  1  0
 65 66  2  0
 66 67  1  0
 67 68  2  0
 68 69  1  0
 69 70  1  0
 68 71  1  0
 71 72  2  0
 64 73  1  0
 73 74  2  0
 74 75  1  0
 75 76  2  0
 76 77  1  0
 77 78  1  0
 76 79  1  0
 79 80  2  0
 64 81  1  0
 81 82  1  0
 82 83  1  0
 60 84  1  0
 84 85  1  0
 85 86  1  0
 86 87  2  0
 87 88  1  0
 88 89  1  0
 87 90  1  0
 90 91  2  0
 91 92  1  0
 91 93  1  0
 93 94  1  0
 93 95  2  0
 95 96  1  0
 96 97  2  0
 97 98  1  0
 98 99  1  0
 99100  1  0
 98101  2  0
101102  1  0
102103  2  0
101104  1  0
104105  1  0
 95106  1  0
106107  2  3
107108  1  0
108109  2  0
108110  1  0
110111  2  0
111112  1  0
111113  1  0
113114  2  0
114115  1  0
115116  2  0
116117  1  0
117118  2  3
118119  1  0
119120  3  0
118121  1  0
121122  3  0
 12  2  1  0
 31 18  1  0
 83 34  1  0
 89 85  2  0
103 90  1  0
117107  1  0
 11  5  1  0
 31 24  1  0
 82 36  2  0
103 96  1  0
116110  1  0
 81 38  2  0
 63 39  1  0
 72 65  1  0
 80 73  1  0
 61 41  2  0
 50 43  1  0
 58 51  1  0
 89 59  1  0
  1123  1  0
  8124  1  0
  9125  1  0
 10126  1  0
 27127  1  0
 27128  1  0
 28129  1  0
 28130  1  0
 28131  1  0
 32132  1  0
 32133  1  0
 33134  1  0
 33135  1  0
 33136  1  0
 35137  1  0
 40138  1  0
 44139  1  0
 45140  1  0
 47141  1  0
 47142  1  0
 48143  1  0
 48144  1  0
 48145  1  0
 49146  1  0
 50147  1  0
 52148  1  0
 53149  1  0
 55150  1  0
 55151  1  0
 56152  1  0
 56153  1  0
 56154  1  0
 57155  1  0
 58156  1  0
 62157  1  0
 66158  1  0
 67159  1  0
 69160  1  0
 69161  1  0
 70162  1  0
 70163  1  0
 70164  1  0
 71165  1  0
 72166  1  0
 74167  1  0
 75168  1  0
 77169  1  0
 77170  1  0
 78171  1  0
 78172  1  0
 78173  1  0
 79174  1  0
 80175  1  0
 86176  1  0
 99177  1  0
 99178  1  0
100179  1  0
100180  1  0
100181  1  0
104182  1  0
104183  1  0
105184  1  0
105185  1  0
105186  1  0
106187  1  0
113188  1  0
114189  1  0
115190  1  0
M  END

