
     RDKit          3D

171190  0  0  0  0  0  0  0  0999 V2000
   -2.8081   12.9106    1.6656 C   0  0  0  0  0  0  0  0  0  0  0  0
   -3.5113   12.8140    2.8102 C   0  0  0  0  0  0  0  0  0  0  0  0
   -3.8082   11.5642    3.5236 C   0  0  0  0  0  0  0  0  0  0  0  0
   -3.2201   10.4617    3.3783 O   0  0  0  0  0  0  0  0  0  0  0  0
   -4.8397   11.8354    4.5036 C   0  0  0  0  0  0  0  0  0  0  0  0
   -5.4882   10.9280    5.3460 C   0  0  0  0  0  0  0  0  0  0  0  0
   -5.1573    9.6135    5.3503 F   0  0  0  0  0  0  0  0  0  0  0  0
   -6.5024   11.4055    6.1870 C   0  0  0  0  0  0  0  0  0  0  0  0
   -6.8600   12.7646    6.1577 C   0  0  0  0  0  0  0  0  0  0  0  0
   -6.2017   13.6594    5.2984 C   0  0  0  0  0  0  0  0  0  0  0  0
   -5.1590   13.1842    4.4823 C   0  0  0  0  0  0  0  0  0  0  0  0
   -4.2780   13.8976    3.5106 C   0  0  0  0  0  0  0  0  0  0  0  0
   -4.0699   15.2392    3.4284 C   0  0  0  0  0  0  0  0  0  0  0  0
   -4.8133   16.1900    4.2137 C   0  0  0  0  0  0  0  0  0  0  0  0
   -5.4030   16.9673    4.8409 N   0  0  0  0  0  0  0  0  0  0  0  0
   -3.0051   15.8162    2.6498 C   0  0  0  0  0  0  0  0  0  0  0  0
   -2.1474   16.2924    2.0371 N   0  0  0  0  0  0  0  0  0  0  0  0
   -2.2606   11.7467    0.9572 C   0  0  0  0  0  0  0  0  0  0  0  0
   -3.2030   10.5176    0.2518 S   0  0  0  0  0  0  0  0  0  0  0  0
   -1.8703    9.7143   -0.3564 C   0  0  0  0  0  0  0  0  0  0  0  0
   -1.6812    8.4624   -1.0651 C   0  0  0  0  0  0  0  0  0  0  0  0
   -0.3790    8.1174   -1.2836 C   0  0  0  0  0  0  0  0  0  0  0  0
    0.8599    9.4141   -0.5909 Ge  0  0  0  0  0  4  0  0  0  0  0  0
    1.8876    8.7177    0.9147 C   0  0  0  0  0  0  0  0  0  0  0  0
    2.2698    9.8417    1.8671 C   0  0  0  0  0  0  0  0  0  0  0  0
    1.8531   10.3726   -1.9681 C   0  0  0  0  0  0  0  0  0  0  0  0
    3.3319   10.0168   -1.9178 C   0  0  0  0  0  0  0  0  0  0  0  0
   -0.7109   10.3637   -0.0263 C   0  0  0  0  0  0  0  0  0  0  0  0
   -0.9032   11.5319    0.7043 C   0  0  0  0  0  0  0  0  0  0  0  0
   -0.2120    6.8515   -1.8482 C   0  0  0  0  0  0  0  0  0  0  0  0
   -1.4447    6.2146   -2.0632 C   0  0  0  0  0  0  0  0  0  0  0  0
   -2.7057    7.2388   -1.5455 S   0  0  0  0  0  0  0  0  0  0  0  0
   -1.6072    4.8486   -2.6158 C   0  0  0  0  0  0  0  0  0  0  0  0
   -2.8007    4.0877   -2.6666 C   0  0  0  0  0  0  0  0  0  0  0  0
   -4.0954    4.4716   -2.0936 C   0  0  0  0  0  0  0  0  0  0  0  0
   -5.1391    4.8966   -2.9269 C   0  0  0  0  0  0  0  0  0  0  0  0
   -6.3534    5.3056   -2.3660 C   0  0  0  0  0  0  0  0  0  0  0  0
   -6.5271    5.2942   -0.9787 C   0  0  0  0  0  0  0  0  0  0  0  0
   -5.4952    4.8444   -0.1404 C   0  0  0  0  0  0  0  0  0  0  0  0
   -5.6528    4.8827    1.3547 C   0  0  0  0  0  0  0  0  0  0  0  0
   -5.0446    6.1594    1.9240 C   0  0  0  0  0  0  0  0  0  0  0  0
   -4.2792    4.4338   -0.7047 C   0  0  0  0  0  0  0  0  0  0  0  0
   -2.5756    2.8374   -3.2280 C   0  0  0  0  0  0  0  0  0  0  0  0
   -3.5679    1.4649   -3.4723 S   0  0  0  0  0  0  0  0  0  0  0  0
   -2.2333    0.5920   -4.0559 C   0  0  0  0  0  0  0  0  0  0  0  0
   -1.9315   -0.6317   -4.5756 C   0  0  0  0  0  0  0  0  0  0  0  0
   -2.7135   -1.7423   -4.8932 C   0  0  0  0  0  0  0  0  0  0  0  0
   -2.0692   -2.8922   -5.4380 C   0  0  0  0  0  0  0  0  0  0  0  0
   -2.8559   -3.9688   -5.6931 N   0  0  0  0  0  0  0  0  0  0  0  0
   -4.3242   -3.3642   -5.2257 S   0  0  0  0  0  0  0  0  0  0  0  0
   -4.0522   -1.8173   -4.6959 N   0  0  0  0  0  0  0  0  0  0  0  0
   -0.6682   -2.8895   -5.5764 C   0  0  0  0  0  0  0  0  0  0  0  0
    0.1830   -3.9612   -5.5989 C   0  0  0  0  0  0  0  0  0  0  0  0
   -0.0803   -5.6168   -5.3341 S   0  0  0  0  0  0  0  0  0  0  0  0
    1.4058   -5.7880   -4.5352 C   0  0  0  0  0  0  0  0  0  0  0  0
    1.8883   -6.8011   -3.7058 C   0  0  0  0  0  0  0  0  0  0  0  0
    1.2782   -8.1368   -3.6566 C   0  0  0  0  0  0  0  0  0  0  0  0
   -0.0457   -8.2983   -3.2258 C   0  0  0  0  0  0  0  0  0  0  0  0
   -0.6187   -9.5688   -3.1804 C   0  0  0  0  0  0  0  0  0  0  0  0
    0.1268  -10.6881   -3.5575 C   0  0  0  0  0  0  0  0  0  0  0  0
    1.4601  -10.5440   -3.9707 C   0  0  0  0  0  0  0  0  0  0  0  0
    2.2545  -11.7461   -4.4005 C   0  0  0  0  0  0  0  0  0  0  0  0
    2.1096  -11.9792   -5.9024 C   0  0  0  0  0  0  0  0  0  0  0  0
    2.0275   -9.2637   -4.0335 C   0  0  0  0  0  0  0  0  0  0  0  0
    2.9449   -6.3382   -2.8890 C   0  0  0  0  0  0  0  0  0  0  0  0
    3.2429   -4.7016   -3.2695 S   0  0  0  0  0  0  0  0  0  0  0  0
    2.0558   -4.5829   -4.4474 C   0  0  0  0  0  0  0  0  0  0  0  0
    1.3702   -3.5345   -5.0673 C   0  0  0  0  0  0  0  0  0  0  0  0
    1.3670   -2.2002   -4.8014 N   0  0  0  0  0  0  0  0  0  0  0  0
    0.1120   -1.7926   -5.1728 C   0  0  0  0  0  0  0  0  0  0  0  0
   -0.5514   -0.6006   -4.8025 C   0  0  0  0  0  0  0  0  0  0  0  0
   -0.0312    0.6433   -4.5746 N   0  0  0  0  0  0  0  0  0  0  0  0
   -1.0878    1.3136   -4.0577 C   0  0  0  0  0  0  0  0  0  0  0  0
   -1.2807    2.6041   -3.6076 C   0  0  0  0  0  0  0  0  0  0  0  0
   -0.3188    3.9311   -3.2645 S   0  0  0  0  0  0  0  0  0  0  0  0
    1.0355    1.2768   -5.3628 C   0  0  0  0  0  0  0  0  0  0  0  0
    0.4546    2.1020   -6.5128 C   0  0  0  0  0  0  0  0  0  0  0  0
    2.2815   -1.5442   -3.8511 C   0  0  0  0  0  0  0  0  0  0  0  0
    1.7345   -1.6148   -2.4257 C   0  0  0  0  0  0  0  0  0  0  0  0
    3.5421   -7.0082   -1.7036 C   0  0  0  0  0  0  0  0  0  0  0  0
    4.6717   -6.2521   -0.6725 S   0  0  0  0  0  0  0  0  0  0  0  0
    4.6407   -7.4558    0.4838 C   0  0  0  0  0  0  0  0  0  0  0  0
    5.0013   -7.4659    1.8940 C   0  0  0  0  0  0  0  0  0  0  0  0
    4.4272   -8.4786    2.6265 C   0  0  0  0  0  0  0  0  0  0  0  0
    3.2919   -9.6052    1.5661 Ge  0  0  0  0  0  4  0  0  0  0  0  0
    1.4027   -9.4626    2.0141 C   0  0  0  0  0  0  0  0  0  0  0  0
    1.0965  -10.2505    3.2799 C   0  0  0  0  0  0  0  0  0  0  0  0
    3.9482  -11.4235    1.3217 C   0  0  0  0  0  0  0  0  0  0  0  0
    5.4322  -11.4993    1.6448 C   0  0  0  0  0  0  0  0  0  0  0  0
    3.7467   -8.4325    0.1209 C   0  0  0  0  0  0  0  0  0  0  0  0
    3.1029   -8.1946   -1.0879 C   0  0  0  0  0  0  0  0  0  0  0  0
    4.4800   -8.2983    4.0067 C   0  0  0  0  0  0  0  0  0  0  0  0
    5.0502   -7.0654    4.3339 C   0  0  0  0  0  0  0  0  0  0  0  0
    5.5023   -6.2375    2.9151 S   0  0  0  0  0  0  0  0  0  0  0  0
    5.1630   -6.5290    5.6953 C   0  0  0  0  0  0  0  0  0  0  0  0
    4.7515   -5.2953    6.0535 C   0  0  0  0  0  0  0  0  0  0  0  0
    5.3410   -4.5628    7.1703 C   0  0  0  0  0  0  0  0  0  0  0  0
    6.0479   -5.0692    8.0848 O   0  0  0  0  0  0  0  0  0  0  0  0
    5.0768   -3.1445    6.9797 C   0  0  0  0  0  0  0  0  0  0  0  0
    4.3114   -2.9780    5.8343 C   0  0  0  0  0  0  0  0  0  0  0  0
    3.9376   -1.6879    5.4212 C   0  0  0  0  0  0  0  0  0  0  0  0
    4.3522   -0.5844    6.1766 C   0  0  0  0  0  0  0  0  0  0  0  0
    5.1311   -0.7559    7.3355 C   0  0  0  0  0  0  0  0  0  0  0  0
    5.6673    0.8025    8.3062 Br  0  0  0  0  0  0  0  0  0  0  0  0
    5.5034   -2.0509    7.7496 C   0  0  0  0  0  0  0  0  0  0  0  0
    6.4917   -2.2921    9.1894 Cl  0  0  0  0  0  0  0  0  0  0  0  0
    3.9590   -4.3086    5.2636 C   0  0  0  0  0  0  0  0  0  0  0  0
    2.8683   -4.5920    4.5094 C   0  0  0  0  0  0  0  0  0  0  0  0
    2.2542   -5.8929    4.5343 C   0  0  0  0  0  0  0  0  0  0  0  0
    1.7403   -6.9284    4.5609 N   0  0  0  0  0  0  0  0  0  0  0  0
    2.1450   -3.5930    3.7701 C   0  0  0  0  0  0  0  0  0  0  0  0
    1.5521   -2.7990    3.1689 N   0  0  0  0  0  0  0  0  0  0  0  0
   -2.6770   13.8523    1.1677 H   0  0  0  0  0  0  0  0  0  0  0  0
   -7.0141   10.7248    6.8560 H   0  0  0  0  0  0  0  0  0  0  0  0
   -7.6605   13.1210    6.7946 H   0  0  0  0  0  0  0  0  0  0  0  0
   -6.5375   14.6795    5.2726 H   0  0  0  0  0  0  0  0  0  0  0  0
    1.2672    7.9728    1.4526 H   0  0  0  0  0  0  0  0  0  0  0  0
    2.8002    8.2155    0.5324 H   0  0  0  0  0  0  0  0  0  0  0  0
    1.3574   10.3323    2.2666 H   0  0  0  0  0  0  0  0  0  0  0  0
    2.8907   10.5982    1.3430 H   0  0  0  0  0  0  0  0  0  0  0  0
    2.8502    9.4276    2.7183 H   0  0  0  0  0  0  0  0  0  0  0  0
    1.7247   11.4648   -1.8049 H   0  0  0  0  0  0  0  0  0  0  0  0
    1.4308   10.1064   -2.9605 H   0  0  0  0  0  0  0  0  0  0  0  0
    3.4672    8.9149   -1.9941 H   0  0  0  0  0  0  0  0  0  0  0  0
    3.8610   10.5036   -2.7631 H   0  0  0  0  0  0  0  0  0  0  0  0
    3.7769   10.3749   -0.9633 H   0  0  0  0  0  0  0  0  0  0  0  0
   -0.1011   12.1756    1.0525 H   0  0  0  0  0  0  0  0  0  0  0  0
    0.7558    6.4058   -2.0493 H   0  0  0  0  0  0  0  0  0  0  0  0
   -5.0059    4.9291   -4.0002 H   0  0  0  0  0  0  0  0  0  0  0  0
   -7.1526    5.6460   -3.0092 H   0  0  0  0  0  0  0  0  0  0  0  0
   -7.4674    5.6358   -0.5612 H   0  0  0  0  0  0  0  0  0  0  0  0
   -6.7281    4.8281    1.6327 H   0  0  0  0  0  0  0  0  0  0  0  0
   -5.1463    4.0022    1.8110 H   0  0  0  0  0  0  0  0  0  0  0  0
   -5.1504    6.1584    3.0305 H   0  0  0  0  0  0  0  0  0  0  0  0
   -5.5691    7.0503    1.5168 H   0  0  0  0  0  0  0  0  0  0  0  0
   -3.9655    6.2236    1.6691 H   0  0  0  0  0  0  0  0  0  0  0  0
   -3.4663    4.0991   -0.0643 H   0  0  0  0  0  0  0  0  0  0  0  0
   -0.6311   -7.4375   -2.9202 H   0  0  0  0  0  0  0  0  0  0  0  0
   -1.6461   -9.6899   -2.8585 H   0  0  0  0  0  0  0  0  0  0  0  0
   -0.3342  -11.6648   -3.5275 H   0  0  0  0  0  0  0  0  0  0  0  0
    3.3302  -11.6036   -4.1471 H   0  0  0  0  0  0  0  0  0  0  0  0
    1.9078  -12.6473   -3.8494 H   0  0  0  0  0  0  0  0  0  0  0  0
    2.5297  -11.1191   -6.4676 H   0  0  0  0  0  0  0  0  0  0  0  0
    1.0395  -12.1038   -6.1720 H   0  0  0  0  0  0  0  0  0  0  0  0
    2.6637  -12.8977   -6.1900 H   0  0  0  0  0  0  0  0  0  0  0  0
    3.0528   -9.1371   -4.3677 H   0  0  0  0  0  0  0  0  0  0  0  0
    1.6815    0.5099   -5.8291 H   0  0  0  0  0  0  0  0  0  0  0  0
    1.6536    1.9290   -4.7098 H   0  0  0  0  0  0  0  0  0  0  0  0
    1.2749    2.4650   -7.1622 H   0  0  0  0  0  0  0  0  0  0  0  0
   -0.0942    2.9868   -6.1251 H   0  0  0  0  0  0  0  0  0  0  0  0
   -0.2425    1.4804   -7.1153 H   0  0  0  0  0  0  0  0  0  0  0  0
    2.4662   -0.4930   -4.1125 H   0  0  0  0  0  0  0  0  0  0  0  0
    3.2766   -2.0333   -3.8983 H   0  0  0  0  0  0  0  0  0  0  0  0
    2.5282   -1.3388   -1.7063 H   0  0  0  0  0  0  0  0  0  0  0  0
    0.8819   -0.9074   -2.3075 H   0  0  0  0  0  0  0  0  0  0  0  0
    1.3745   -2.6358   -2.1951 H   0  0  0  0  0  0  0  0  0  0  0  0
    1.1529   -8.3922    2.1690 H   0  0  0  0  0  0  0  0  0  0  0  0
    0.7988   -9.8581    1.1697 H   0  0  0  0  0  0  0  0  0  0  0  0
    1.3216  -11.3271    3.1328 H   0  0  0  0  0  0  0  0  0  0  0  0
    1.7058   -9.8619    4.1231 H   0  0  0  0  0  0  0  0  0  0  0  0
    0.0245  -10.1390    3.5386 H   0  0  0  0  0  0  0  0  0  0  0  0
    3.3915  -12.1040    1.9966 H   0  0  0  0  0  0  0  0  0  0  0  0
    3.7756  -11.7359    0.2667 H   0  0  0  0  0  0  0  0  0  0  0  0
    5.6012  -11.2456    2.7109 H   0  0  0  0  0  0  0  0  0  0  0  0
    5.8041  -12.5285    1.4613 H   0  0  0  0  0  0  0  0  0  0  0  0
    6.0036  -10.7926    1.0033 H   0  0  0  0  0  0  0  0  0  0  0  0
    2.2622   -8.7953   -1.4037 H   0  0  0  0  0  0  0  0  0  0  0  0
    4.0209   -8.9622    4.7274 H   0  0  0  0  0  0  0  0  0  0  0  0
    5.7359   -7.1172    6.4009 H   0  0  0  0  0  0  0  0  0  0  0  0
    3.3812   -1.5091    4.5190 H   0  0  0  0  0  0  0  0  0  0  0  0
    4.0705    0.4113    5.8600 H   0  0  0  0  0  0  0  0  0  0  0  0
  1  2  2  3
  2  3  1  0
  3  4  2  0
  3  5  1  0
  5  6  2  0
  6  7  1  0
  6  8  1  0
  8  9  2  0
  9 10  1  0
 10 11  2  0
 11 12  1  0
 12 13  2  3
 13 14  1  0
 14 15  3  0
 13 16  1  0
 16 17  3  0
  1 18  1  0
 18 19  1  0
 19 20  1  0
 20 21  1  0
 21 22  2  0
 22 23  1  0
 23 24  1  0
 24 25  1  0
 23 26  1  0
 26 27  1  0
 23 28  1  0
 28 29  1  0
 22 30  1  0
 30 31  2  0
 31 32  1  0
 31 33  1  0
 33 34  2  0
 34 35  1  0
 35 36  2  0
 36 37  1  0
 37 38  2  0
 38 39  1  0
 39 40  1  0
 40 41  1  0
 39 42  2  0
 34 43  1  0
 43 44  1  0
 44 45  1  0
 45 46  1  0
 46 47  1  0
 47 48  1  0
 48 49  2  0
 49 50  1  0
 50 51  1  0
 48 52  1  0
 52 53  1  0
 53 54  1  0
 54 55  1  0
 55 56  1  0
 56 57  1  0
 57 58  2  0
 58 59  1  0
 59 60  2  0
 60 61  1  0
 61 62  1  0
 62 63  1  0
 61 64  2  0
 56 65  2  0
 65 66  1  0
 66 67  1  0
 67 68  1  0
 68 69  1  0
 69 70  1  0
 70 71  1  0
 71 72  1  0
 72 73  1  0
 73 74  1  0
 74 75  1  0
 72 76  1  0
 76 77  1  0
 69 78  1  0
 78 79  1  0
 65 80  1  0
 80 81  1  0
 81 82  1  0
 82 83  1  0
 83 84  2  0
 84 85  1  0
 85 86  1  0
 86 87  1  0
 85 88  1  0
 88 89  1  0
 85 90  1  0
 90 91  1  0
 84 92  1  0
 92 93  2  0
 93 94  1  0
 93 95  1  0
 95 96  2  3
 96 97  1  0
 97 98  2  0
 97 99  1  0
 99100  2  0
100101  1  0
101102  2  0
102103  1  0
103104  1  0
103105  2  0
105106  1  0
100107  1  0
107108  2  3
108109  1  0
109110  3  0
108111  1  0
111112  3  0
 12  2  1  0
 29 18  2  0
 75 33  1  0
 91 80  2  0
107 96  1  0
 11  5  1  0
 28 20  2  0
 42 35  1  0
 74 43  2  0
 90 82  2  0
105 99  1  0
 32 21  1  0
 73 45  2  0
 94 83  1  0
 71 46  2  0
 51 47  2  0
 70 52  2  0
 68 53  2  0
 67 55  2  0
 64 57  1  0
  1113  1  0
  8114  1  0
  9115  1  0
 10116  1  0
 24117  1  0
 24118  1  0
 25119  1  0
 25120  1  0
 25121  1  0
 26122  1  0
 26123  1  0
 27124  1  0
 27125  1  0
 27126  1  0
 29127  1  0
 30128  1  0
 36129  1  0
 37130  1  0
 38131  1  0
 40132  1  0
 40133  1  0
 41134  1  0
 41135  1  0
 41136  1  0
 42137  1  0
 58138  1  0
 59139  1  0
 60140  1  0
 62141  1  0
 62142  1  0
 63143  1  0
 63144  1  0
 63145  1  0
 64146  1  0
 76147  1  0
 76148  1  0
 77149  1  0
 77150  1  0
 77151  1  0
 78152  1  0
 78153  1  0
 79154  1  0
 79155  1  0
 79156  1  0
 86157  1  0
 86158  1  0
 87159  1  0
 87160  1  0
 87161  1  0
 88162  1  0
 88163  1  0
 89164  1  0
 89165  1  0
 89166  1  0
 91167  1  0
 92168  1  0
 95169  1  0
101170  1  0
102171  1  0
M  END

