
     RDKit          3D

197217  0  0  0  0  0  0  0  0999 V2000
    0.9677   -2.6276    6.5445 C   0  0  0  0  0  0  0  0  0  0  0  0
    1.2701   -2.5340    7.8533 C   0  0  0  0  0  0  0  0  0  0  0  0
    1.1123   -1.3175    8.6695 C   0  0  0  0  0  0  0  0  0  0  0  0
    0.4216   -0.3025    8.3777 O   0  0  0  0  0  0  0  0  0  0  0  0
    1.9009   -1.4717    9.8711 C   0  0  0  0  0  0  0  0  0  0  0  0
    2.1696   -0.5190   10.8557 C   0  0  0  0  0  0  0  0  0  0  0  0
    1.5921    0.7066   10.8160 F   0  0  0  0  0  0  0  0  0  0  0  0
    3.0630   -0.8493   11.8772 C   0  0  0  0  0  0  0  0  0  0  0  0
    3.6862   -2.1092   11.8930 C   0  0  0  0  0  0  0  0  0  0  0  0
    3.3996   -3.0586   10.8978 C   0  0  0  0  0  0  0  0  0  0  0  0
    2.4732   -2.7361    9.8880 C   0  0  0  0  0  0  0  0  0  0  0  0
    2.0285   -3.5142    8.6932 C   0  0  0  0  0  0  0  0  0  0  0  0
    2.1365   -4.8573    8.5050 C   0  0  0  0  0  0  0  0  0  0  0  0
    2.7668   -5.7290    9.4599 C   0  0  0  0  0  0  0  0  0  0  0  0
    3.2694   -6.4453   10.2181 N   0  0  0  0  0  0  0  0  0  0  0  0
    1.6029   -5.5283    7.3516 C   0  0  0  0  0  0  0  0  0  0  0  0
    1.2023   -6.0796    6.4201 N   0  0  0  0  0  0  0  0  0  0  0  0
    0.5110   -1.4713    5.7744 C   0  0  0  0  0  0  0  0  0  0  0  0
    1.3449   -0.4359    5.3317 C   0  0  0  0  0  0  0  0  0  0  0  0
    2.7771   -0.4763    5.3709 N   0  0  0  0  0  0  0  0  0  0  0  0
    3.4514   -0.0875    6.5795 C   0  0  0  0  0  0  0  0  0  0  0  0
    4.4819   -0.8830    7.1045 C   0  0  0  0  0  0  0  0  0  0  0  0
    5.1779   -0.4737    8.2454 C   0  0  0  0  0  0  0  0  0  0  0  0
    4.8439    0.7313    8.8785 C   0  0  0  0  0  0  0  0  0  0  0  0
    5.6461    1.2093   10.0549 C   0  0  0  0  0  0  0  0  0  0  0  0
    3.8125    1.5256    8.3570 C   0  0  0  0  0  0  0  0  0  0  0  0
    3.1141    1.1165    7.2217 C   0  0  0  0  0  0  0  0  0  0  0  0
    3.5102   -0.7498    4.1548 C   0  0  0  0  0  0  0  0  0  0  0  0
    4.7457   -0.1268    3.9023 C   0  0  0  0  0  0  0  0  0  0  0  0
    5.4135   -0.3341    2.6889 C   0  0  0  0  0  0  0  0  0  0  0  0
    4.8471   -1.1513    1.7003 C   0  0  0  0  0  0  0  0  0  0  0  0
    5.5574   -1.3693    0.3962 C   0  0  0  0  0  0  0  0  0  0  0  0
    3.6338   -1.8046    1.9600 C   0  0  0  0  0  0  0  0  0  0  0  0
    2.9701   -1.6022    3.1702 C   0  0  0  0  0  0  0  0  0  0  0  0
    0.6203    0.5308    4.6527 C   0  0  0  0  0  0  0  0  0  0  0  0
    1.0231    1.9627    3.8927 S   0  0  0  0  0  0  0  0  0  0  0  0
   -0.5736    2.2804    3.3800 C   0  0  0  0  0  0  0  0  0  0  0  0
   -1.4086    1.2189    3.7682 C   0  0  0  0  0  0  0  0  0  0  0  0
   -2.7603    1.0448    3.3240 N   0  0  0  0  0  0  0  0  0  0  0  0
   -3.0774   -0.1143    2.5238 C   0  0  0  0  0  0  0  0  0  0  0  0
   -2.2286   -0.5112    1.4744 C   0  0  0  0  0  0  0  0  0  0  0  0
   -2.5289   -1.6369    0.7036 C   0  0  0  0  0  0  0  0  0  0  0  0
   -3.6868   -2.3837    0.9682 C   0  0  0  0  0  0  0  0  0  0  0  0
   -3.9929   -3.6195    0.1695 C   0  0  0  0  0  0  0  0  0  0  0  0
   -4.5254   -2.0055    2.0256 C   0  0  0  0  0  0  0  0  0  0  0  0
   -4.2287   -0.8719    2.7947 C   0  0  0  0  0  0  0  0  0  0  0  0
   -3.7629    2.0316    3.6501 C   0  0  0  0  0  0  0  0  0  0  0  0
   -4.8170    2.3014    2.7591 C   0  0  0  0  0  0  0  0  0  0  0  0
   -5.8225    3.2117    3.0966 C   0  0  0  0  0  0  0  0  0  0  0  0
   -5.7783    3.8895    4.3248 C   0  0  0  0  0  0  0  0  0  0  0  0
   -6.8949    4.8114    4.7213 C   0  0  0  0  0  0  0  0  0  0  0  0
   -4.7171    3.6405    5.2082 C   0  0  0  0  0  0  0  0  0  0  0  0
   -3.7168    2.7240    4.8742 C   0  0  0  0  0  0  0  0  0  0  0  0
   -0.7018    0.2710    4.5042 C   0  0  0  0  0  0  0  0  0  0  0  0
   -1.0869   -1.1871    5.2486 S   0  0  0  0  0  0  0  0  0  0  0  0
   -0.9066    3.3815    2.4627 C   0  0  0  0  0  0  0  0  0  0  0  0
   -0.2128    4.6090    2.4067 C   0  0  0  0  0  0  0  0  0  0  0  0
    0.3518    5.2787    3.6234 C   0  0  0  0  0  0  0  0  0  0  0  0
    1.3556    6.2685    3.5615 C   0  0  0  0  0  0  0  0  0  0  0  0
    1.7811    6.9173    4.7268 C   0  0  0  0  0  0  0  0  0  0  0  0
    1.2435    6.5667    5.9696 C   0  0  0  0  0  0  0  0  0  0  0  0
    0.2618    5.5711    6.0551 C   0  0  0  0  0  0  0  0  0  0  0  0
   -0.3153    5.1471    7.3793 C   0  0  0  0  0  0  0  0  0  0  0  0
   -1.7200    5.7153    7.5946 C   0  0  0  0  0  0  0  0  0  0  0  0
   -0.2104    4.9776    4.8806 C   0  0  0  0  0  0  0  0  0  0  0  0
   -0.3129    5.1606    1.1119 C   0  0  0  0  0  0  0  0  0  0  0  0
    0.7499    6.1357    0.2084 S   0  0  0  0  0  0  0  0  0  0  0  0
    0.0238    5.7198   -1.2671 C   0  0  0  0  0  0  0  0  0  0  0  0
    0.4997    5.5242   -2.5427 C   0  0  0  0  0  0  0  0  0  0  0  0
    1.8009    5.7001   -3.0556 C   0  0  0  0  0  0  0  0  0  0  0  0
    2.1787    5.0003   -4.2482 C   0  0  0  0  0  0  0  0  0  0  0  0
    3.4610    5.1368   -4.6667 N   0  0  0  0  0  0  0  0  0  0  0  0
    4.0349    6.1314   -3.4698 S   0  0  0  0  0  0  0  0  0  0  0  0
    2.7695    6.4117   -2.4336 N   0  0  0  0  0  0  0  0  0  0  0  0
    1.2101    4.2445   -4.9169 C   0  0  0  0  0  0  0  0  0  0  0  0
    1.2455    3.4513   -6.0409 C   0  0  0  0  0  0  0  0  0  0  0  0
    2.4024    2.4702   -6.8108 S   0  0  0  0  0  0  0  0  0  0  0  0
    1.1850    1.4404   -7.4416 C   0  0  0  0  0  0  0  0  0  0  0  0
    1.2214    0.1257   -7.9260 C   0  0  0  0  0  0  0  0  0  0  0  0
    2.4752   -0.6086   -8.1497 C   0  0  0  0  0  0  0  0  0  0  0  0
    3.1035   -0.5771   -9.4028 C   0  0  0  0  0  0  0  0  0  0  0  0
    4.2695   -1.3167   -9.6185 C   0  0  0  0  0  0  0  0  0  0  0  0
    4.8190   -2.0822   -8.5807 C   0  0  0  0  0  0  0  0  0  0  0  0
    4.2135   -2.1001   -7.3131 C   0  0  0  0  0  0  0  0  0  0  0  0
    4.8029   -2.9069   -6.1861 C   0  0  0  0  0  0  0  0  0  0  0  0
    4.0888   -4.2512   -6.0599 C   0  0  0  0  0  0  0  0  0  0  0  0
    3.0279   -1.3700   -7.1098 C   0  0  0  0  0  0  0  0  0  0  0  0
   -0.0466   -0.4869   -7.8264 C   0  0  0  0  0  0  0  0  0  0  0  0
   -1.1544    0.6066   -7.1442 S   0  0  0  0  0  0  0  0  0  0  0  0
   -0.0545    1.8467   -7.0195 C   0  0  0  0  0  0  0  0  0  0  0  0
   -0.0146    2.9703   -6.2192 C   0  0  0  0  0  0  0  0  0  0  0  0
   -0.8713    3.3896   -5.2670 N   0  0  0  0  0  0  0  0  0  0  0  0
   -0.0904    4.1211   -4.4216 C   0  0  0  0  0  0  0  0  0  0  0  0
   -0.3942    4.6301   -3.1442 C   0  0  0  0  0  0  0  0  0  0  0  0
   -1.2642    4.1144   -2.2221 N   0  0  0  0  0  0  0  0  0  0  0  0
   -0.9876    4.8215   -1.0921 C   0  0  0  0  0  0  0  0  0  0  0  0
   -1.1413    4.4757    0.2517 C   0  0  0  0  0  0  0  0  0  0  0  0
   -1.6992    3.0912    0.9974 S   0  0  0  0  0  0  0  0  0  0  0  0
   -1.8377    2.7560   -2.2182 C   0  0  0  0  0  0  0  0  0  0  0  0
   -3.3409    2.7823   -1.9246 C   0  0  0  0  0  0  0  0  0  0  0  0
   -2.3395    3.3590   -5.3476 C   0  0  0  0  0  0  0  0  0  0  0  0
   -2.8449    3.9379   -6.6681 C   0  0  0  0  0  0  0  0  0  0  0  0
   -0.3940   -1.8990   -8.0627 C   0  0  0  0  0  0  0  0  0  0  0  0
    0.1834   -2.7826   -8.9742 C   0  0  0  0  0  0  0  0  0  0  0  0
   -0.4858   -4.0198   -9.0436 C   0  0  0  0  0  0  0  0  0  0  0  0
    0.0411   -5.3439  -10.1425 S   0  0  0  0  0  0  0  0  0  0  0  0
   -1.1414   -4.9227  -11.4693 C   0  0  0  0  0  0  0  0  0  0  0  0
   -0.6941   -3.6984  -12.2528 C   0  0  0  0  0  0  0  0  0  0  0  0
   -1.5985   -4.1012   -8.2040 C   0  0  0  0  0  0  0  0  0  0  0  0
   -1.7052   -2.6613   -7.3470 S   0  0  0  0  0  0  0  0  0  0  0  0
   -2.4625   -5.2832   -8.0220 C   0  0  0  0  0  0  0  0  0  0  0  0
   -3.7950   -5.2228   -7.8096 C   0  0  0  0  0  0  0  0  0  0  0  0
   -4.6180   -4.0071   -7.7677 C   0  0  0  0  0  0  0  0  0  0  0  0
   -4.4096   -2.9386   -8.4022 O   0  0  0  0  0  0  0  0  0  0  0  0
   -5.8105   -4.2921   -6.9980 C   0  0  0  0  0  0  0  0  0  0  0  0
   -6.7754   -3.4001   -6.5294 C   0  0  0  0  0  0  0  0  0  0  0  0
   -6.6983   -2.0770   -6.8096 F   0  0  0  0  0  0  0  0  0  0  0  0
   -7.8125   -3.8972   -5.7256 C   0  0  0  0  0  0  0  0  0  0  0  0
   -7.8563   -5.2584   -5.3954 C   0  0  0  0  0  0  0  0  0  0  0  0
   -6.8689   -6.1384   -5.8621 C   0  0  0  0  0  0  0  0  0  0  0  0
   -5.8499   -5.6401   -6.6898 C   0  0  0  0  0  0  0  0  0  0  0  0
   -4.6729   -6.3230   -7.2963 C   0  0  0  0  0  0  0  0  0  0  0  0
   -4.5278   -7.6549   -7.5205 C   0  0  0  0  0  0  0  0  0  0  0  0
   -3.4665   -8.1828   -8.3387 C   0  0  0  0  0  0  0  0  0  0  0  0
   -2.6178   -8.6200   -8.9955 N   0  0  0  0  0  0  0  0  0  0  0  0
   -5.4831   -8.6329   -7.0609 C   0  0  0  0  0  0  0  0  0  0  0  0
   -6.2385   -9.4354   -6.7071 N   0  0  0  0  0  0  0  0  0  0  0  0
    1.2134   -3.5014    5.9688 H   0  0  0  0  0  0  0  0  0  0  0  0
    3.2932   -0.1247   12.6491 H   0  0  0  0  0  0  0  0  0  0  0  0
    4.3931   -2.3493   12.6775 H   0  0  0  0  0  0  0  0  0  0  0  0
    3.9242   -3.9960   10.9138 H   0  0  0  0  0  0  0  0  0  0  0  0
    4.7497   -1.8140    6.6203 H   0  0  0  0  0  0  0  0  0  0  0  0
    5.9793   -1.0917    8.6281 H   0  0  0  0  0  0  0  0  0  0  0  0
    6.5612    1.7154    9.6936 H   0  0  0  0  0  0  0  0  0  0  0  0
    5.0576    1.9239   10.6679 H   0  0  0  0  0  0  0  0  0  0  0  0
    5.9337    0.3537   10.6964 H   0  0  0  0  0  0  0  0  0  0  0  0
    3.5527    2.4658    8.8246 H   0  0  0  0  0  0  0  0  0  0  0  0
    2.3295    1.7497    6.8228 H   0  0  0  0  0  0  0  0  0  0  0  0
    5.1849    0.5429    4.6312 H   0  0  0  0  0  0  0  0  0  0  0  0
    6.3591    0.1636    2.5164 H   0  0  0  0  0  0  0  0  0  0  0  0
    6.1616   -2.2945    0.4607 H   0  0  0  0  0  0  0  0  0  0  0  0
    6.2250   -0.5127    0.1570 H   0  0  0  0  0  0  0  0  0  0  0  0
    4.8287   -1.4727   -0.4375 H   0  0  0  0  0  0  0  0  0  0  0  0
    3.1971   -2.4589    1.2144 H   0  0  0  0  0  0  0  0  0  0  0  0
    2.0278   -2.1118    3.3406 H   0  0  0  0  0  0  0  0  0  0  0  0
   -1.3297    0.0518    1.2529 H   0  0  0  0  0  0  0  0  0  0  0  0
   -1.8582   -1.9292   -0.0960 H   0  0  0  0  0  0  0  0  0  0  0  0
   -3.5598   -4.5029    0.6790 H   0  0  0  0  0  0  0  0  0  0  0  0
   -3.5665   -3.5426   -0.8516 H   0  0  0  0  0  0  0  0  0  0  0  0
   -5.0909   -3.7617    0.0741 H   0  0  0  0  0  0  0  0  0  0  0  0
   -5.4069   -2.5893    2.2643 H   0  0  0  0  0  0  0  0  0  0  0  0
   -4.8747   -0.6025    3.6152 H   0  0  0  0  0  0  0  0  0  0  0  0
   -4.8637    1.7999    1.8015 H   0  0  0  0  0  0  0  0  0  0  0  0
   -6.6361    3.3783    2.4019 H   0  0  0  0  0  0  0  0  0  0  0  0
   -6.5136    5.6470    5.3460 H   0  0  0  0  0  0  0  0  0  0  0  0
   -7.6530    4.2489    5.3026 H   0  0  0  0  0  0  0  0  0  0  0  0
   -7.3858    5.2469    3.8239 H   0  0  0  0  0  0  0  0  0  0  0  0
   -4.6719    4.1445    6.1651 H   0  0  0  0  0  0  0  0  0  0  0  0
   -2.9187    2.5328    5.5820 H   0  0  0  0  0  0  0  0  0  0  0  0
    1.8272    6.5323    2.6300 H   0  0  0  0  0  0  0  0  0  0  0  0
    2.5364    7.6958    4.6666 H   0  0  0  0  0  0  0  0  0  0  0  0
    1.5904    7.0697    6.8601 H   0  0  0  0  0  0  0  0  0  0  0  0
    0.3442    5.4668    8.2139 H   0  0  0  0  0  0  0  0  0  0  0  0
   -0.3749    4.0383    7.4135 H   0  0  0  0  0  0  0  0  0  0  0  0
   -2.4015    5.4002    6.7778 H   0  0  0  0  0  0  0  0  0  0  0  0
   -2.1335    5.3497    8.5558 H   0  0  0  0  0  0  0  0  0  0  0  0
   -1.6738    6.8255    7.6212 H   0  0  0  0  0  0  0  0  0  0  0  0
   -1.0283    4.2736    4.9598 H   0  0  0  0  0  0  0  0  0  0  0  0
    2.6850    0.0116  -10.2073 H   0  0  0  0  0  0  0  0  0  0  0  0
    4.7536   -1.2922  -10.5846 H   0  0  0  0  0  0  0  0  0  0  0  0
    5.7208   -2.6484   -8.7635 H   0  0  0  0  0  0  0  0  0  0  0  0
    5.8873   -3.0853   -6.3606 H   0  0  0  0  0  0  0  0  0  0  0  0
    4.6995   -2.3450   -5.2310 H   0  0  0  0  0  0  0  0  0  0  0  0
    4.2492   -4.8495   -6.9782 H   0  0  0  0  0  0  0  0  0  0  0  0
    4.5055   -4.8090   -5.1928 H   0  0  0  0  0  0  0  0  0  0  0  0
    3.0008   -4.1086   -5.8991 H   0  0  0  0  0  0  0  0  0  0  0  0
    2.5387   -1.3888   -6.1410 H   0  0  0  0  0  0  0  0  0  0  0  0
   -1.3153    2.1398   -1.4624 H   0  0  0  0  0  0  0  0  0  0  0  0
   -1.6397    2.2112   -3.1548 H   0  0  0  0  0  0  0  0  0  0  0  0
   -3.6576    1.8105   -1.4979 H   0  0  0  0  0  0  0  0  0  0  0  0
   -3.9234    2.9490   -2.8486 H   0  0  0  0  0  0  0  0  0  0  0  0
   -3.5841    3.5842   -1.2003 H   0  0  0  0  0  0  0  0  0  0  0  0
   -2.7000    2.3192   -5.2277 H   0  0  0  0  0  0  0  0  0  0  0  0
   -2.7683    3.9817   -4.5349 H   0  0  0  0  0  0  0  0  0  0  0  0
   -2.5410    3.2898   -7.5174 H   0  0  0  0  0  0  0  0  0  0  0  0
   -2.4299    4.9551   -6.8240 H   0  0  0  0  0  0  0  0  0  0  0  0
   -3.9484    3.9961   -6.6456 H   0  0  0  0  0  0  0  0  0  0  0  0
    1.0357   -2.5422   -9.5945 H   0  0  0  0  0  0  0  0  0  0  0  0
   -1.2002   -5.7878  -12.1634 H   0  0  0  0  0  0  0  0  0  0  0  0
   -2.1562   -4.7525  -11.0508 H   0  0  0  0  0  0  0  0  0  0  0  0
    0.3328   -3.8462  -12.6453 H   0  0  0  0  0  0  0  0  0  0  0  0
   -0.7139   -2.7971  -11.6073 H   0  0  0  0  0  0  0  0  0  0  0  0
   -1.3855   -3.5279  -13.1059 H   0  0  0  0  0  0  0  0  0  0  0  0
   -1.9506   -6.2264   -7.9700 H   0  0  0  0  0  0  0  0  0  0  0  0
   -8.5681   -3.2216   -5.3492 H   0  0  0  0  0  0  0  0  0  0  0  0
   -8.6502   -5.6309   -4.7578 H   0  0  0  0  0  0  0  0  0  0  0  0
   -6.9060   -7.1661   -5.5497 H   0  0  0  0  0  0  0  0  0  0  0  0
  1  2  2  3
  2  3  1  0
  3  4  2  0
  3  5  1  0
  5  6  2  0
  6  7  1  0
  6  8  1  0
  8  9  2  0
  9 10  1  0
 10 11  2  0
 11 12  1  0
 12 13  2  3
 13 14  1  0
 14 15  3  0
 13 16  1  0
 16 17  3  0
  1 18  1  0
 18 19  2  0
 19 20  1  0
 20 21  1  0
 21 22  2  0
 22 23  1  0
 23 24  2  0
 24 25  1  0
 24 26  1  0
 26 27  2  0
 20 28  1  0
 28 29  2  0
 29 30  1  0
 30 31  2  0
 31 32  1  0
 31 33  1  0
 33 34  2  0
 19 35  1  0
 35 36  1  0
 36 37  1  0
 37 38  2  0
 38 39  1  0
 39 40  1  0
 40 41  2  0
 41 42  1  0
 42 43  2  0
 43 44  1  0
 43 45  1  0
 45 46  2  0
 39 47  1  0
 47 48  2  0
 48 49  1  0
 49 50  2  0
 50 51  1  0
 50 52  1  0
 52 53  2  0
 38 54  1  0
 54 55  1  0
 37 56  1  0
 56 57  2  0
 57 58  1  0
 58 59  2  0
 59 60  1  0
 60 61  2  0
 61 62  1  0
 62 63  1  0
 63 64  1  0
 62 65  2  0
 57 66  1  0
 66 67  1  0
 67 68  1  0
 68 69  1  0
 69 70  1  0
 70 71  1  0
 71 72  2  0
 72 73  1  0
 73 74  1  0
 71 75  1  0
 75 76  1  0
 76 77  1  0
 77 78  1  0
 78 79  1  0
 79 80  1  0
 80 81  2  0
 81 82  1  0
 82 83  2  0
 83 84  1  0
 84 85  1  0
 85 86  1  0
 84 87  2  0
 79 88  2  0
 88 89  1  0
 89 90  1  0
 90 91  1  0
 91 92  1  0
 92 93  1  0
 93 94  1  0
 94 95  1  0
 95 96  1  0
 96 97  1  0
 97 98  1  0
 95 99  1  0
 99100  1  0
 92101  1  0
101102  1  0
 88103  1  0
103104  2  0
104105  1  0
105106  1  0
106107  1  0
107108  1  0
105109  2  0
109110  1  0
109111  1  0
111112  2  3
112113  1  0
113114  2  0
113115  1  0
115116  2  0
116117  1  0
116118  1  0
118119  2  0
119120  1  0
120121  2  0
121122  1  0
122123  2  3
123124  1  0
124125  3  0
123126  1  0
126127  3  0
 12  2  1  0
 55 18  1  0
 98 56  1  0
110103  1  0
122112  1  0
 11  5  1  0
 27 21  1  0
 34 28  1  0
 54 35  2  0
 65 58  1  0
 97 66  2  0
121115  1  0
 46 40  1  0
 53 47  1  0
 96 68  2  0
 94 69  2  0
 74 70  2  0
 93 75  2  0
 91 76  2  0
 90 78  2  0
 87 80  1  0
  1128  1  0
  8129  1  0
  9130  1  0
 10131  1  0
 22132  1  0
 23133  1  0
 25134  1  0
 25135  1  0
 25136  1  0
 26137  1  0
 27138  1  0
 29139  1  0
 30140  1  0
 32141  1  0
 32142  1  0
 32143  1  0
 33144  1  0
 34145  1  0
 41146  1  0
 42147  1  0
 44148  1  0
 44149  1  0
 44150  1  0
 45151  1  0
 46152  1  0
 48153  1  0
 49154  1  0
 51155  1  0
 51156  1  0
 51157  1  0
 52158  1  0
 53159  1  0
 59160  1  0
 60161  1  0
 61162  1  0
 63163  1  0
 63164  1  0
 64165  1  0
 64166  1  0
 64167  1  0
 65168  1  0
 81169  1  0
 82170  1  0
 83171  1  0
 85172  1  0
 85173  1  0
 86174  1  0
 86175  1  0
 86176  1  0
 87177  1  0
 99178  1  0
 99179  1  0
100180  1  0
100181  1  0
100182  1  0
101183  1  0
101184  1  0
102185  1  0
102186  1  0
102187  1  0
104188  1  0
107189  1  0
107190  1  0
108191  1  0
108192  1  0
108193  1  0
111194  1  0
118195  1  0
119196  1  0
120197  1  0
M  END

