
     RDKit          3D

252277  0  0  0  0  0  0  0  0999 V2000
    4.7531   -8.3779   -1.4893 C   0  0  0  0  0  0  0  0  0  0  0  0
    4.4395   -8.2888   -0.1812 C   0  0  0  0  0  0  0  0  0  0  0  0
    3.5268   -7.2940    0.4100 C   0  0  0  0  0  0  0  0  0  0  0  0
    2.8556   -6.4247   -0.2079 O   0  0  0  0  0  0  0  0  0  0  0  0
    3.5923   -7.4096    1.8524 C   0  0  0  0  0  0  0  0  0  0  0  0
    2.9443   -6.6240    2.8102 C   0  0  0  0  0  0  0  0  0  0  0  0
    2.0761   -5.6434    2.4545 F   0  0  0  0  0  0  0  0  0  0  0  0
    3.2170   -6.8745    4.1655 C   0  0  0  0  0  0  0  0  0  0  0  0
    4.1633   -7.8452    4.5257 C   0  0  0  0  0  0  0  0  0  0  0  0
    4.8190   -8.6034    3.5425 C   0  0  0  0  0  0  0  0  0  0  0  0
    4.4903   -8.4055    2.1937 C   0  0  0  0  0  0  0  0  0  0  0  0
    5.0183   -9.0665    0.9625 C   0  0  0  0  0  0  0  0  0  0  0  0
    5.6533  -10.2710    0.9073 C   0  0  0  0  0  0  0  0  0  0  0  0
    6.0191  -10.9143   -0.3223 C   0  0  0  0  0  0  0  0  0  0  0  0
    6.3227  -11.4543   -1.2983 N   0  0  0  0  0  0  0  0  0  0  0  0
    5.8645  -11.0821    2.0747 C   0  0  0  0  0  0  0  0  0  0  0  0
    6.0161  -11.7653    3.0021 N   0  0  0  0  0  0  0  0  0  0  0  0
    4.0481   -7.6274   -2.5395 C   0  0  0  0  0  0  0  0  0  0  0  0
    4.5694   -6.5674   -3.3123 C   0  0  0  0  0  0  0  0  0  0  0  0
    5.9277   -6.0797   -3.2476 N   0  0  0  0  0  0  0  0  0  0  0  0
    6.2239   -4.7159   -3.5700 C   0  0  0  0  0  0  0  0  0  0  0  0
    6.9706   -4.4076   -4.7155 C   0  0  0  0  0  0  0  0  0  0  0  0
    7.1342   -3.0790   -5.1106 C   0  0  0  0  0  0  0  0  0  0  0  0
    6.5444   -2.0440   -4.3681 C   0  0  0  0  0  0  0  0  0  0  0  0
    6.7029   -0.6190   -4.8003 C   0  0  0  0  0  0  0  0  0  0  0  0
    5.8525   -2.3524   -3.1900 C   0  0  0  0  0  0  0  0  0  0  0  0
    5.6834   -3.6803   -2.7961 C   0  0  0  0  0  0  0  0  0  0  0  0
    7.0207   -6.9620   -2.9577 C   0  0  0  0  0  0  0  0  0  0  0  0
    7.8480   -6.7103   -1.8532 C   0  0  0  0  0  0  0  0  0  0  0  0
    8.8747   -7.5994   -1.5291 C   0  0  0  0  0  0  0  0  0  0  0  0
    9.0970   -8.7393   -2.3163 C   0  0  0  0  0  0  0  0  0  0  0  0
   10.2084   -9.6778   -1.9482 C   0  0  0  0  0  0  0  0  0  0  0  0
    8.2812   -8.9824   -3.4310 C   0  0  0  0  0  0  0  0  0  0  0  0
    7.2479   -8.0969   -3.7505 C   0  0  0  0  0  0  0  0  0  0  0  0
    3.5569   -5.9907   -4.0825 C   0  0  0  0  0  0  0  0  0  0  0  0
    3.4307   -4.6445   -5.0749 S   0  0  0  0  0  0  0  0  0  0  0  0
    1.7505   -4.7710   -5.3267 C   0  0  0  0  0  0  0  0  0  0  0  0
    1.2878   -5.9027   -4.6154 C   0  0  0  0  0  0  0  0  0  0  0  0
   -0.0454   -6.4468   -4.6841 N   0  0  0  0  0  0  0  0  0  0  0  0
   -0.2068   -7.8258   -5.0890 C   0  0  0  0  0  0  0  0  0  0  0  0
   -1.0877   -8.6825   -4.4065 C   0  0  0  0  0  0  0  0  0  0  0  0
   -1.1202  -10.0480   -4.7079 C   0  0  0  0  0  0  0  0  0  0  0  0
   -0.2636  -10.5787   -5.6834 C   0  0  0  0  0  0  0  0  0  0  0  0
   -0.2481  -12.0491   -5.9640 C   0  0  0  0  0  0  0  0  0  0  0  0
    0.5694   -9.7173   -6.4095 C   0  0  0  0  0  0  0  0  0  0  0  0
    0.5987   -8.3530   -6.1130 C   0  0  0  0  0  0  0  0  0  0  0  0
   -1.1490   -5.7307   -4.1070 C   0  0  0  0  0  0  0  0  0  0  0  0
   -2.3156   -5.5190   -4.8565 C   0  0  0  0  0  0  0  0  0  0  0  0
   -3.3467   -4.7244   -4.3458 C   0  0  0  0  0  0  0  0  0  0  0  0
   -3.2225   -4.1306   -3.0772 C   0  0  0  0  0  0  0  0  0  0  0  0
   -4.3056   -3.2418   -2.5482 C   0  0  0  0  0  0  0  0  0  0  0  0
   -2.0833   -4.4017   -2.3012 C   0  0  0  0  0  0  0  0  0  0  0  0
   -1.0537   -5.1971   -2.8115 C   0  0  0  0  0  0  0  0  0  0  0  0
    2.3306   -6.5485   -3.9521 C   0  0  0  0  0  0  0  0  0  0  0  0
    2.3875   -7.8265   -2.8702 S   0  0  0  0  0  0  0  0  0  0  0  0
    0.9582   -3.6673   -5.9004 C   0  0  0  0  0  0  0  0  0  0  0  0
    1.3591   -2.8376   -6.9720 C   0  0  0  0  0  0  0  0  0  0  0  0
    2.4142   -3.1597   -7.9419 C   0  0  0  0  0  0  0  0  0  0  0  0
    3.6961   -2.6080   -7.8168 C   0  0  0  0  0  0  0  0  0  0  0  0
    4.6718   -2.8910   -8.7758 C   0  0  0  0  0  0  0  0  0  0  0  0
    4.3704   -3.7135   -9.8677 C   0  0  0  0  0  0  0  0  0  0  0  0
    3.0854   -4.2723   -9.9988 C   0  0  0  0  0  0  0  0  0  0  0  0
    2.7279   -5.0919  -11.2115 C   0  0  0  0  0  0  0  0  0  0  0  0
    2.0565   -4.2178  -12.2678 C   0  0  0  0  0  0  0  0  0  0  0  0
    2.1117   -3.9930   -9.0292 C   0  0  0  0  0  0  0  0  0  0  0  0
    0.6316   -1.6422   -6.9956 C   0  0  0  0  0  0  0  0  0  0  0  0
    0.8629   -0.1614   -7.8070 S   0  0  0  0  0  0  0  0  0  0  0  0
   -0.3501    0.5813   -6.8742 C   0  0  0  0  0  0  0  0  0  0  0  0
   -0.6171    1.8555   -6.4538 C   0  0  0  0  0  0  0  0  0  0  0  0
    0.0192    3.0663   -6.7697 C   0  0  0  0  0  0  0  0  0  0  0  0
   -0.2034    4.1981   -5.9256 C   0  0  0  0  0  0  0  0  0  0  0  0
    0.4596    5.3343   -6.2352 N   0  0  0  0  0  0  0  0  0  0  0  0
    1.3036    4.8168   -7.5684 S   0  0  0  0  0  0  0  0  0  0  0  0
    0.8920    3.2272   -7.7934 N   0  0  0  0  0  0  0  0  0  0  0  0
   -1.1050    4.0759   -4.8585 C   0  0  0  0  0  0  0  0  0  0  0  0
   -1.5216    4.9610   -3.9046 C   0  0  0  0  0  0  0  0  0  0  0  0
   -0.7836    6.2627   -3.0996 S   0  0  0  0  0  0  0  0  0  0  0  0
   -1.6771    5.9579   -1.6800 C   0  0  0  0  0  0  0  0  0  0  0  0
   -1.4484    6.3483   -0.3521 C   0  0  0  0  0  0  0  0  0  0  0  0
   -0.4390    7.3568    0.0140 C   0  0  0  0  0  0  0  0  0  0  0  0
   -0.6741    8.7172   -0.2435 C   0  0  0  0  0  0  0  0  0  0  0  0
    0.3308    9.6585   -0.0103 C   0  0  0  0  0  0  0  0  0  0  0  0
    1.5869    9.2473    0.4422 C   0  0  0  0  0  0  0  0  0  0  0  0
    1.8486    7.8830    0.6590 C   0  0  0  0  0  0  0  0  0  0  0  0
    3.2338    7.4253    1.0396 C   0  0  0  0  0  0  0  0  0  0  0  0
    3.4837    7.5967    2.5328 C   0  0  0  0  0  0  0  0  0  0  0  0
    0.8191    6.9428    0.4773 C   0  0  0  0  0  0  0  0  0  0  0  0
   -2.0958    5.4729    0.5513 C   0  0  0  0  0  0  0  0  0  0  0  0
   -2.8879    4.2614   -0.3396 S   0  0  0  0  0  0  0  0  0  0  0  0
   -2.4757    4.8529   -1.8410 C   0  0  0  0  0  0  0  0  0  0  0  0
   -2.4110    4.2886   -3.1119 C   0  0  0  0  0  0  0  0  0  0  0  0
   -2.6189    3.0044   -3.5179 N   0  0  0  0  0  0  0  0  0  0  0  0
   -1.7453    2.8713   -4.5584 C   0  0  0  0  0  0  0  0  0  0  0  0
   -1.4163    1.7144   -5.3042 C   0  0  0  0  0  0  0  0  0  0  0  0
   -1.5154    0.3985   -4.9368 N   0  0  0  0  0  0  0  0  0  0  0  0
   -0.8811   -0.2589   -5.9405 C   0  0  0  0  0  0  0  0  0  0  0  0
   -0.3090   -1.5196   -6.0098 C   0  0  0  0  0  0  0  0  0  0  0  0
   -0.2544   -2.8587   -5.0209 S   0  0  0  0  0  0  0  0  0  0  0  0
   -1.6837   -0.1344   -3.5753 C   0  0  0  0  0  0  0  0  0  0  0  0
   -0.3727   -0.0721   -2.7974 C   0  0  0  0  0  0  0  0  0  0  0  0
   -3.9719    2.4045   -3.5623 C   0  0  0  0  0  0  0  0  0  0  0  0
   -4.5284    2.0859   -2.1777 C   0  0  0  0  0  0  0  0  0  0  0  0
   -2.0068    5.4011    2.0201 C   0  0  0  0  0  0  0  0  0  0  0  0
   -2.1991    6.4323    2.9689 C   0  0  0  0  0  0  0  0  0  0  0  0
   -2.3736    7.8242    2.6677 N   0  0  0  0  0  0  0  0  0  0  0  0
   -3.7200    8.2710    2.4308 C   0  0  0  0  0  0  0  0  0  0  0  0
   -4.4468    8.8792    3.4615 C   0  0  0  0  0  0  0  0  0  0  0  0
   -5.7574    9.3100    3.2464 C   0  0  0  0  0  0  0  0  0  0  0  0
   -6.3615    9.1397    1.9905 C   0  0  0  0  0  0  0  0  0  0  0  0
   -7.7851    9.5586    1.7703 C   0  0  0  0  0  0  0  0  0  0  0  0
   -5.6379    8.5250    0.9582 C   0  0  0  0  0  0  0  0  0  0  0  0
   -4.3247    8.0966    1.1748 C   0  0  0  0  0  0  0  0  0  0  0  0
   -1.3386    8.7761    3.0278 C   0  0  0  0  0  0  0  0  0  0  0  0
   -0.1304    8.3557    3.6318 C   0  0  0  0  0  0  0  0  0  0  0  0
    0.8483    9.2821    3.9967 C   0  0  0  0  0  0  0  0  0  0  0  0
    0.6715   10.6411    3.7325 C   0  0  0  0  0  0  0  0  0  0  0  0
    1.7683   11.6217    4.0340 C   0  0  0  0  0  0  0  0  0  0  0  0
   -0.5063   11.0716    3.1102 C   0  0  0  0  0  0  0  0  0  0  0  0
   -1.5033   10.1530    2.7671 C   0  0  0  0  0  0  0  0  0  0  0  0
   -2.3990    5.9021    4.2516 C   0  0  0  0  0  0  0  0  0  0  0  0
   -2.9839    6.5298    5.6970 S   0  0  0  0  0  0  0  0  0  0  0  0
   -3.1982    5.0025    6.4365 C   0  0  0  0  0  0  0  0  0  0  0  0
   -2.8686    3.9937    5.5086 C   0  0  0  0  0  0  0  0  0  0  0  0
   -3.3299    2.6309    5.5814 N   0  0  0  0  0  0  0  0  0  0  0  0
   -4.6033    2.3457    4.9654 C   0  0  0  0  0  0  0  0  0  0  0  0
   -4.6518    1.7579    3.6901 C   0  0  0  0  0  0  0  0  0  0  0  0
   -5.8742    1.5795    3.0379 C   0  0  0  0  0  0  0  0  0  0  0  0
   -7.0685    1.9654    3.6623 C   0  0  0  0  0  0  0  0  0  0  0  0
   -8.3714    1.8457    2.9252 C   0  0  0  0  0  0  0  0  0  0  0  0
   -7.0262    2.5308    4.9481 C   0  0  0  0  0  0  0  0  0  0  0  0
   -5.8023    2.7153    5.5976 C   0  0  0  0  0  0  0  0  0  0  0  0
   -2.3993    1.5469    5.8291 C   0  0  0  0  0  0  0  0  0  0  0  0
   -1.0052    1.7488    5.7845 C   0  0  0  0  0  0  0  0  0  0  0  0
   -0.1223    0.6940    6.0293 C   0  0  0  0  0  0  0  0  0  0  0  0
   -0.6108   -0.5860    6.3163 C   0  0  0  0  0  0  0  0  0  0  0  0
    0.3419   -1.7090    6.5999 C   0  0  0  0  0  0  0  0  0  0  0  0
   -1.9962   -0.7931    6.3856 C   0  0  0  0  0  0  0  0  0  0  0  0
   -2.8837    0.2625    6.1453 C   0  0  0  0  0  0  0  0  0  0  0  0
   -2.3874    4.5486    4.3278 C   0  0  0  0  0  0  0  0  0  0  0  0
   -2.1187    3.9015    2.8198 S   0  0  0  0  0  0  0  0  0  0  0  0
   -3.9437    4.7970    7.6880 C   0  0  0  0  0  0  0  0  0  0  0  0
   -3.5620    3.9145    8.6276 C   0  0  0  0  0  0  0  0  0  0  0  0
   -2.2952    3.1807    8.6334 C   0  0  0  0  0  0  0  0  0  0  0  0
   -1.2049    3.5757    8.1366 O   0  0  0  0  0  0  0  0  0  0  0  0
   -2.4789    1.9560    9.3790 C   0  0  0  0  0  0  0  0  0  0  0  0
   -1.6084    0.8719    9.4836 C   0  0  0  0  0  0  0  0  0  0  0  0
   -2.0523   -0.2907   10.1360 C   0  0  0  0  0  0  0  0  0  0  0  0
   -1.1499   -1.4873   10.2056 C   0  0  0  0  0  0  0  0  0  0  0  0
   -3.3759   -0.3506   10.6310 C   0  0  0  0  0  0  0  0  0  0  0  0
   -3.8456   -1.4979   11.1928 F   0  0  0  0  0  0  0  0  0  0  0  0
   -4.2348    0.7562   10.5124 C   0  0  0  0  0  0  0  0  0  0  0  0
   -3.7566    1.9294    9.9043 C   0  0  0  0  0  0  0  0  0  0  0  0
   -4.4548    3.2081    9.5948 C   0  0  0  0  0  0  0  0  0  0  0  0
   -5.5272    3.7285   10.2331 C   0  0  0  0  0  0  0  0  0  0  0  0
   -6.2382    2.9995   11.2507 C   0  0  0  0  0  0  0  0  0  0  0  0
   -6.8271    2.4305   12.0723 N   0  0  0  0  0  0  0  0  0  0  0  0
   -5.9391    5.0919   10.0369 C   0  0  0  0  0  0  0  0  0  0  0  0
   -6.2794    6.1920    9.8944 N   0  0  0  0  0  0  0  0  0  0  0  0
    5.5632   -8.9968   -1.8161 H   0  0  0  0  0  0  0  0  0  0  0  0
    2.7327   -6.2810    4.9322 H   0  0  0  0  0  0  0  0  0  0  0  0
    4.4008   -7.9994    5.5736 H   0  0  0  0  0  0  0  0  0  0  0  0
    5.5979   -9.2779    3.8522 H   0  0  0  0  0  0  0  0  0  0  0  0
    7.3879   -5.2020   -5.3208 H   0  0  0  0  0  0  0  0  0  0  0  0
    7.6969   -2.8583   -6.0095 H   0  0  0  0  0  0  0  0  0  0  0  0
    5.7977   -0.0277   -4.5478 H   0  0  0  0  0  0  0  0  0  0  0  0
    7.5817   -0.1704   -4.2884 H   0  0  0  0  0  0  0  0  0  0  0  0
    6.8523   -0.5508   -5.9019 H   0  0  0  0  0  0  0  0  0  0  0  0
    5.4072   -1.5588   -2.5962 H   0  0  0  0  0  0  0  0  0  0  0  0
    5.0833   -3.9115   -1.9202 H   0  0  0  0  0  0  0  0  0  0  0  0
    7.6759   -5.8369   -1.2397 H   0  0  0  0  0  0  0  0  0  0  0  0
    9.5003   -7.3879   -0.6697 H   0  0  0  0  0  0  0  0  0  0  0  0
   10.2695  -10.5370   -2.6496 H   0  0  0  0  0  0  0  0  0  0  0  0
   10.0300  -10.0662   -0.9212 H   0  0  0  0  0  0  0  0  0  0  0  0
   11.1787   -9.1343   -1.9696 H   0  0  0  0  0  0  0  0  0  0  0  0
    8.4427   -9.8532   -4.0526 H   0  0  0  0  0  0  0  0  0  0  0  0
    6.6208   -8.2915   -4.6102 H   0  0  0  0  0  0  0  0  0  0  0  0
   -1.7134   -8.3062   -3.6059 H   0  0  0  0  0  0  0  0  0  0  0  0
   -1.7922  -10.6956   -4.1589 H   0  0  0  0  0  0  0  0  0  0  0  0
    0.7442  -12.3628   -6.3571 H   0  0  0  0  0  0  0  0  0  0  0  0
   -0.4406  -12.6228   -5.0290 H   0  0  0  0  0  0  0  0  0  0  0  0
   -1.0323  -12.2987   -6.7101 H   0  0  0  0  0  0  0  0  0  0  0  0
    1.2193  -10.1051   -7.1866 H   0  0  0  0  0  0  0  0  0  0  0  0
    1.2754   -7.7084   -6.6590 H   0  0  0  0  0  0  0  0  0  0  0  0
   -2.4041   -5.9412   -5.8496 H   0  0  0  0  0  0  0  0  0  0  0  0
   -4.2273   -4.5493   -4.9488 H   0  0  0  0  0  0  0  0  0  0  0  0
   -5.0417   -3.8502   -1.9768 H   0  0  0  0  0  0  0  0  0  0  0  0
   -3.8810   -2.4668   -1.8753 H   0  0  0  0  0  0  0  0  0  0  0  0
   -4.8354   -2.7278   -3.3809 H   0  0  0  0  0  0  0  0  0  0  0  0
   -1.9844   -3.9820   -1.3083 H   0  0  0  0  0  0  0  0  0  0  0  0
   -0.1787   -5.3900   -2.2093 H   0  0  0  0  0  0  0  0  0  0  0  0
    3.9383   -1.9607   -6.9858 H   0  0  0  0  0  0  0  0  0  0  0  0
    5.6618   -2.4612   -8.6817 H   0  0  0  0  0  0  0  0  0  0  0  0
    5.1347   -3.9198  -10.6067 H   0  0  0  0  0  0  0  0  0  0  0  0
    3.6365   -5.5661  -11.6463 H   0  0  0  0  0  0  0  0  0  0  0  0
    2.0350   -5.9137  -10.9200 H   0  0  0  0  0  0  0  0  0  0  0  0
    1.8044   -4.8368  -13.1549 H   0  0  0  0  0  0  0  0  0  0  0  0
    1.1218   -3.7741  -11.8652 H   0  0  0  0  0  0  0  0  0  0  0  0
    2.7433   -3.4000  -12.5773 H   0  0  0  0  0  0  0  0  0  0  0  0
    1.1186   -4.4137   -9.1238 H   0  0  0  0  0  0  0  0  0  0  0  0
   -1.6338    9.0418   -0.6329 H   0  0  0  0  0  0  0  0  0  0  0  0
    0.1446   10.7066   -0.1975 H   0  0  0  0  0  0  0  0  0  0  0  0
    2.3641    9.9857    0.5990 H   0  0  0  0  0  0  0  0  0  0  0  0
    3.3724    6.3576    0.7689 H   0  0  0  0  0  0  0  0  0  0  0  0
    3.9929    8.0076    0.4714 H   0  0  0  0  0  0  0  0  0  0  0  0
    4.4540    7.1240    2.7978 H   0  0  0  0  0  0  0  0  0  0  0  0
    2.6836    7.0919    3.1165 H   0  0  0  0  0  0  0  0  0  0  0  0
    3.5314    8.6775    2.7936 H   0  0  0  0  0  0  0  0  0  0  0  0
    1.0135    5.8894    0.6367 H   0  0  0  0  0  0  0  0  0  0  0  0
   -2.0611   -1.1717   -3.6182 H   0  0  0  0  0  0  0  0  0  0  0  0
   -2.4172    0.4304   -3.0061 H   0  0  0  0  0  0  0  0  0  0  0  0
   -0.0177    0.9773   -2.7208 H   0  0  0  0  0  0  0  0  0  0  0  0
    0.4124   -0.6623   -3.3116 H   0  0  0  0  0  0  0  0  0  0  0  0
   -0.5205   -0.4859   -1.7773 H   0  0  0  0  0  0  0  0  0  0  0  0
   -4.6548    3.1041   -4.0890 H   0  0  0  0  0  0  0  0  0  0  0  0
   -3.9763    1.4814   -4.1758 H   0  0  0  0  0  0  0  0  0  0  0  0
   -3.7472    1.6329   -1.5304 H   0  0  0  0  0  0  0  0  0  0  0  0
   -4.9124    3.0149   -1.7172 H   0  0  0  0  0  0  0  0  0  0  0  0
   -5.3816    1.3850   -2.2678 H   0  0  0  0  0  0  0  0  0  0  0  0
   -3.9968    9.0309    4.4321 H   0  0  0  0  0  0  0  0  0  0  0  0
   -6.3040    9.7790    4.0565 H   0  0  0  0  0  0  0  0  0  0  0  0
   -8.4488    8.6674    1.8169 H   0  0  0  0  0  0  0  0  0  0  0  0
   -7.8894   10.0454    0.7769 H   0  0  0  0  0  0  0  0  0  0  0  0
   -8.1112   10.2900    2.5442 H   0  0  0  0  0  0  0  0  0  0  0  0
   -6.0851    8.3820   -0.0192 H   0  0  0  0  0  0  0  0  0  0  0  0
   -3.7771    7.6405    0.3631 H   0  0  0  0  0  0  0  0  0  0  0  0
    0.0622    7.3063    3.8242 H   0  0  0  0  0  0  0  0  0  0  0  0
    1.7541    8.9332    4.4709 H   0  0  0  0  0  0  0  0  0  0  0  0
    2.4489   11.2385    4.8222 H   0  0  0  0  0  0  0  0  0  0  0  0
    2.3589   11.8025    3.1115 H   0  0  0  0  0  0  0  0  0  0  0  0
    1.3421   12.5874    4.3841 H   0  0  0  0  0  0  0  0  0  0  0  0
   -0.6528   12.1204    2.8809 H   0  0  0  0  0  0  0  0  0  0  0  0
   -2.3924   10.5261    2.2740 H   0  0  0  0  0  0  0  0  0  0  0  0
   -3.7381    1.4622    3.1846 H   0  0  0  0  0  0  0  0  0  0  0  0
   -5.8890    1.1575    2.0369 H   0  0  0  0  0  0  0  0  0  0  0  0
   -8.5481    2.7667    2.3261 H   0  0  0  0  0  0  0  0  0  0  0  0
   -8.3453    0.9731    2.2376 H   0  0  0  0  0  0  0  0  0  0  0  0
   -9.2166    1.7059    3.6326 H   0  0  0  0  0  0  0  0  0  0  0  0
   -7.9411    2.8340    5.4441 H   0  0  0  0  0  0  0  0  0  0  0  0
   -5.7850    3.1482    6.5854 H   0  0  0  0  0  0  0  0  0  0  0  0
   -0.5870    2.7214    5.5729 H   0  0  0  0  0  0  0  0  0  0  0  0
    0.9418    0.8725    6.0114 H   0  0  0  0  0  0  0  0  0  0  0  0
    1.1424   -1.7239    5.8332 H   0  0  0  0  0  0  0  0  0  0  0  0
    0.7967   -1.5724    7.6031 H   0  0  0  0  0  0  0  0  0  0  0  0
   -0.1729   -2.6957    6.5734 H   0  0  0  0  0  0  0  0  0  0  0  0
   -2.3987   -1.7673    6.6396 H   0  0  0  0  0  0  0  0  0  0  0  0
   -3.9477    0.0774    6.2298 H   0  0  0  0  0  0  0  0  0  0  0  0
   -4.9171    5.2590    7.7253 H   0  0  0  0  0  0  0  0  0  0  0  0
   -0.6301    0.9219    9.0301 H   0  0  0  0  0  0  0  0  0  0  0  0
   -1.3068   -2.1319    9.3159 H   0  0  0  0  0  0  0  0  0  0  0  0
   -1.3549   -2.0739   11.1248 H   0  0  0  0  0  0  0  0  0  0  0  0
   -0.0847   -1.1753   10.2419 H   0  0  0  0  0  0  0  0  0  0  0  0
   -5.2581    0.6580   10.8418 H   0  0  0  0  0  0  0  0  0  0  0  0
  1  2  2  3
  2  3  1  0
  3  4  2  0
  3  5  1  0
  5  6  2  0
  6  7  1  0
  6  8  1  0
  8  9  2  0
  9 10  1  0
 10 11  2  0
 11 12  1  0
 12 13  2  3
 13 14  1  0
 14 15  3  0
 13 16  1  0
 16 17  3  0
  1 18  1  0
 18 19  2  0
 19 20  1  0
 20 21  1  0
 21 22  2  0
 22 23  1  0
 23 24  2  0
 24 25  1  0
 24 26  1  0
 26 27  2  0
 20 28  1  0
 28 29  2  0
 29 30  1  0
 30 31  2  0
 31 32  1  0
 31 33  1  0
 33 34  2  0
 19 35  1  0
 35 36  1  0
 36 37  1  0
 37 38  2  0
 38 39  1  0
 39 40  1  0
 40 41  2  0
 41 42  1  0
 42 43  2  0
 43 44  1  0
 43 45  1  0
 45 46  2  0
 39 47  1  0
 47 48  2  0
 48 49  1  0
 49 50  2  0
 50 51  1  0
 50 52  1  0
 52 53  2  0
 38 54  1  0
 54 55  1  0
 37 56  1  0
 56 57  2  0
 57 58  1  0
 58 59  2  0
 59 60  1  0
 60 61  2  0
 61 62  1  0
 62 63  1  0
 63 64  1  0
 62 65  2  0
 57 66  1  0
 66 67  1  0
 67 68  1  0
 68 69  1  0
 69 70  1  0
 70 71  1  0
 71 72  2  0
 72 73  1  0
 73 74  1  0
 71 75  1  0
 75 76  1  0
 76 77  1  0
 77 78  1  0
 78 79  1  0
 79 80  1  0
 80 81  2  0
 81 82  1  0
 82 83  2  0
 83 84  1  0
 84 85  1  0
 85 86  1  0
 84 87  2  0
 79 88  2  0
 88 89  1  0
 89 90  1  0
 90 91  1  0
 91 92  1  0
 92 93  1  0
 93 94  1  0
 94 95  1  0
 95 96  1  0
 96 97  1  0
 97 98  1  0
 95 99  1  0
 99100  1  0
 92101  1  0
101102  1  0
 88103  1  0
103104  2  0
104105  1  0
105106  1  0
106107  2  0
107108  1  0
108109  2  0
109110  1  0
109111  1  0
111112  2  0
105113  1  0
113114  2  0
114115  1  0
115116  2  0
116117  1  0
116118  1  0
118119  2  0
104120  1  0
120121  1  0
121122  1  0
122123  2  0
123124  1  0
124125  1  0
125126  2  0
126127  1  0
127128  2  0
128129  1  0
128130  1  0
130131  2  0
124132  1  0
132133  2  0
133134  1  0
134135  2  0
135136  1  0
135137  1  0
137138  2  0
123139  1  0
139140  1  0
122141  1  0
141142  2  3
142143  1  0
143144  2  0
143145  1  0
145146  2  0
146147  1  0
147148  1  0
147149  2  0
149150  1  0
149151  1  0
151152  2  0
152153  1  0
153154  2  3
154155  1  0
155156  3  0
154157  1  0
157158  3  0
 12  2  1  0
 55 18  1  0
 98 56  1  0
140103  1  0
153142  1  0
 11  5  1  0
 27 21  1  0
 34 28  1  0
 54 35  2  0
 65 58  1  0
 97 66  2  0
112106  1  0
119113  1  0
139120  2  0
152145  1  0
 46 40  1  0
 53 47  1  0
 96 68  2  0
131125  1  0
138132  1  0
 94 69  2  0
 74 70  2  0
 93 75  2  0
 91 76  2  0
 90 78  2  0
 87 80  1  0
  1159  1  0
  8160  1  0
  9161  1  0
 10162  1  0
 22163  1  0
 23164  1  0
 25165  1  0
 25166  1  0
 25167  1  0
 26168  1  0
 27169  1  0
 29170  1  0
 30171  1  0
 32172  1  0
 32173  1  0
 32174  1  0
 33175  1  0
 34176  1  0
 41177  1  0
 42178  1  0
 44179  1  0
 44180  1  0
 44181  1  0
 45182  1  0
 46183  1  0
 48184  1  0
 49185  1  0
 51186  1  0
 51187  1  0
 51188  1  0
 52189  1  0
 53190  1  0
 59191  1  0
 60192  1  0
 61193  1  0
 63194  1  0
 63195  1  0
 64196  1  0
 64197  1  0
 64198  1  0
 65199  1  0
 81200  1  0
 82201  1  0
 83202  1  0
 85203  1  0
 85204  1  0
 86205  1  0
 86206  1  0
 86207  1  0
 87208  1  0
 99209  1  0
 99210  1  0
100211  1  0
100212  1  0
100213  1  0
101214  1  0
101215  1  0
102216  1  0
102217  1  0
102218  1  0
107219  1  0
108220  1  0
110221  1  0
110222  1  0
110223  1  0
111224  1  0
112225  1  0
114226  1  0
115227  1  0
117228  1  0
117229  1  0
117230  1  0
118231  1  0
119232  1  0
126233  1  0
127234  1  0
129235  1  0
129236  1  0
129237  1  0
130238  1  0
131239  1  0
133240  1  0
134241  1  0
136242  1  0
136243  1  0
136244  1  0
137245  1  0
138246  1  0
141247  1  0
146248  1  0
148249  1  0
148250  1  0
148251  1  0
151252  1  0
M  END

