
     RDKit          3D

249274  0  0  0  0  0  0  0  0999 V2000
    0.9699    7.9805    2.1036 C   0  0  0  0  0  0  0  0  0  0  0  0
    0.5433    7.7730    0.8396 C   0  0  0  0  0  0  0  0  0  0  0  0
   -0.3136    6.6577    0.4119 C   0  0  0  0  0  0  0  0  0  0  0  0
   -0.4686    5.5591    1.0072 O   0  0  0  0  0  0  0  0  0  0  0  0
   -0.9546    7.0216   -0.8316 C   0  0  0  0  0  0  0  0  0  0  0  0
   -1.9303    6.3128   -1.5345 C   0  0  0  0  0  0  0  0  0  0  0  0
   -2.3683    5.1029   -1.0988 F   0  0  0  0  0  0  0  0  0  0  0  0
   -2.4813    6.8961   -2.6807 C   0  0  0  0  0  0  0  0  0  0  0  0
   -2.0544    8.1672   -3.0999 C   0  0  0  0  0  0  0  0  0  0  0  0
   -1.0678    8.8633   -2.3806 C   0  0  0  0  0  0  0  0  0  0  0  0
   -0.5031    8.2652   -1.2407 C   0  0  0  0  0  0  0  0  0  0  0  0
    0.5339    8.7642   -0.2839 C   0  0  0  0  0  0  0  0  0  0  0  0
    1.3936    9.7948   -0.4706 C   0  0  0  0  0  0  0  0  0  0  0  0
    1.2988   10.6932   -1.5894 C   0  0  0  0  0  0  0  0  0  0  0  0
    1.2177   11.4391   -2.4747 N   0  0  0  0  0  0  0  0  0  0  0  0
    2.5007   10.0527    0.4149 C   0  0  0  0  0  0  0  0  0  0  0  0
    3.3897   10.2717    1.1214 N   0  0  0  0  0  0  0  0  0  0  0  0
    0.5623    7.0960    3.2034 C   0  0  0  0  0  0  0  0  0  0  0  0
    1.1897    5.8876    3.5681 C   0  0  0  0  0  0  0  0  0  0  0  0
    2.5229    5.5051    3.1527 N   0  0  0  0  0  0  0  0  0  0  0  0
    3.5471    6.5002    2.9635 C   0  0  0  0  0  0  0  0  0  0  0  0
    3.7652    7.4954    3.9312 C   0  0  0  0  0  0  0  0  0  0  0  0
    4.7788    8.4424    3.7539 C   0  0  0  0  0  0  0  0  0  0  0  0
    5.5792    8.4151    2.6018 C   0  0  0  0  0  0  0  0  0  0  0  0
    6.6847    9.4154    2.4236 C   0  0  0  0  0  0  0  0  0  0  0  0
    5.3727    7.4137    1.6416 C   0  0  0  0  0  0  0  0  0  0  0  0
    4.3622    6.4642    1.8208 C   0  0  0  0  0  0  0  0  0  0  0  0
    2.8934    4.1221    3.0404 C   0  0  0  0  0  0  0  0  0  0  0  0
    2.2795    3.2974    2.0862 C   0  0  0  0  0  0  0  0  0  0  0  0
    2.6078    1.9399    2.0151 C   0  0  0  0  0  0  0  0  0  0  0  0
    3.5555    1.3942    2.8967 C   0  0  0  0  0  0  0  0  0  0  0  0
    3.9147   -0.0588    2.8149 C   0  0  0  0  0  0  0  0  0  0  0  0
    4.1961    2.2315    3.8237 C   0  0  0  0  0  0  0  0  0  0  0  0
    3.8679    3.5867    3.8958 C   0  0  0  0  0  0  0  0  0  0  0  0
    0.2983    5.0675    4.2871 C   0  0  0  0  0  0  0  0  0  0  0  0
    0.2663    3.4308    4.6451 S   0  0  0  0  0  0  0  0  0  0  0  0
   -1.3880    3.3658    5.0279 C   0  0  0  0  0  0  0  0  0  0  0  0
   -1.9359    4.6679    4.9051 C   0  0  0  0  0  0  0  0  0  0  0  0
   -3.3366    5.0224    5.0791 N   0  0  0  0  0  0  0  0  0  0  0  0
   -4.3135    4.0505    5.4694 C   0  0  0  0  0  0  0  0  0  0  0  0
   -5.1964    3.5178    4.5201 C   0  0  0  0  0  0  0  0  0  0  0  0
   -6.1296    2.5493    4.8983 C   0  0  0  0  0  0  0  0  0  0  0  0
   -6.2128    2.1296    6.2349 C   0  0  0  0  0  0  0  0  0  0  0  0
   -7.2061    1.0824    6.6372 C   0  0  0  0  0  0  0  0  0  0  0  0
   -5.3866    2.7309    7.1966 C   0  0  0  0  0  0  0  0  0  0  0  0
   -4.4288    3.6727    6.8126 C   0  0  0  0  0  0  0  0  0  0  0  0
   -3.7297    6.3983    5.2101 C   0  0  0  0  0  0  0  0  0  0  0  0
   -4.5899    6.9822    4.2695 C   0  0  0  0  0  0  0  0  0  0  0  0
   -4.9482    8.3296    4.3819 C   0  0  0  0  0  0  0  0  0  0  0  0
   -4.4494    9.1081    5.4390 C   0  0  0  0  0  0  0  0  0  0  0  0
   -4.8572   10.5477    5.5678 C   0  0  0  0  0  0  0  0  0  0  0  0
   -3.6174    8.5145    6.3995 C   0  0  0  0  0  0  0  0  0  0  0  0
   -3.2629    7.1654    6.2881 C   0  0  0  0  0  0  0  0  0  0  0  0
   -0.9512    5.5780    4.4817 C   0  0  0  0  0  0  0  0  0  0  0  0
   -1.0362    7.0920    3.7685 S   0  0  0  0  0  0  0  0  0  0  0  0
   -2.1278    2.1169    4.8038 C   0  0  0  0  0  0  0  0  0  0  0  0
   -2.2439    1.0236    5.6832 C   0  0  0  0  0  0  0  0  0  0  0  0
   -1.6061    0.9469    7.0037 C   0  0  0  0  0  0  0  0  0  0  0  0
   -0.2127    0.8280    7.1082 C   0  0  0  0  0  0  0  0  0  0  0  0
    0.3967    0.8031    8.3655 C   0  0  0  0  0  0  0  0  0  0  0  0
   -0.3771    0.9251    9.5244 C   0  0  0  0  0  0  0  0  0  0  0  0
   -1.7704    1.0650    9.4313 C   0  0  0  0  0  0  0  0  0  0  0  0
   -2.6059    1.2319   10.6716 C   0  0  0  0  0  0  0  0  0  0  0  0
   -3.1234   -0.1165   11.1673 C   0  0  0  0  0  0  0  0  0  0  0  0
   -2.3831    1.0337    8.1681 C   0  0  0  0  0  0  0  0  0  0  0  0
   -2.9222   -0.0364    5.0717 C   0  0  0  0  0  0  0  0  0  0  0  0
   -3.1994   -1.6603    5.5147 S   0  0  0  0  0  0  0  0  0  0  0  0
   -3.8469   -2.0107    3.9785 C   0  0  0  0  0  0  0  0  0  0  0  0
   -3.9879   -3.1285    3.2013 C   0  0  0  0  0  0  0  0  0  0  0  0
   -3.7704   -4.4793    3.5051 C   0  0  0  0  0  0  0  0  0  0  0  0
   -3.6847   -5.4204    2.4358 C   0  0  0  0  0  0  0  0  0  0  0  0
   -3.4383   -6.7117    2.7692 N   0  0  0  0  0  0  0  0  0  0  0  0
   -3.3350   -6.5579    4.4154 S   0  0  0  0  0  0  0  0  0  0  0  0
   -3.5802   -4.9566    4.7604 N   0  0  0  0  0  0  0  0  0  0  0  0
   -3.8582   -4.9678    1.1239 C   0  0  0  0  0  0  0  0  0  0  0  0
   -3.7560   -5.6033   -0.0810 C   0  0  0  0  0  0  0  0  0  0  0  0
   -2.9356   -6.9768   -0.6451 S   0  0  0  0  0  0  0  0  0  0  0  0
   -2.7942   -6.3011   -2.2046 C   0  0  0  0  0  0  0  0  0  0  0  0
   -1.9188   -6.5958   -3.2528 C   0  0  0  0  0  0  0  0  0  0  0  0
   -1.1546   -7.8516   -3.3823 C   0  0  0  0  0  0  0  0  0  0  0  0
   -1.3097   -8.6274   -4.5399 C   0  0  0  0  0  0  0  0  0  0  0  0
   -0.5562   -9.7883   -4.7206 C   0  0  0  0  0  0  0  0  0  0  0  0
    0.3556  -10.1899   -3.7435 C   0  0  0  0  0  0  0  0  0  0  0  0
    0.5184   -9.4277   -2.5736 C   0  0  0  0  0  0  0  0  0  0  0  0
    1.5541   -9.8261   -1.5597 C   0  0  0  0  0  0  0  0  0  0  0  0
    2.9368   -9.3652   -2.0034 C   0  0  0  0  0  0  0  0  0  0  0  0
   -0.2336   -8.2506   -2.4009 C   0  0  0  0  0  0  0  0  0  0  0  0
   -1.7378   -5.4922   -4.1051 C   0  0  0  0  0  0  0  0  0  0  0  0
   -2.6671   -4.1876   -3.5262 S   0  0  0  0  0  0  0  0  0  0  0  0
   -3.3446   -5.0391   -2.2481 C   0  0  0  0  0  0  0  0  0  0  0  0
   -3.9254   -4.6546   -1.0417 C   0  0  0  0  0  0  0  0  0  0  0  0
   -4.1957   -3.4241   -0.5336 N   0  0  0  0  0  0  0  0  0  0  0  0
   -4.0819   -3.6184    0.8187 C   0  0  0  0  0  0  0  0  0  0  0  0
   -4.0837   -2.6635    1.8744 C   0  0  0  0  0  0  0  0  0  0  0  0
   -3.9137   -1.2992    1.8276 N   0  0  0  0  0  0  0  0  0  0  0  0
   -3.8006   -0.9438    3.1363 C   0  0  0  0  0  0  0  0  0  0  0  0
   -3.2725    0.1815    3.7623 C   0  0  0  0  0  0  0  0  0  0  0  0
   -2.7547    1.6973    3.2786 S   0  0  0  0  0  0  0  0  0  0  0  0
   -3.4087   -0.4877    0.7109 C   0  0  0  0  0  0  0  0  0  0  0  0
   -4.3603    0.6597    0.3707 C   0  0  0  0  0  0  0  0  0  0  0  0
   -5.2614   -2.5905   -1.1110 C   0  0  0  0  0  0  0  0  0  0  0  0
   -4.8455   -1.9088   -2.4094 C   0  0  0  0  0  0  0  0  0  0  0  0
   -0.4877   -5.2663   -4.8413 C   0  0  0  0  0  0  0  0  0  0  0  0
   -0.3215   -4.8184   -6.1689 C   0  0  0  0  0  0  0  0  0  0  0  0
   -1.4040   -4.4548   -7.0587 N   0  0  0  0  0  0  0  0  0  0  0  0
   -1.2984   -3.2789   -7.8824 C   0  0  0  0  0  0  0  0  0  0  0  0
   -0.9552   -2.0410   -7.3139 C   0  0  0  0  0  0  0  0  0  0  0  0
   -0.7867   -0.9157   -8.1225 C   0  0  0  0  0  0  0  0  0  0  0  0
   -0.9647   -1.0118   -9.5104 C   0  0  0  0  0  0  0  0  0  0  0  0
   -0.7962    0.1989  -10.3786 C   0  0  0  0  0  0  0  0  0  0  0  0
   -1.3525   -2.2357  -10.0757 C   0  0  0  0  0  0  0  0  0  0  0  0
   -1.5167   -3.3636   -9.2671 C   0  0  0  0  0  0  0  0  0  0  0  0
   -2.6545   -5.1629   -7.0359 C   0  0  0  0  0  0  0  0  0  0  0  0
   -2.6917   -6.5475   -7.2503 C   0  0  0  0  0  0  0  0  0  0  0  0
   -3.9047   -7.2387   -7.1884 C   0  0  0  0  0  0  0  0  0  0  0  0
   -5.0991   -6.5487   -6.9282 C   0  0  0  0  0  0  0  0  0  0  0  0
   -6.3942   -7.2912   -6.7844 C   0  0  0  0  0  0  0  0  0  0  0  0
   -5.0624   -5.1606   -6.7184 C   0  0  0  0  0  0  0  0  0  0  0  0
   -3.8523   -4.4733   -6.7906 C   0  0  0  0  0  0  0  0  0  0  0  0
    1.0314   -4.5127   -6.4109 C   0  0  0  0  0  0  0  0  0  0  0  0
    1.8412   -3.7058   -7.6438 S   0  0  0  0  0  0  0  0  0  0  0  0
    3.2542   -3.4185   -6.7422 C   0  0  0  0  0  0  0  0  0  0  0  0
    3.0743   -3.9271   -5.4382 C   0  0  0  0  0  0  0  0  0  0  0  0
    3.7632   -3.4185   -4.2738 N   0  0  0  0  0  0  0  0  0  0  0  0
    4.2341   -4.3264   -3.2442 C   0  0  0  0  0  0  0  0  0  0  0  0
    4.3803   -3.8991   -1.9067 C   0  0  0  0  0  0  0  0  0  0  0  0
    4.8494   -4.7752   -0.9238 C   0  0  0  0  0  0  0  0  0  0  0  0
    5.1630   -6.1016   -1.2473 C   0  0  0  0  0  0  0  0  0  0  0  0
    5.6888   -7.0278   -0.1934 C   0  0  0  0  0  0  0  0  0  0  0  0
    5.0182   -6.5362   -2.5713 C   0  0  0  0  0  0  0  0  0  0  0  0
    4.5374   -5.6664   -3.5537 C   0  0  0  0  0  0  0  0  0  0  0  0
    3.7870   -1.9855   -4.0728 C   0  0  0  0  0  0  0  0  0  0  0  0
    2.6318   -1.2157   -4.3107 C   0  0  0  0  0  0  0  0  0  0  0  0
    2.6558    0.1689   -4.1435 C   0  0  0  0  0  0  0  0  0  0  0  0
    3.8384    0.8133   -3.7506 C   0  0  0  0  0  0  0  0  0  0  0  0
    3.8480    2.2950   -3.5224 C   0  0  0  0  0  0  0  0  0  0  0  0
    4.9910    0.0513   -3.5021 C   0  0  0  0  0  0  0  0  0  0  0  0
    4.9667   -1.3366   -3.6652 C   0  0  0  0  0  0  0  0  0  0  0  0
    1.8538   -4.5945   -5.3286 C   0  0  0  0  0  0  0  0  0  0  0  0
    0.9857   -5.1196   -4.0081 S   0  0  0  0  0  0  0  0  0  0  0  0
    4.2529   -2.4112   -7.1483 C   0  0  0  0  0  0  0  0  0  0  0  0
    5.5636   -2.4672   -6.8347 C   0  0  0  0  0  0  0  0  0  0  0  0
    6.2222   -3.6082   -6.2015 C   0  0  0  0  0  0  0  0  0  0  0  0
    5.8466   -4.8066   -6.2847 O   0  0  0  0  0  0  0  0  0  0  0  0
    7.4476   -3.1560   -5.5723 C   0  0  0  0  0  0  0  0  0  0  0  0
    7.6489   -1.8211   -5.8890 C   0  0  0  0  0  0  0  0  0  0  0  0
    8.7713   -1.1500   -5.3754 C   0  0  0  0  0  0  0  0  0  0  0  0
    9.6424   -1.8300   -4.5169 C   0  0  0  0  0  0  0  0  0  0  0  0
    9.4093   -3.1692   -4.1715 C   0  0  0  0  0  0  0  0  0  0  0  0
   10.6043   -4.0200   -2.9454 Br  0  0  0  0  0  0  0  0  0  0  0  0
    8.3048   -3.8555   -4.7145 C   0  0  0  0  0  0  0  0  0  0  0  0
    7.9892   -5.5323   -4.2800 Cl  0  0  0  0  0  0  0  0  0  0  0  0
    6.5254   -1.3226   -6.7483 C   0  0  0  0  0  0  0  0  0  0  0  0
    6.3955   -0.0880   -7.3030 C   0  0  0  0  0  0  0  0  0  0  0  0
    7.2803    1.0084   -7.0005 C   0  0  0  0  0  0  0  0  0  0  0  0
    7.9982    1.8848   -6.7649 N   0  0  0  0  0  0  0  0  0  0  0  0
    5.3886    0.2205   -8.2821 C   0  0  0  0  0  0  0  0  0  0  0  0
    4.5881    0.4798   -9.0766 N   0  0  0  0  0  0  0  0  0  0  0  0
    1.4427    8.9044    2.3896 H   0  0  0  0  0  0  0  0  0  0  0  0
   -3.2537    6.3758   -3.2314 H   0  0  0  0  0  0  0  0  0  0  0  0
   -2.4977    8.6194   -3.9771 H   0  0  0  0  0  0  0  0  0  0  0  0
   -0.8009    9.8497   -2.7099 H   0  0  0  0  0  0  0  0  0  0  0  0
    3.1618    7.5243    4.8283 H   0  0  0  0  0  0  0  0  0  0  0  0
    4.9383    9.1955    4.5151 H   0  0  0  0  0  0  0  0  0  0  0  0
    6.8467    9.6295    1.3458 H   0  0  0  0  0  0  0  0  0  0  0  0
    7.6219    9.0092    2.8569 H   0  0  0  0  0  0  0  0  0  0  0  0
    6.4341   10.3724    2.9291 H   0  0  0  0  0  0  0  0  0  0  0  0
    5.9909    7.3698    0.7524 H   0  0  0  0  0  0  0  0  0  0  0  0
    4.2102    5.7028    1.0649 H   0  0  0  0  0  0  0  0  0  0  0  0
    1.5379    3.7044    1.4096 H   0  0  0  0  0  0  0  0  0  0  0  0
    2.1210    1.3130    1.2787 H   0  0  0  0  0  0  0  0  0  0  0  0
    4.7170   -0.1991    2.0610 H   0  0  0  0  0  0  0  0  0  0  0  0
    3.0308   -0.6639    2.5216 H   0  0  0  0  0  0  0  0  0  0  0  0
    4.2732   -0.4314    3.7985 H   0  0  0  0  0  0  0  0  0  0  0  0
    4.9442    1.8310    4.4970 H   0  0  0  0  0  0  0  0  0  0  0  0
    4.3565    4.2167    4.6286 H   0  0  0  0  0  0  0  0  0  0  0  0
   -5.1347    3.8289    3.4850 H   0  0  0  0  0  0  0  0  0  0  0  0
   -6.7834    2.1207    4.1482 H   0  0  0  0  0  0  0  0  0  0  0  0
   -7.2737    0.2995    5.8525 H   0  0  0  0  0  0  0  0  0  0  0  0
   -8.2019    1.5496    6.7806 H   0  0  0  0  0  0  0  0  0  0  0  0
   -6.8957    0.5895    7.5839 H   0  0  0  0  0  0  0  0  0  0  0  0
   -5.4699    2.4534    8.2412 H   0  0  0  0  0  0  0  0  0  0  0  0
   -3.7720    4.1032    7.5583 H   0  0  0  0  0  0  0  0  0  0  0  0
   -4.9664    6.3986    3.4396 H   0  0  0  0  0  0  0  0  0  0  0  0
   -5.6102    8.7676    3.6457 H   0  0  0  0  0  0  0  0  0  0  0  0
   -5.8713   10.6068    6.0154 H   0  0  0  0  0  0  0  0  0  0  0  0
   -4.1467   11.1067    6.2125 H   0  0  0  0  0  0  0  0  0  0  0  0
   -4.8729   11.0311    4.5691 H   0  0  0  0  0  0  0  0  0  0  0  0
   -3.2396    9.0940    7.2343 H   0  0  0  0  0  0  0  0  0  0  0  0
   -2.6102    6.7236    7.0302 H   0  0  0  0  0  0  0  0  0  0  0  0
    0.3985    0.7403    6.2180 H   0  0  0  0  0  0  0  0  0  0  0  0
    1.4715    0.6957    8.4432 H   0  0  0  0  0  0  0  0  0  0  0  0
    0.1112    0.9186   10.4934 H   0  0  0  0  0  0  0  0  0  0  0  0
   -2.0084    1.7137   11.4741 H   0  0  0  0  0  0  0  0  0  0  0  0
   -3.4695    1.8989   10.4585 H   0  0  0  0  0  0  0  0  0  0  0  0
   -3.7704   -0.5870   10.3979 H   0  0  0  0  0  0  0  0  0  0  0  0
   -2.2732   -0.7912   11.4000 H   0  0  0  0  0  0  0  0  0  0  0  0
   -3.7216    0.0379   12.0904 H   0  0  0  0  0  0  0  0  0  0  0  0
   -3.4589    1.0896    8.0913 H   0  0  0  0  0  0  0  0  0  0  0  0
   -2.0199   -8.3344   -5.3002 H   0  0  0  0  0  0  0  0  0  0  0  0
   -0.6760  -10.3729   -5.6223 H   0  0  0  0  0  0  0  0  0  0  0  0
    0.9449  -11.0847   -3.9069 H   0  0  0  0  0  0  0  0  0  0  0  0
    1.3185   -9.3763   -0.5697 H   0  0  0  0  0  0  0  0  0  0  0  0
    1.5548  -10.9318   -1.4346 H   0  0  0  0  0  0  0  0  0  0  0  0
    3.2374   -9.8888   -2.9358 H   0  0  0  0  0  0  0  0  0  0  0  0
    3.6790   -9.5883   -1.2115 H   0  0  0  0  0  0  0  0  0  0  0  0
    2.9248   -8.2703   -2.1869 H   0  0  0  0  0  0  0  0  0  0  0  0
   -0.0803   -7.6385   -1.5196 H   0  0  0  0  0  0  0  0  0  0  0  0
   -3.2222   -1.1049   -0.1812 H   0  0  0  0  0  0  0  0  0  0  0  0
   -2.4174   -0.0691    0.9823 H   0  0  0  0  0  0  0  0  0  0  0  0
   -4.5978    1.2657    1.2662 H   0  0  0  0  0  0  0  0  0  0  0  0
   -5.3190    0.2873   -0.0383 H   0  0  0  0  0  0  0  0  0  0  0  0
   -3.8894    1.3164   -0.3903 H   0  0  0  0  0  0  0  0  0  0  0  0
   -5.5951   -1.8344   -0.3789 H   0  0  0  0  0  0  0  0  0  0  0  0
   -6.1584   -3.2199   -1.3062 H   0  0  0  0  0  0  0  0  0  0  0  0
   -4.9739   -2.6087   -3.2597 H   0  0  0  0  0  0  0  0  0  0  0  0
   -5.4993   -1.0309   -2.5932 H   0  0  0  0  0  0  0  0  0  0  0  0
   -3.7918   -1.5670   -2.3654 H   0  0  0  0  0  0  0  0  0  0  0  0
   -0.7977   -1.9580   -6.2446 H   0  0  0  0  0  0  0  0  0  0  0  0
   -0.5053    0.0254   -7.6678 H   0  0  0  0  0  0  0  0  0  0  0  0
   -1.7870    0.6682  -10.5499 H   0  0  0  0  0  0  0  0  0  0  0  0
   -0.1233    0.9409   -9.8972 H   0  0  0  0  0  0  0  0  0  0  0  0
   -0.3514   -0.0838  -11.3573 H   0  0  0  0  0  0  0  0  0  0  0  0
   -1.5147   -2.3213  -11.1437 H   0  0  0  0  0  0  0  0  0  0  0  0
   -1.7905   -4.3108   -9.7158 H   0  0  0  0  0  0  0  0  0  0  0  0
   -1.7765   -7.0893   -7.4555 H   0  0  0  0  0  0  0  0  0  0  0  0
   -3.9140   -8.3124   -7.3346 H   0  0  0  0  0  0  0  0  0  0  0  0
   -6.5616   -7.5353   -5.7141 H   0  0  0  0  0  0  0  0  0  0  0  0
   -6.3755   -8.2329   -7.3735 H   0  0  0  0  0  0  0  0  0  0  0  0
   -7.2378   -6.6688   -7.1521 H   0  0  0  0  0  0  0  0  0  0  0  0
   -5.9688   -4.6145   -6.4903 H   0  0  0  0  0  0  0  0  0  0  0  0
   -3.8351   -3.4035   -6.6200 H   0  0  0  0  0  0  0  0  0  0  0  0
    4.1259   -2.8927   -1.6087 H   0  0  0  0  0  0  0  0  0  0  0  0
    4.9628   -4.4206    0.0936 H   0  0  0  0  0  0  0  0  0  0  0  0
    5.5152   -8.0900   -0.4707 H   0  0  0  0  0  0  0  0  0  0  0  0
    5.1812   -6.8385    0.7766 H   0  0  0  0  0  0  0  0  0  0  0  0
    6.7795   -6.8651   -0.0724 H   0  0  0  0  0  0  0  0  0  0  0  0
    5.2660   -7.5546   -2.8447 H   0  0  0  0  0  0  0  0  0  0  0  0
    4.4119   -6.0436   -4.5593 H   0  0  0  0  0  0  0  0  0  0  0  0
    1.7059   -1.6886   -4.6148 H   0  0  0  0  0  0  0  0  0  0  0  0
    1.7529    0.7402   -4.3209 H   0  0  0  0  0  0  0  0  0  0  0  0
    3.5982    2.5075   -2.4613 H   0  0  0  0  0  0  0  0  0  0  0  0
    3.0994    2.7964   -4.1737 H   0  0  0  0  0  0  0  0  0  0  0  0
    4.8463    2.7215   -3.7538 H   0  0  0  0  0  0  0  0  0  0  0  0
    5.9052    0.5282   -3.1821 H   0  0  0  0  0  0  0  0  0  0  0  0
    5.8643   -1.9117   -3.4743 H   0  0  0  0  0  0  0  0  0  0  0  0
    3.8258   -1.5375   -7.5971 H   0  0  0  0  0  0  0  0  0  0  0  0
    8.9960   -0.1287   -5.6022 H   0  0  0  0  0  0  0  0  0  0  0  0
   10.5027   -1.3082   -4.1140 H   0  0  0  0  0  0  0  0  0  0  0  0
  1  2  2  3
  2  3  1  0
  3  4  2  0
  3  5  1  0
  5  6  2  0
  6  7  1  0
  6  8  1  0
  8  9  2  0
  9 10  1  0
 10 11  2  0
 11 12  1  0
 12 13  2  3
 13 14  1  0
 14 15  3  0
 13 16  1  0
 16 17  3  0
  1 18  1  0
 18 19  2  0
 19 20  1  0
 20 21  1  0
 21 22  2  0
 22 23  1  0
 23 24  2  0
 24 25  1  0
 24 26  1  0
 26 27  2  0
 20 28  1  0
 28 29  2  0
 29 30  1  0
 30 31  2  0
 31 32  1  0
 31 33  1  0
 33 34  2  0
 19 35  1  0
 35 36  1  0
 36 37  1  0
 37 38  2  0
 38 39  1  0
 39 40  1  0
 40 41  2  0
 41 42  1  0
 42 43  2  0
 43 44  1  0
 43 45  1  0
 45 46  2  0
 39 47  1  0
 47 48  2  0
 48 49  1  0
 49 50  2  0
 50 51  1  0
 50 52  1  0
 52 53  2  0
 38 54  1  0
 54 55  1  0
 37 56  1  0
 56 57  2  0
 57 58  1  0
 58 59  2  0
 59 60  1  0
 60 61  2  0
 61 62  1  0
 62 63  1  0
 63 64  1  0
 62 65  2  0
 57 66  1  0
 66 67  1  0
 67 68  1  0
 68 69  1  0
 69 70  1  0
 70 71  1  0
 71 72  2  0
 72 73  1  0
 73 74  1  0
 71 75  1  0
 75 76  1  0
 76 77  1  0
 77 78  1  0
 78 79  1  0
 79 80  1  0
 80 81  2  0
 81 82  1  0
 82 83  2  0
 83 84  1  0
 84 85  1  0
 85 86  1  0
 84 87  2  0
 79 88  2  0
 88 89  1  0
 89 90  1  0
 90 91  1  0
 91 92  1  0
 92 93  1  0
 93 94  1  0
 94 95  1  0
 95 96  1  0
 96 97  1  0
 97 98  1  0
 95 99  1  0
 99100  1  0
 92101  1  0
101102  1  0
 88103  1  0
103104  2  0
104105  1  0
105106  1  0
106107  2  0
107108  1  0
108109  2  0
109110  1  0
109111  1  0
111112  2  0
105113  1  0
113114  2  0
114115  1  0
115116  2  0
116117  1  0
116118  1  0
118119  2  0
104120  1  0
120121  1  0
121122  1  0
122123  2  0
123124  1  0
124125  1  0
125126  2  0
126127  1  0
127128  2  0
128129  1  0
128130  1  0
130131  2  0
124132  1  0
132133  2  0
133134  1  0
134135  2  0
135136  1  0
135137  1  0
137138  2  0
123139  1  0
139140  1  0
122141  1  0
141142  2  3
142143  1  0
143144  2  0
143145  1  0
145146  2  0
146147  1  0
147148  2  0
148149  1  0
149150  1  0
149151  2  0
151152  1  0
146153  1  0
153154  2  3
154155  1  0
155156  3  0
154157  1  0
157158  3  0
 12  2  1  0
 55 18  1  0
 98 56  1  0
140103  1  0
153142  1  0
 11  5  1  0
 27 21  1  0
 34 28  1  0
 54 35  2  0
 65 58  1  0
 97 66  2  0
112106  1  0
119113  1  0
139120  2  0
151145  1  0
 46 40  1  0
 53 47  1  0
 96 68  2  0
131125  1  0
138132  1  0
 94 69  2  0
 74 70  2  0
 93 75  2  0
 91 76  2  0
 90 78  2  0
 87 80  1  0
  1159  1  0
  8160  1  0
  9161  1  0
 10162  1  0
 22163  1  0
 23164  1  0
 25165  1  0
 25166  1  0
 25167  1  0
 26168  1  0
 27169  1  0
 29170  1  0
 30171  1  0
 32172  1  0
 32173  1  0
 32174  1  0
 33175  1  0
 34176  1  0
 41177  1  0
 42178  1  0
 44179  1  0
 44180  1  0
 44181  1  0
 45182  1  0
 46183  1  0
 48184  1  0
 49185  1  0
 51186  1  0
 51187  1  0
 51188  1  0
 52189  1  0
 53190  1  0
 59191  1  0
 60192  1  0
 61193  1  0
 63194  1  0
 63195  1  0
 64196  1  0
 64197  1  0
 64198  1  0
 65199  1  0
 81200  1  0
 82201  1  0
 83202  1  0
 85203  1  0
 85204  1  0
 86205  1  0
 86206  1  0
 86207  1  0
 87208  1  0
 99209  1  0
 99210  1  0
100211  1  0
100212  1  0
100213  1  0
101214  1  0
101215  1  0
102216  1  0
102217  1  0
102218  1  0
107219  1  0
108220  1  0
110221  1  0
110222  1  0
110223  1  0
111224  1  0
112225  1  0
114226  1  0
115227  1  0
117228  1  0
117229  1  0
117230  1  0
118231  1  0
119232  1  0
126233  1  0
127234  1  0
129235  1  0
129236  1  0
129237  1  0
130238  1  0
131239  1  0
133240  1  0
134241  1  0
136242  1  0
136243  1  0
136244  1  0
137245  1  0
138246  1  0
141247  1  0
147248  1  0
148249  1  0
M  END

