
     RDKit          3D

216238  0  0  0  0  0  0  0  0999 V2000
    3.1854   -2.5958    8.4512 C   0  0  0  0  0  0  0  0  0  0  0  0
    3.5424   -1.9172    9.5565 C   0  0  0  0  0  0  0  0  0  0  0  0
    3.0262   -0.5937    9.9327 C   0  0  0  0  0  0  0  0  0  0  0  0
    2.1800    0.0920    9.2959 O   0  0  0  0  0  0  0  0  0  0  0  0
    3.7589   -0.1278   11.0895 C   0  0  0  0  0  0  0  0  0  0  0  0
    3.5533    1.0457   11.8188 C   0  0  0  0  0  0  0  0  0  0  0  0
    2.6017    1.9414   11.4563 F   0  0  0  0  0  0  0  0  0  0  0  0
    4.3395    1.2713   12.9580 C   0  0  0  0  0  0  0  0  0  0  0  0
    5.2832    0.3128   13.3594 C   0  0  0  0  0  0  0  0  0  0  0  0
    5.4727   -0.8617   12.6135 C   0  0  0  0  0  0  0  0  0  0  0  0
    4.7154   -1.0639   11.4464 C   0  0  0  0  0  0  0  0  0  0  0  0
    4.6599   -2.2273   10.5098 C   0  0  0  0  0  0  0  0  0  0  0  0
    5.4451   -3.3400   10.5480 C   0  0  0  0  0  0  0  0  0  0  0  0
    5.1696   -4.5197    9.7738 C   0  0  0  0  0  0  0  0  0  0  0  0
    4.9581   -5.4810    9.1635 N   0  0  0  0  0  0  0  0  0  0  0  0
    6.6252   -3.4261   11.3647 C   0  0  0  0  0  0  0  0  0  0  0  0
    7.5811   -3.5054   12.0145 N   0  0  0  0  0  0  0  0  0  0  0  0
    1.9534   -2.3399    7.6789 C   0  0  0  0  0  0  0  0  0  0  0  0
    1.8458   -2.4312    6.2828 C   0  0  0  0  0  0  0  0  0  0  0  0
    2.9671   -2.4918    5.3871 N   0  0  0  0  0  0  0  0  0  0  0  0
    3.5666   -3.7794    5.1672 C   0  0  0  0  0  0  0  0  0  0  0  0
    4.8548   -4.0570    5.6475 C   0  0  0  0  0  0  0  0  0  0  0  0
    5.4097   -5.3305    5.4781 C   0  0  0  0  0  0  0  0  0  0  0  0
    4.6821   -6.3355    4.8144 C   0  0  0  0  0  0  0  0  0  0  0  0
    5.2716   -7.7062    4.6694 C   0  0  0  0  0  0  0  0  0  0  0  0
    3.4036   -6.0476    4.3179 C   0  0  0  0  0  0  0  0  0  0  0  0
    2.8445   -4.7813    4.5021 C   0  0  0  0  0  0  0  0  0  0  0  0
    3.4746   -1.2870    4.7471 C   0  0  0  0  0  0  0  0  0  0  0  0
    4.5781   -1.3375    3.8642 C   0  0  0  0  0  0  0  0  0  0  0  0
    5.0542   -0.1744    3.2457 C   0  0  0  0  0  0  0  0  0  0  0  0
    4.4510    1.0638    3.4972 C   0  0  0  0  0  0  0  0  0  0  0  0
    4.9555    2.2970    2.8158 C   0  0  0  0  0  0  0  0  0  0  0  0
    3.3565    1.1280    4.3662 C   0  0  0  0  0  0  0  0  0  0  0  0
    2.8661   -0.0293    4.9772 C   0  0  0  0  0  0  0  0  0  0  0  0
    0.5266   -2.2962    5.8700 C   0  0  0  0  0  0  0  0  0  0  0  0
   -0.2604   -2.2932    4.4011 S   0  0  0  0  0  0  0  0  0  0  0  0
   -1.8297   -1.9984    5.0366 C   0  0  0  0  0  0  0  0  0  0  0  0
   -1.6965   -1.9014    6.4483 C   0  0  0  0  0  0  0  0  0  0  0  0
   -2.7396   -1.6377    7.3984 N   0  0  0  0  0  0  0  0  0  0  0  0
   -3.5097   -2.7515    7.9373 C   0  0  0  0  0  0  0  0  0  0  0  0
   -4.6716   -2.5158    8.7006 C   0  0  0  0  0  0  0  0  0  0  0  0
   -5.4135   -3.5789    9.2262 C   0  0  0  0  0  0  0  0  0  0  0  0
   -4.9974   -4.8982    9.0149 C   0  0  0  0  0  0  0  0  0  0  0  0
   -5.7608   -6.0441    9.5990 C   0  0  0  0  0  0  0  0  0  0  0  0
   -3.8365   -5.1468    8.2720 C   0  0  0  0  0  0  0  0  0  0  0  0
   -3.1056   -4.0863    7.7281 C   0  0  0  0  0  0  0  0  0  0  0  0
   -2.6636   -0.3675    8.0957 C   0  0  0  0  0  0  0  0  0  0  0  0
   -2.4639    0.8208    7.3736 C   0  0  0  0  0  0  0  0  0  0  0  0
   -2.3891    2.0506    8.0335 C   0  0  0  0  0  0  0  0  0  0  0  0
   -2.4761    2.1151    9.4285 C   0  0  0  0  0  0  0  0  0  0  0  0
   -2.3572    3.4322   10.1378 C   0  0  0  0  0  0  0  0  0  0  0  0
   -2.5962    0.9251   10.1638 C   0  0  0  0  0  0  0  0  0  0  0  0
   -2.6824   -0.3056    9.5062 C   0  0  0  0  0  0  0  0  0  0  0  0
   -0.3746   -2.0914    6.8563 C   0  0  0  0  0  0  0  0  0  0  0  0
    0.3958   -2.1210    8.3511 S   0  0  0  0  0  0  0  0  0  0  0  0
   -2.9847   -1.7046    4.1377 C   0  0  0  0  0  0  0  0  0  0  0  0
   -3.9434   -0.6801    4.3331 C   0  0  0  0  0  0  0  0  0  0  0  0
   -4.9447   -0.7166    5.4148 C   0  0  0  0  0  0  0  0  0  0  0  0
   -5.6822   -1.8969    5.6313 C   0  0  0  0  0  0  0  0  0  0  0  0
   -6.7986   -1.8900    6.4690 C   0  0  0  0  0  0  0  0  0  0  0  0
   -7.1720   -0.7159    7.1286 C   0  0  0  0  0  0  0  0  0  0  0  0
   -6.4385    0.4678    6.9380 C   0  0  0  0  0  0  0  0  0  0  0  0
   -6.8758    1.7432    7.6041 C   0  0  0  0  0  0  0  0  0  0  0  0
   -7.9616    2.4317    6.7772 C   0  0  0  0  0  0  0  0  0  0  0  0
   -5.3478    0.4713    6.0526 C   0  0  0  0  0  0  0  0  0  0  0  0
   -4.3115   -0.0839    3.1216 C   0  0  0  0  0  0  0  0  0  0  0  0
   -4.5782    1.5711    2.8254 S   0  0  0  0  0  0  0  0  0  0  0  0
   -4.1766    1.4178    1.1863 C   0  0  0  0  0  0  0  0  0  0  0  0
   -3.5173    2.2363    0.2975 C   0  0  0  0  0  0  0  0  0  0  0  0
   -3.1618    3.5810    0.4597 C   0  0  0  0  0  0  0  0  0  0  0  0
   -2.1546    4.1364   -0.3738 C   0  0  0  0  0  0  0  0  0  0  0  0
   -1.8157    5.4319   -0.1570 N   0  0  0  0  0  0  0  0  0  0  0  0
   -2.8281    5.7779    1.1046 S   0  0  0  0  0  0  0  0  0  0  0  0
   -3.6806    4.3949    1.4130 N   0  0  0  0  0  0  0  0  0  0  0  0
   -1.5723    3.3281   -1.3531 C   0  0  0  0  0  0  0  0  0  0  0  0
   -0.6380    3.6282   -2.3024 C   0  0  0  0  0  0  0  0  0  0  0  0
    0.3479    4.9205   -2.8197 S   0  0  0  0  0  0  0  0  0  0  0  0
    0.8680    4.0100   -4.1707 C   0  0  0  0  0  0  0  0  0  0  0  0
    1.7939    4.2420   -5.1939 C   0  0  0  0  0  0  0  0  0  0  0  0
    2.7704    5.3437   -5.1712 C   0  0  0  0  0  0  0  0  0  0  0  0
    2.3606    6.6835   -5.1440 C   0  0  0  0  0  0  0  0  0  0  0  0
    3.3113    7.7075   -5.0099 C   0  0  0  0  0  0  0  0  0  0  0  0
    4.6683    7.3923   -4.8718 C   0  0  0  0  0  0  0  0  0  0  0  0
    5.0883    6.0520   -4.8955 C   0  0  0  0  0  0  0  0  0  0  0  0
    6.5290    5.6961   -4.6508 C   0  0  0  0  0  0  0  0  0  0  0  0
    6.7585    5.3466   -3.1818 C   0  0  0  0  0  0  0  0  0  0  0  0
    4.1362    5.0346   -5.0549 C   0  0  0  0  0  0  0  0  0  0  0  0
    1.8540    3.1242   -6.0600 C   0  0  0  0  0  0  0  0  0  0  0  0
    0.8044    1.9044   -5.5129 S   0  0  0  0  0  0  0  0  0  0  0  0
    0.2813    2.7709   -4.1929 C   0  0  0  0  0  0  0  0  0  0  0  0
   -0.5417    2.5430   -3.1023 C   0  0  0  0  0  0  0  0  0  0  0  0
   -1.3383    1.5146   -2.7148 N   0  0  0  0  0  0  0  0  0  0  0  0
   -1.9595    1.9887   -1.5735 C   0  0  0  0  0  0  0  0  0  0  0  0
   -2.8925    1.3977   -0.6503 C   0  0  0  0  0  0  0  0  0  0  0  0
   -3.0669    0.0903   -0.2589 N   0  0  0  0  0  0  0  0  0  0  0  0
   -3.8219    0.1458    0.8655 C   0  0  0  0  0  0  0  0  0  0  0  0
   -3.8304   -0.6923    1.9835 C   0  0  0  0  0  0  0  0  0  0  0  0
   -2.7845   -1.9000    2.4600 S   0  0  0  0  0  0  0  0  0  0  0  0
   -2.6667   -1.1682   -0.8888 C   0  0  0  0  0  0  0  0  0  0  0  0
   -3.8439   -1.7641   -1.6724 C   0  0  0  0  0  0  0  0  0  0  0  0
   -1.6953    0.4003   -3.6066 C   0  0  0  0  0  0  0  0  0  0  0  0
   -0.5883   -0.6676   -3.6598 C   0  0  0  0  0  0  0  0  0  0  0  0
    2.6293    2.9622   -7.2962 C   0  0  0  0  0  0  0  0  0  0  0  0
    2.4469    3.6967   -8.4882 C   0  0  0  0  0  0  0  0  0  0  0  0
    1.7180    5.0195   -8.5706 C   0  0  0  0  0  0  0  0  0  0  0  0
    0.2186    4.9257   -8.2701 C   0  0  0  0  0  0  0  0  0  0  0  0
    2.9734    3.0074   -9.6102 C   0  0  0  0  0  0  0  0  0  0  0  0
    3.6222    1.8407   -9.2816 C   0  0  0  0  0  0  0  0  0  0  0  0
    3.4190    1.5048   -7.6635 S   0  0  0  0  0  0  0  0  0  0  0  0
    3.7078    0.9893  -10.4375 C   0  0  0  0  0  0  0  0  0  0  0  0
    3.1029    1.6229  -11.4871 C   0  0  0  0  0  0  0  0  0  0  0  0
    2.6091    3.0181  -11.1047 C   0  0  0  0  0  0  0  0  0  0  0  0
    1.0738    3.1818  -11.3518 C   0  0  0  0  0  0  0  0  0  0  0  0
    0.2026    2.1508  -10.6320 C   0  0  0  0  0  0  0  0  0  0  0  0
    3.4462    4.0985  -11.8305 C   0  0  0  0  0  0  0  0  0  0  0  0
    3.2920    4.1022  -13.3575 C   0  0  0  0  0  0  0  0  0  0  0  0
    2.6203    0.7453  -12.4635 C   0  0  0  0  0  0  0  0  0  0  0  0
    2.8221   -0.5935  -12.1184 C   0  0  0  0  0  0  0  0  0  0  0  0
    3.5822   -0.6755  -10.5989 S   0  0  0  0  0  0  0  0  0  0  0  0
    2.0723   -1.6964  -12.7536 C   0  0  0  0  0  0  0  0  0  0  0  0
    0.8357   -2.0368  -12.3387 C   0  0  0  0  0  0  0  0  0  0  0  0
    0.1510   -1.4746  -11.1686 C   0  0  0  0  0  0  0  0  0  0  0  0
    0.7004   -1.1563  -10.0687 O   0  0  0  0  0  0  0  0  0  0  0  0
   -1.2353   -1.2553  -11.4895 C   0  0  0  0  0  0  0  0  0  0  0  0
   -2.1648   -0.4429  -10.8458 C   0  0  0  0  0  0  0  0  0  0  0  0
   -1.8923    0.0869   -9.6192 F   0  0  0  0  0  0  0  0  0  0  0  0
   -3.3593   -0.1210  -11.5131 C   0  0  0  0  0  0  0  0  0  0  0  0
   -3.6080   -0.6277  -12.8056 C   0  0  0  0  0  0  0  0  0  0  0  0
   -2.6683   -1.4576  -13.4350 C   0  0  0  0  0  0  0  0  0  0  0  0
   -1.4899   -1.7911  -12.7486 C   0  0  0  0  0  0  0  0  0  0  0  0
   -0.2623   -2.4624  -13.2467 C   0  0  0  0  0  0  0  0  0  0  0  0
   -0.2024   -3.4185  -14.1999 C   0  0  0  0  0  0  0  0  0  0  0  0
   -1.3929   -3.8913  -14.8646 C   0  0  0  0  0  0  0  0  0  0  0  0
   -2.3516   -4.2764  -15.3901 N   0  0  0  0  0  0  0  0  0  0  0  0
    1.0256   -4.0991  -14.5222 C   0  0  0  0  0  0  0  0  0  0  0  0
    2.0107   -4.6466  -14.7900 N   0  0  0  0  0  0  0  0  0  0  0  0
    3.7847   -3.4041    8.0894 H   0  0  0  0  0  0  0  0  0  0  0  0
    4.1985    2.1712   13.5425 H   0  0  0  0  0  0  0  0  0  0  0  0
    5.8585    0.4756   14.2602 H   0  0  0  0  0  0  0  0  0  0  0  0
    6.1741   -1.5832   12.9908 H   0  0  0  0  0  0  0  0  0  0  0  0
    5.4223   -3.2902    6.1625 H   0  0  0  0  0  0  0  0  0  0  0  0
    6.3977   -5.5356    5.8727 H   0  0  0  0  0  0  0  0  0  0  0  0
    4.7440   -8.2877    3.8814 H   0  0  0  0  0  0  0  0  0  0  0  0
    6.3461   -7.6341    4.3835 H   0  0  0  0  0  0  0  0  0  0  0  0
    5.1907   -8.2513    5.6332 H   0  0  0  0  0  0  0  0  0  0  0  0
    2.8292   -6.8050    3.7992 H   0  0  0  0  0  0  0  0  0  0  0  0
    1.8569   -4.5705    4.1233 H   0  0  0  0  0  0  0  0  0  0  0  0
    5.0679   -2.2724    3.6304 H   0  0  0  0  0  0  0  0  0  0  0  0
    5.8942   -0.2474    2.5643 H   0  0  0  0  0  0  0  0  0  0  0  0
    6.0624    2.3181    2.8477 H   0  0  0  0  0  0  0  0  0  0  0  0
    4.6202    2.3022    1.7572 H   0  0  0  0  0  0  0  0  0  0  0  0
    4.5748    3.2144    3.3138 H   0  0  0  0  0  0  0  0  0  0  0  0
    2.8715    2.0742    4.5687 H   0  0  0  0  0  0  0  0  0  0  0  0
    2.0024    0.0660    5.6245 H   0  0  0  0  0  0  0  0  0  0  0  0
   -5.0173   -1.5112    8.8780 H   0  0  0  0  0  0  0  0  0  0  0  0
   -6.3014   -3.3617    9.8103 H   0  0  0  0  0  0  0  0  0  0  0  0
   -5.1229   -6.5739   10.3380 H   0  0  0  0  0  0  0  0  0  0  0  0
   -6.0516   -6.7532    8.7952 H   0  0  0  0  0  0  0  0  0  0  0  0
   -6.6830   -5.6988   10.1124 H   0  0  0  0  0  0  0  0  0  0  0  0
   -3.4955   -6.1600    8.1144 H   0  0  0  0  0  0  0  0  0  0  0  0
   -2.2178   -4.3194    7.1546 H   0  0  0  0  0  0  0  0  0  0  0  0
   -2.3827    0.7989    6.2956 H   0  0  0  0  0  0  0  0  0  0  0  0
   -2.2638    2.9555    7.4472 H   0  0  0  0  0  0  0  0  0  0  0  0
   -2.8158    4.2424    9.5303 H   0  0  0  0  0  0  0  0  0  0  0  0
   -1.2845    3.6703   10.3035 H   0  0  0  0  0  0  0  0  0  0  0  0
   -2.8799    3.4000   11.1193 H   0  0  0  0  0  0  0  0  0  0  0  0
   -2.6199    0.9466   11.2442 H   0  0  0  0  0  0  0  0  0  0  0  0
   -2.7439   -1.2105   10.1007 H   0  0  0  0  0  0  0  0  0  0  0  0
   -5.4245   -2.8085    5.1031 H   0  0  0  0  0  0  0  0  0  0  0  0
   -7.3762   -2.7916    6.6107 H   0  0  0  0  0  0  0  0  0  0  0  0
   -8.0410   -0.7219    7.7803 H   0  0  0  0  0  0  0  0  0  0  0  0
   -6.0102    2.4318    7.7190 H   0  0  0  0  0  0  0  0  0  0  0  0
   -7.2662    1.5344    8.6196 H   0  0  0  0  0  0  0  0  0  0  0  0
   -7.6352    2.5413    5.7232 H   0  0  0  0  0  0  0  0  0  0  0  0
   -8.1576    3.4386    7.1983 H   0  0  0  0  0  0  0  0  0  0  0  0
   -8.8988    1.8410    6.8082 H   0  0  0  0  0  0  0  0  0  0  0  0
   -4.8318    1.3946    5.8407 H   0  0  0  0  0  0  0  0  0  0  0  0
    1.3138    6.9418   -5.2140 H   0  0  0  0  0  0  0  0  0  0  0  0
    2.9958    8.7427   -4.9885 H   0  0  0  0  0  0  0  0  0  0  0  0
    5.3887    8.1922   -4.7277 H   0  0  0  0  0  0  0  0  0  0  0  0
    6.8153    4.8273   -5.2818 H   0  0  0  0  0  0  0  0  0  0  0  0
    7.1904    6.5400   -4.9333 H   0  0  0  0  0  0  0  0  0  0  0  0
    6.1446    4.4676   -2.8921 H   0  0  0  0  0  0  0  0  0  0  0  0
    7.8270    5.0950   -3.0235 H   0  0  0  0  0  0  0  0  0  0  0  0
    6.5005    6.2050   -2.5286 H   0  0  0  0  0  0  0  0  0  0  0  0
    4.4495    4.0001   -5.0206 H   0  0  0  0  0  0  0  0  0  0  0  0
   -2.3516   -1.9166   -0.1380 H   0  0  0  0  0  0  0  0  0  0  0  0
   -1.7758   -1.0278   -1.4915 H   0  0  0  0  0  0  0  0  0  0  0  0
   -3.4844   -2.5760   -2.3383 H   0  0  0  0  0  0  0  0  0  0  0  0
   -4.5801   -2.1931   -0.9620 H   0  0  0  0  0  0  0  0  0  0  0  0
   -4.3663   -0.9917   -2.2768 H   0  0  0  0  0  0  0  0  0  0  0  0
   -2.6635   -0.0281   -3.3148 H   0  0  0  0  0  0  0  0  0  0  0  0
   -1.8613    0.7855   -4.6410 H   0  0  0  0  0  0  0  0  0  0  0  0
    0.0839   -0.5167   -4.5263 H   0  0  0  0  0  0  0  0  0  0  0  0
    0.0374   -0.6675   -2.7413 H   0  0  0  0  0  0  0  0  0  0  0  0
   -1.0494   -1.6677   -3.7837 H   0  0  0  0  0  0  0  0  0  0  0  0
    1.8630    5.4691   -9.5735 H   0  0  0  0  0  0  0  0  0  0  0  0
    2.1799    5.7255   -7.8552 H   0  0  0  0  0  0  0  0  0  0  0  0
   -0.2525    4.1055   -8.8322 H   0  0  0  0  0  0  0  0  0  0  0  0
   -0.2740    5.8706   -8.5800 H   0  0  0  0  0  0  0  0  0  0  0  0
    0.0215    4.7725   -7.1909 H   0  0  0  0  0  0  0  0  0  0  0  0
    0.8476    3.0756  -12.4352 H   0  0  0  0  0  0  0  0  0  0  0  0
    0.7457    4.2011  -11.0751 H   0  0  0  0  0  0  0  0  0  0  0  0
   -0.8574    2.4505  -10.6985 H   0  0  0  0  0  0  0  0  0  0  0  0
    0.3059    1.1703  -11.1166 H   0  0  0  0  0  0  0  0  0  0  0  0
    0.4764    2.0396   -9.5621 H   0  0  0  0  0  0  0  0  0  0  0  0
    4.5267    3.9422  -11.6038 H   0  0  0  0  0  0  0  0  0  0  0  0
    3.1813    5.1064  -11.4480 H   0  0  0  0  0  0  0  0  0  0  0  0
    2.2516    4.3447  -13.6594 H   0  0  0  0  0  0  0  0  0  0  0  0
    3.5765    3.1230  -13.7922 H   0  0  0  0  0  0  0  0  0  0  0  0
    3.9645    4.8788  -13.7845 H   0  0  0  0  0  0  0  0  0  0  0  0
    1.9666    1.0575  -13.2702 H   0  0  0  0  0  0  0  0  0  0  0  0
    2.3632   -1.9331  -13.7670 H   0  0  0  0  0  0  0  0  0  0  0  0
   -4.0615    0.5579  -11.0522 H   0  0  0  0  0  0  0  0  0  0  0  0
   -4.5031   -0.3257  -13.3347 H   0  0  0  0  0  0  0  0  0  0  0  0
   -2.8394   -1.7629  -14.4659 H   0  0  0  0  0  0  0  0  0  0  0  0
  1  2  2  3
  2  3  1  0
  3  4  2  0
  3  5  1  0
  5  6  2  0
  6  7  1  0
  6  8  1  0
  8  9  2  0
  9 10  1  0
 10 11  2  0
 11 12  1  0
 12 13  2  3
 13 14  1  0
 14 15  3  0
 13 16  1  0
 16 17  3  0
  1 18  1  0
 18 19  2  0
 19 20  1  0
 20 21  1  0
 21 22  2  0
 22 23  1  0
 23 24  2  0
 24 25  1  0
 24 26  1  0
 26 27  2  0
 20 28  1  0
 28 29  2  0
 29 30  1  0
 30 31  2  0
 31 32  1  0
 31 33  1  0
 33 34  2  0
 19 35  1  0
 35 36  1  0
 36 37  1  0
 37 38  2  0
 38 39  1  0
 39 40  1  0
 40 41  2  0
 41 42  1  0
 42 43  2  0
 43 44  1  0
 43 45  1  0
 45 46  2  0
 39 47  1  0
 47 48  2  0
 48 49  1  0
 49 50  2  0
 50 51  1  0
 50 52  1  0
 52 53  2  0
 38 54  1  0
 54 55  1  0
 37 56  1  0
 56 57  2  0
 57 58  1  0
 58 59  2  0
 59 60  1  0
 60 61  2  0
 61 62  1  0
 62 63  1  0
 63 64  1  0
 62 65  2  0
 57 66  1  0
 66 67  1  0
 67 68  1  0
 68 69  1  0
 69 70  1  0
 70 71  1  0
 71 72  2  0
 72 73  1  0
 73 74  1  0
 71 75  1  0
 75 76  1  0
 76 77  1  0
 77 78  1  0
 78 79  1  0
 79 80  1  0
 80 81  2  0
 81 82  1  0
 82 83  2  0
 83 84  1  0
 84 85  1  0
 85 86  1  0
 84 87  2  0
 79 88  2  0
 88 89  1  0
 89 90  1  0
 90 91  1  0
 91 92  1  0
 92 93  1  0
 93 94  1  0
 94 95  1  0
 95 96  1  0
 96 97  1  0
 97 98  1  0
 95 99  1  0
 99100  1  0
 92101  1  0
101102  1  0
 88103  1  0
103104  2  0
104105  1  0
105106  1  0
104107  1  0
107108  2  0
108109  1  0
108110  1  0
110111  2  0
111112  1  0
112113  1  0
113114  1  0
112115  1  0
115116  1  0
111117  1  0
117118  2  0
118119  1  0
118120  1  0
120121  2  3
121122  1  0
122123  2  0
122124  1  0
124125  2  0
125126  1  0
125127  1  0
127128  2  0
128129  1  0
129130  2  0
130131  1  0
131132  2  3
132133  1  0
133134  3  0
132135  1  0
135136  3  0
 12  2  1  0
 55 18  1  0
 98 56  1  0
109103  1  0
119110  1  0
131121  1  0
 11  5  1  0
 27 21  1  0
 34 28  1  0
 54 35  2  0
 65 58  1  0
 97 66  2  0
112107  1  0
130124  1  0
 46 40  1  0
 53 47  1  0
 96 68  2  0
 94 69  2  0
 74 70  2  0
 93 75  2  0
 91 76  2  0
 90 78  2  0
 87 80  1  0
  1137  1  0
  8138  1  0
  9139  1  0
 10140  1  0
 22141  1  0
 23142  1  0
 25143  1  0
 25144  1  0
 25145  1  0
 26146  1  0
 27147  1  0
 29148  1  0
 30149  1  0
 32150  1  0
 32151  1  0
 32152  1  0
 33153  1  0
 34154  1  0
 41155  1  0
 42156  1  0
 44157  1  0
 44158  1  0
 44159  1  0
 45160  1  0
 46161  1  0
 48162  1  0
 49163  1  0
 51164  1  0
 51165  1  0
 51166  1  0
 52167  1  0
 53168  1  0
 59169  1  0
 60170  1  0
 61171  1  0
 63172  1  0
 63173  1  0
 64174  1  0
 64175  1  0
 64176  1  0
 65177  1  0
 81178  1  0
 82179  1  0
 83180  1  0
 85181  1  0
 85182  1  0
 86183  1  0
 86184  1  0
 86185  1  0
 87186  1  0
 99187  1  0
 99188  1  0
100189  1  0
100190  1  0
100191  1  0
101192  1  0
101193  1  0
102194  1  0
102195  1  0
102196  1  0
105197  1  0
105198  1  0
106199  1  0
106200  1  0
106201  1  0
113202  1  0
113203  1  0
114204  1  0
114205  1  0
114206  1  0
115207  1  0
115208  1  0
116209  1  0
116210  1  0
116211  1  0
117212  1  0
120213  1  0
127214  1  0
128215  1  0
129216  1  0
M  END

