
     RDKit          3D

145160  0  0  0  0  0  0  0  0999 V2000
   -8.9877    3.3984    2.5108 C   0  0  0  0  0  0  0  0  0  0  0  0
   -9.4418    2.6408    3.5308 C   0  0  0  0  0  0  0  0  0  0  0  0
   -8.7829    1.4476    4.0783 C   0  0  0  0  0  0  0  0  0  0  0  0
   -7.9511    0.7119    3.4827 O   0  0  0  0  0  0  0  0  0  0  0  0
   -9.3231    1.1906    5.3944 C   0  0  0  0  0  0  0  0  0  0  0  0
   -8.8896    0.2614    6.3435 C   0  0  0  0  0  0  0  0  0  0  0  0
   -7.8793   -0.5998    6.0669 F   0  0  0  0  0  0  0  0  0  0  0  0
   -9.5048    0.2536    7.6023 C   0  0  0  0  0  0  0  0  0  0  0  0
  -10.5160    1.1819    7.8987 C   0  0  0  0  0  0  0  0  0  0  0  0
  -10.9344    2.1130    6.9333 C   0  0  0  0  0  0  0  0  0  0  0  0
  -10.3403    2.0916    5.6594 C   0  0  0  0  0  0  0  0  0  0  0  0
  -10.5660    2.9609    4.4677 C   0  0  0  0  0  0  0  0  0  0  0  0
  -11.6695    3.7114    4.2071 C   0  0  0  0  0  0  0  0  0  0  0  0
  -11.9013    4.3286    2.9267 C   0  0  0  0  0  0  0  0  0  0  0  0
  -12.0952    4.8276    1.9011 N   0  0  0  0  0  0  0  0  0  0  0  0
  -12.7578    3.8395    5.1396 C   0  0  0  0  0  0  0  0  0  0  0  0
  -13.6408    3.9518    5.8804 N   0  0  0  0  0  0  0  0  0  0  0  0
   -7.7083    3.1672    1.8234 C   0  0  0  0  0  0  0  0  0  0  0  0
   -6.4817    2.9263    2.4268 C   0  0  0  0  0  0  0  0  0  0  0  0
   -5.4289    2.7929    1.5177 C   0  0  0  0  0  0  0  0  0  0  0  0
   -3.7808    2.3361    2.0704 S   0  0  0  0  0  0  0  0  0  0  0  0
   -4.0949    0.5331    2.0528 C   0  0  0  0  0  0  0  0  0  0  0  0
   -3.6034   -0.0860    0.7526 C   0  0  0  0  0  0  0  0  0  0  0  0
   -5.8141    2.9846    0.1867 C   0  0  0  0  0  0  0  0  0  0  0  0
   -7.4700    3.3005    0.1673 S   0  0  0  0  0  0  0  0  0  0  0  0
   -4.9496    2.9350   -1.0102 C   0  0  0  0  0  0  0  0  0  0  0  0
   -5.3044    2.4268   -2.2748 C   0  0  0  0  0  0  0  0  0  0  0  0
   -6.5874    1.7838   -2.5891 C   0  0  0  0  0  0  0  0  0  0  0  0
   -6.9124    0.5419   -2.0270 C   0  0  0  0  0  0  0  0  0  0  0  0
   -8.1544   -0.0412   -2.2870 C   0  0  0  0  0  0  0  0  0  0  0  0
   -9.0826    0.6192   -3.0969 C   0  0  0  0  0  0  0  0  0  0  0  0
   -8.7642    1.8609   -3.6710 C   0  0  0  0  0  0  0  0  0  0  0  0
   -9.7914    2.6072   -4.4771 C   0  0  0  0  0  0  0  0  0  0  0  0
  -10.6610    3.4700   -3.5696 C   0  0  0  0  0  0  0  0  0  0  0  0
   -7.5106    2.4375   -3.4148 C   0  0  0  0  0  0  0  0  0  0  0  0
   -4.2166    2.4450   -3.1513 C   0  0  0  0  0  0  0  0  0  0  0  0
   -3.9159    1.6149   -4.6015 S   0  0  0  0  0  0  0  0  0  0  0  0
   -2.2650    2.0149   -4.5483 C   0  0  0  0  0  0  0  0  0  0  0  0
   -1.1318    1.3678   -4.9611 C   0  0  0  0  0  0  0  0  0  0  0  0
   -1.0255    0.2089   -5.7426 C   0  0  0  0  0  0  0  0  0  0  0  0
    0.1759   -0.5522   -5.6880 C   0  0  0  0  0  0  0  0  0  0  0  0
    0.2138   -1.7028   -6.4031 N   0  0  0  0  0  0  0  0  0  0  0  0
   -1.3087   -1.6754   -7.0547 S   0  0  0  0  0  0  0  0  0  0  0  0
   -2.0358   -0.2968   -6.4939 N   0  0  0  0  0  0  0  0  0  0  0  0
    1.2244   -0.0864   -4.8977 C   0  0  0  0  0  0  0  0  0  0  0  0
    2.4396   -0.6352   -4.6049 C   0  0  0  0  0  0  0  0  0  0  0  0
    3.2695   -2.1094   -4.7615 S   0  0  0  0  0  0  0  0  0  0  0  0
    4.5040   -1.5562   -3.7122 C   0  0  0  0  0  0  0  0  0  0  0  0
    5.5532   -2.1984   -3.0460 C   0  0  0  0  0  0  0  0  0  0  0  0
    5.9218   -3.6180   -3.2545 C   0  0  0  0  0  0  0  0  0  0  0  0
    6.1062   -4.1167   -4.5529 C   0  0  0  0  0  0  0  0  0  0  0  0
    6.4747   -5.4517   -4.7504 C   0  0  0  0  0  0  0  0  0  0  0  0
    6.6668   -6.2963   -3.6552 C   0  0  0  0  0  0  0  0  0  0  0  0
    6.4813   -5.8145   -2.3509 C   0  0  0  0  0  0  0  0  0  0  0  0
    6.6624   -6.7286   -1.1699 C   0  0  0  0  0  0  0  0  0  0  0  0
    5.3784   -7.4884   -0.8604 C   0  0  0  0  0  0  0  0  0  0  0  0
    6.0885   -4.4810   -2.1582 C   0  0  0  0  0  0  0  0  0  0  0  0
    6.0903   -1.3539   -2.0508 C   0  0  0  0  0  0  0  0  0  0  0  0
    5.2481    0.1253   -1.9983 S   0  0  0  0  0  0  0  0  0  0  0  0
    4.2431   -0.2837   -3.2710 C   0  0  0  0  0  0  0  0  0  0  0  0
    3.0675    0.2300   -3.7832 C   0  0  0  0  0  0  0  0  0  0  0  0
    2.3517    1.3455   -3.5192 N   0  0  0  0  0  0  0  0  0  0  0  0
    1.1541    1.1102   -4.1581 C   0  0  0  0  0  0  0  0  0  0  0  0
   -0.0965    1.8000   -4.1038 C   0  0  0  0  0  0  0  0  0  0  0  0
   -0.6150    2.6164   -3.1219 N   0  0  0  0  0  0  0  0  0  0  0  0
   -1.9350    2.7173   -3.4305 C   0  0  0  0  0  0  0  0  0  0  0  0
   -3.0544    2.9567   -2.6309 C   0  0  0  0  0  0  0  0  0  0  0  0
   -3.3101    3.3867   -1.0316 S   0  0  0  0  0  0  0  0  0  0  0  0
   -0.0614    2.9585   -1.8066 C   0  0  0  0  0  0  0  0  0  0  0  0
    0.0789    1.7228   -0.9224 C   0  0  0  0  0  0  0  0  0  0  0  0
    2.9937    2.6074   -3.1149 C   0  0  0  0  0  0  0  0  0  0  0  0
    2.6408    3.7664   -4.0496 C   0  0  0  0  0  0  0  0  0  0  0  0
    7.1412   -1.7076   -1.0951 C   0  0  0  0  0  0  0  0  0  0  0  0
    8.4093   -2.1727   -1.4069 C   0  0  0  0  0  0  0  0  0  0  0  0
    9.1555   -2.5264   -0.2752 C   0  0  0  0  0  0  0  0  0  0  0  0
   10.8268   -3.1784   -0.4045 S   0  0  0  0  0  0  0  0  0  0  0  0
   10.3197   -4.8520   -0.9367 C   0  0  0  0  0  0  0  0  0  0  0  0
    9.8815   -5.6957    0.2518 C   0  0  0  0  0  0  0  0  0  0  0  0
    8.4901   -2.3056    0.9338 C   0  0  0  0  0  0  0  0  0  0  0  0
    6.9401   -1.7458    0.5684 S   0  0  0  0  0  0  0  0  0  0  0  0
    8.9656   -2.7135    2.2735 C   0  0  0  0  0  0  0  0  0  0  0  0
    8.5703   -2.1565    3.4371 C   0  0  0  0  0  0  0  0  0  0  0  0
    8.0294   -0.7986    3.6047 C   0  0  0  0  0  0  0  0  0  0  0  0
    7.7920    0.0332    2.6913 O   0  0  0  0  0  0  0  0  0  0  0  0
    8.0156   -0.4812    5.0170 C   0  0  0  0  0  0  0  0  0  0  0  0
    7.6081    0.7070    5.6288 C   0  0  0  0  0  0  0  0  0  0  0  0
    7.1009    1.7302    4.8982 F   0  0  0  0  0  0  0  0  0  0  0  0
    7.7295    0.8217    7.0190 C   0  0  0  0  0  0  0  0  0  0  0  0
    8.2780   -0.2335    7.7657 C   0  0  0  0  0  0  0  0  0  0  0  0
    8.6922   -1.4173    7.1334 C   0  0  0  0  0  0  0  0  0  0  0  0
    8.5382   -1.5405    5.7412 C   0  0  0  0  0  0  0  0  0  0  0  0
    8.8497   -2.6721    4.8180 C   0  0  0  0  0  0  0  0  0  0  0  0
    9.1011   -3.9625    5.1683 C   0  0  0  0  0  0  0  0  0  0  0  0
    9.0554   -5.0429    4.2168 C   0  0  0  0  0  0  0  0  0  0  0  0
    9.0154   -5.9187    3.4629 N   0  0  0  0  0  0  0  0  0  0  0  0
    9.3104   -4.3785    6.5298 C   0  0  0  0  0  0  0  0  0  0  0  0
    9.4883   -4.7311    7.6189 N   0  0  0  0  0  0  0  0  0  0  0  0
   -9.5192    4.2788    2.1978 H   0  0  0  0  0  0  0  0  0  0  0  0
   -9.1837   -0.4528    8.3549 H   0  0  0  0  0  0  0  0  0  0  0  0
  -10.9686    1.1874    8.8828 H   0  0  0  0  0  0  0  0  0  0  0  0
  -11.6722    2.8463    7.2125 H   0  0  0  0  0  0  0  0  0  0  0  0
   -6.3480    2.8411    3.4967 H   0  0  0  0  0  0  0  0  0  0  0  0
   -3.5450    0.0755    2.9014 H   0  0  0  0  0  0  0  0  0  0  0  0
   -5.1736    0.3075    2.1898 H   0  0  0  0  0  0  0  0  0  0  0  0
   -2.5122    0.0847    0.6382 H   0  0  0  0  0  0  0  0  0  0  0  0
   -4.1361    0.3572   -0.1122 H   0  0  0  0  0  0  0  0  0  0  0  0
   -3.7949   -1.1792    0.7644 H   0  0  0  0  0  0  0  0  0  0  0  0
   -6.2083    0.0277   -1.3838 H   0  0  0  0  0  0  0  0  0  0  0  0
   -8.4048   -0.9988   -1.8477 H   0  0  0  0  0  0  0  0  0  0  0  0
  -10.0503    0.1663   -3.2699 H   0  0  0  0  0  0  0  0  0  0  0  0
  -10.4358    1.8914   -5.0309 H   0  0  0  0  0  0  0  0  0  0  0  0
   -9.2911    3.2535   -5.2298 H   0  0  0  0  0  0  0  0  0  0  0  0
  -11.4055    4.0223   -4.1815 H   0  0  0  0  0  0  0  0  0  0  0  0
  -10.0369    4.2078   -3.0238 H   0  0  0  0  0  0  0  0  0  0  0  0
  -11.2010    2.8366   -2.8362 H   0  0  0  0  0  0  0  0  0  0  0  0
   -7.2661    3.4087   -3.8299 H   0  0  0  0  0  0  0  0  0  0  0  0
    5.9815   -3.4694   -5.4133 H   0  0  0  0  0  0  0  0  0  0  0  0
    6.6226   -5.8276   -5.7557 H   0  0  0  0  0  0  0  0  0  0  0  0
    6.9559   -7.3255   -3.8226 H   0  0  0  0  0  0  0  0  0  0  0  0
    6.9534   -6.1402   -0.2733 H   0  0  0  0  0  0  0  0  0  0  0  0
    7.4812   -7.4538   -1.3709 H   0  0  0  0  0  0  0  0  0  0  0  0
    5.0930   -8.1293   -1.7204 H   0  0  0  0  0  0  0  0  0  0  0  0
    5.5363   -8.1326    0.0276 H   0  0  0  0  0  0  0  0  0  0  0  0
    4.5538   -6.7784   -0.6412 H   0  0  0  0  0  0  0  0  0  0  0  0
    5.9008   -4.1244   -1.1530 H   0  0  0  0  0  0  0  0  0  0  0  0
   -0.7081    3.6936   -1.2944 H   0  0  0  0  0  0  0  0  0  0  0  0
    0.8726    3.5177   -1.9019 H   0  0  0  0  0  0  0  0  0  0  0  0
   -0.8770    1.1614   -0.9030 H   0  0  0  0  0  0  0  0  0  0  0  0
    0.3384    2.0320    0.1102 H   0  0  0  0  0  0  0  0  0  0  0  0
    0.8785    1.0586   -1.3023 H   0  0  0  0  0  0  0  0  0  0  0  0
    4.0973    2.5004   -3.1815 H   0  0  0  0  0  0  0  0  0  0  0  0
    2.8140    2.8224   -2.0469 H   0  0  0  0  0  0  0  0  0  0  0  0
    1.5725    4.0395   -3.9892 H   0  0  0  0  0  0  0  0  0  0  0  0
    2.8744    3.4894   -5.1004 H   0  0  0  0  0  0  0  0  0  0  0  0
    3.2428    4.6590   -3.7769 H   0  0  0  0  0  0  0  0  0  0  0  0
    8.7712   -2.2790   -2.4200 H   0  0  0  0  0  0  0  0  0  0  0  0
   11.1918   -5.3425   -1.4173 H   0  0  0  0  0  0  0  0  0  0  0  0
    9.5006   -4.8003   -1.6867 H   0  0  0  0  0  0  0  0  0  0  0  0
    9.6473   -6.7253   -0.0881 H   0  0  0  0  0  0  0  0  0  0  0  0
   10.6934   -5.7447    1.0050 H   0  0  0  0  0  0  0  0  0  0  0  0
    8.9736   -5.2626    0.7145 H   0  0  0  0  0  0  0  0  0  0  0  0
    9.6637   -3.5354    2.2984 H   0  0  0  0  0  0  0  0  0  0  0  0
    7.4152    1.7299    7.5189 H   0  0  0  0  0  0  0  0  0  0  0  0
    8.3867   -0.1312    8.8376 H   0  0  0  0  0  0  0  0  0  0  0  0
    9.1357   -2.1855    7.7408 H   0  0  0  0  0  0  0  0  0  0  0  0
  1  2  2  3
  2  3  1  0
  3  4  2  0
  3  5  1  0
  5  6  2  0
  6  7  1  0
  6  8  1  0
  8  9  2  0
  9 10  1  0
 10 11  2  0
 11 12  1  0
 12 13  2  3
 13 14  1  0
 14 15  3  0
 13 16  1  0
 16 17  3  0
  1 18  1  0
 18 19  2  0
 19 20  1  0
 20 21  1  0
 21 22  1  0
 22 23  1  0
 20 24  2  0
 24 25  1  0
 24 26  1  0
 26 27  2  0
 27 28  1  0
 28 29  2  0
 29 30  1  0
 30 31  2  0
 31 32  1  0
 32 33  1  0
 33 34  1  0
 32 35  2  0
 27 36  1  0
 36 37  1  0
 37 38  1  0
 38 39  1  0
 39 40  1  0
 40 41  1  0
 41 42  2  0
 42 43  1  0
 43 44  1  0
 41 45  1  0
 45 46  1  0
 46 47  1  0
 47 48  1  0
 48 49  1  0
 49 50  1  0
 50 51  2  0
 51 52  1  0
 52 53  2  0
 53 54  1  0
 54 55  1  0
 55 56  1  0
 54 57  2  0
 49 58  2  0
 58 59  1  0
 59 60  1  0
 60 61  1  0
 61 62  1  0
 62 63  1  0
 63 64  1  0
 64 65  1  0
 65 66  1  0
 66 67  1  0
 67 68  1  0
 65 69  1  0
 69 70  1  0
 62 71  1  0
 71 72  1  0
 58 73  1  0
 73 74  2  0
 74 75  1  0
 75 76  1  0
 76 77  1  0
 77 78  1  0
 75 79  2  0
 79 80  1  0
 79 81  1  0
 81 82  2  3
 82 83  1  0
 83 84  2  0
 83 85  1  0
 85 86  2  0
 86 87  1  0
 86 88  1  0
 88 89  2  0
 89 90  1  0
 90 91  2  0
 91 92  1  0
 92 93  2  3
 93 94  1  0
 94 95  3  0
 93 96  1  0
 96 97  3  0
 12  2  1  0
 25 18  1  0
 68 26  1  0
 80 73  1  0
 92 82  1  0
 11  5  1  0
 35 28  1  0
 67 36  2  0
 91 85  1  0
 66 38  2  0
 64 39  2  0
 44 40  2  0
 63 45  2  0
 61 46  2  0
 60 48  2  0
 57 50  1  0
  1 98  1  0
  8 99  1  0
  9100  1  0
 10101  1  0
 19102  1  0
 22103  1  0
 22104  1  0
 23105  1  0
 23106  1  0
 23107  1  0
 29108  1  0
 30109  1  0
 31110  1  0
 33111  1  0
 33112  1  0
 34113  1  0
 34114  1  0
 34115  1  0
 35116  1  0
 51117  1  0
 52118  1  0
 53119  1  0
 55120  1  0
 55121  1  0
 56122  1  0
 56123  1  0
 56124  1  0
 57125  1  0
 69126  1  0
 69127  1  0
 70128  1  0
 70129  1  0
 70130  1  0
 71131  1  0
 71132  1  0
 72133  1  0
 72134  1  0
 72135  1  0
 74136  1  0
 77137  1  0
 77138  1  0
 78139  1  0
 78140  1  0
 78141  1  0
 81142  1  0
 88143  1  0
 89144  1  0
 90145  1  0
M  END

