
     RDKit          3D

212234  0  0  0  0  0  0  0  0999 V2000
    1.8275   -1.5053   12.9989 C   0  0  0  0  0  0  0  0  0  0  0  0
    1.6519   -0.1723   13.1323 C   0  0  0  0  0  0  0  0  0  0  0  0
    0.8960    0.6888   12.2120 C   0  0  0  0  0  0  0  0  0  0  0  0
   -0.0564    0.3329   11.4668 O   0  0  0  0  0  0  0  0  0  0  0  0
    1.4181    2.0370   12.3092 C   0  0  0  0  0  0  0  0  0  0  0  0
    0.9959    3.1793   11.6326 C   0  0  0  0  0  0  0  0  0  0  0  0
    1.6328    4.3968   11.9172 C   0  0  0  0  0  0  0  0  0  0  0  0
    1.2473    5.5217   11.2704 F   0  0  0  0  0  0  0  0  0  0  0  0
    2.6729    4.4444   12.8591 C   0  0  0  0  0  0  0  0  0  0  0  0
    3.0661    3.2864   13.5499 C   0  0  0  0  0  0  0  0  0  0  0  0
    2.4317    2.0690   13.2552 C   0  0  0  0  0  0  0  0  0  0  0  0
    2.5797    0.7230   13.8735 C   0  0  0  0  0  0  0  0  0  0  0  0
    3.3171    0.4027   14.9558 C   0  0  0  0  0  0  0  0  0  0  0  0
    3.0506   -0.7801   15.7400 C   0  0  0  0  0  0  0  0  0  0  0  0
    2.8242   -1.7299   16.3592 N   0  0  0  0  0  0  0  0  0  0  0  0
    4.5117    1.1309   15.2996 C   0  0  0  0  0  0  0  0  0  0  0  0
    5.4972    1.6960   15.5348 N   0  0  0  0  0  0  0  0  0  0  0  0
    1.3197   -2.2757   11.8536 C   0  0  0  0  0  0  0  0  0  0  0  0
   -0.0045   -2.5671   11.5292 C   0  0  0  0  0  0  0  0  0  0  0  0
   -0.1389   -3.3165   10.3437 C   0  0  0  0  0  0  0  0  0  0  0  0
   -1.4516   -3.7458    9.8287 C   0  0  0  0  0  0  0  0  0  0  0  0
   -2.5210   -2.8383    9.7444 C   0  0  0  0  0  0  0  0  0  0  0  0
   -3.7429   -3.2303    9.1879 C   0  0  0  0  0  0  0  0  0  0  0  0
   -3.9156   -4.5382    8.7220 C   0  0  0  0  0  0  0  0  0  0  0  0
   -2.8726   -5.4620    8.8433 C   0  0  0  0  0  0  0  0  0  0  0  0
   -1.6514   -5.0752    9.4030 C   0  0  0  0  0  0  0  0  0  0  0  0
    1.0963   -3.6273    9.7490 C   0  0  0  0  0  0  0  0  0  0  0  0
    2.3134   -2.9858   10.7086 S   0  0  0  0  0  0  0  0  0  0  0  0
    1.3373   -4.1393    8.3834 C   0  0  0  0  0  0  0  0  0  0  0  0
    2.5851   -4.5670    7.8996 C   0  0  0  0  0  0  0  0  0  0  0  0
    2.5673   -4.6915    6.5111 C   0  0  0  0  0  0  0  0  0  0  0  0
    3.8104   -4.8352    5.3741 S   0  0  0  0  0  0  0  0  0  0  0  0
    2.7595   -4.5270    4.0650 C   0  0  0  0  0  0  0  0  0  0  0  0
    2.9824   -3.8659    2.8039 C   0  0  0  0  0  0  0  0  0  0  0  0
    1.8342   -3.1308    2.5355 C   0  0  0  0  0  0  0  0  0  0  0  0
    0.6808   -3.4285    3.4951 C   0  0  0  0  0  0  0  0  0  0  0  0
    0.0678   -2.0973    4.0743 C   0  0  0  0  0  0  0  0  0  0  0  0
   -1.2906   -1.7100    3.5172 C   0  0  0  0  0  0  0  0  0  0  0  0
   -1.4218   -0.7029    2.5423 C   0  0  0  0  0  0  0  0  0  0  0  0
   -2.6789   -0.3813    2.0181 C   0  0  0  0  0  0  0  0  0  0  0  0
   -3.8276   -1.0530    2.4606 C   0  0  0  0  0  0  0  0  0  0  0  0
   -5.1731   -0.7337    1.8645 C   0  0  0  0  0  0  0  0  0  0  0  0
   -5.3701   -1.4647    0.5398 C   0  0  0  0  0  0  0  0  0  0  0  0
   -3.7036   -2.0455    3.4459 C   0  0  0  0  0  0  0  0  0  0  0  0
   -2.4489   -2.3599    3.9772 C   0  0  0  0  0  0  0  0  0  0  0  0
   -0.3641   -4.3526    2.8392 C   0  0  0  0  0  0  0  0  0  0  0  0
   -1.0343   -5.3443    3.5938 C   0  0  0  0  0  0  0  0  0  0  0  0
   -2.0867   -6.0776    3.0403 C   0  0  0  0  0  0  0  0  0  0  0  0
   -2.5169   -5.8261    1.7303 C   0  0  0  0  0  0  0  0  0  0  0  0
   -3.6912   -6.5753    1.1640 C   0  0  0  0  0  0  0  0  0  0  0  0
   -3.2459   -7.8434    0.4423 C   0  0  0  0  0  0  0  0  0  0  0  0
   -1.8512   -4.8648    0.9643 C   0  0  0  0  0  0  0  0  0  0  0  0
   -0.7943   -4.1336    1.5125 C   0  0  0  0  0  0  0  0  0  0  0  0
    1.4936   -4.2141    4.5166 C   0  0  0  0  0  0  0  0  0  0  0  0
    1.3919   -4.3613    5.9022 C   0  0  0  0  0  0  0  0  0  0  0  0
    0.2807   -3.9061    7.0663 S   0  0  0  0  0  0  0  0  0  0  0  0
    1.8777   -2.1377    1.5618 C   0  0  0  0  0  0  0  0  0  0  0  0
    3.0393   -1.9645    0.7950 C   0  0  0  0  0  0  0  0  0  0  0  0
    3.0985   -0.9199   -0.2063 C   0  0  0  0  0  0  0  0  0  0  0  0
    3.9506   -1.0042   -1.2950 C   0  0  0  0  0  0  0  0  0  0  0  0
    5.3145   -1.6898   -1.1055 C   0  0  0  0  0  0  0  0  0  0  0  0
    5.2204   -2.7919   -0.0065 C   0  0  0  0  0  0  0  0  0  0  0  0
    4.1253   -2.8547    0.9124 C   0  0  0  0  0  0  0  0  0  0  0  0
    4.1206   -3.7989    1.9750 C   0  0  0  0  0  0  0  0  0  0  0  0
    5.2173   -4.6520    2.1447 C   0  0  0  0  0  0  0  0  0  0  0  0
    6.2997   -4.5842    1.2613 C   0  0  0  0  0  0  0  0  0  0  0  0
    6.3069   -3.6672    0.2090 C   0  0  0  0  0  0  0  0  0  0  0  0
    6.2750   -0.5604   -0.6447 C   0  0  0  0  0  0  0  0  0  0  0  0
    6.6813   -0.4180    0.7041 C   0  0  0  0  0  0  0  0  0  0  0  0
    7.4756    0.6538    1.1113 C   0  0  0  0  0  0  0  0  0  0  0  0
    7.8702    1.6387    0.1944 C   0  0  0  0  0  0  0  0  0  0  0  0
    8.6869    2.8167    0.6579 C   0  0  0  0  0  0  0  0  0  0  0  0
    7.8510    3.7566    1.5241 C   0  0  0  0  0  0  0  0  0  0  0  0
    7.4624    1.5275   -1.1410 C   0  0  0  0  0  0  0  0  0  0  0  0
    6.6722    0.4476   -1.5552 C   0  0  0  0  0  0  0  0  0  0  0  0
    5.7751   -2.3493   -2.4174 C   0  0  0  0  0  0  0  0  0  0  0  0
    7.1349   -2.3517   -2.8077 C   0  0  0  0  0  0  0  0  0  0  0  0
    7.5325   -2.9206   -4.0181 C   0  0  0  0  0  0  0  0  0  0  0  0
    6.5962   -3.5492   -4.8492 C   0  0  0  0  0  0  0  0  0  0  0  0
    7.0059   -4.0939   -6.1932 C   0  0  0  0  0  0  0  0  0  0  0  0
    6.5030   -3.1910   -7.3141 C   0  0  0  0  0  0  0  0  0  0  0  0
    5.2613   -3.6341   -4.4266 C   0  0  0  0  0  0  0  0  0  0  0  0
    4.8604   -3.0583   -3.2167 C   0  0  0  0  0  0  0  0  0  0  0  0
    3.6229   -0.0099   -2.2419 C   0  0  0  0  0  0  0  0  0  0  0  0
    2.6708    0.8809   -1.8040 C   0  0  0  0  0  0  0  0  0  0  0  0
    2.0836    0.4241   -0.3141 S   0  0  0  0  0  0  0  0  0  0  0  0
    1.9153    1.5031   -2.7723 C   0  0  0  0  0  0  0  0  0  0  0  0
    2.1190    0.9577   -4.0387 C   0  0  0  0  0  0  0  0  0  0  0  0
    3.3570   -0.2002   -3.9075 S   0  0  0  0  0  0  0  0  0  0  0  0
    0.9975    0.9222   -4.9950 C   0  0  0  0  0  0  0  0  0  0  0  0
    1.0207    1.3250   -6.3343 C   0  0  0  0  0  0  0  0  0  0  0  0
   -0.2529    1.7391   -6.7984 C   0  0  0  0  0  0  0  0  0  0  0  0
   -0.5456    2.3276   -8.0481 C   0  0  0  0  0  0  0  0  0  0  0  0
    0.4005    2.2429   -9.1762 C   0  0  0  0  0  0  0  0  0  0  0  0
    0.9214    3.3962   -9.7757 C   0  0  0  0  0  0  0  0  0  0  0  0
    1.8084    3.2932  -10.8534 C   0  0  0  0  0  0  0  0  0  0  0  0
    2.3022    4.4268  -11.4124 F   0  0  0  0  0  0  0  0  0  0  0  0
    2.1689    2.0309  -11.3608 C   0  0  0  0  0  0  0  0  0  0  0  0
    3.1420    1.9163  -12.5063 C   0  0  0  0  0  0  0  0  0  0  0  0
    4.5724    1.8247  -11.9872 C   0  0  0  0  0  0  0  0  0  0  0  0
    1.6531    0.8719  -10.7471 C   0  0  0  0  0  0  0  0  0  0  0  0
    1.9833   -0.3608  -11.2137 F   0  0  0  0  0  0  0  0  0  0  0  0
    0.7793    0.9793   -9.6638 C   0  0  0  0  0  0  0  0  0  0  0  0
   -1.8030    2.9648   -8.1715 C   0  0  0  0  0  0  0  0  0  0  0  0
   -2.7399    2.9739   -7.1329 C   0  0  0  0  0  0  0  0  0  0  0  0
   -2.5033    2.2670   -5.9441 C   0  0  0  0  0  0  0  0  0  0  0  0
   -3.4660    2.2969   -4.8220 C   0  0  0  0  0  0  0  0  0  0  0  0
   -3.1769    3.0208   -3.6537 C   0  0  0  0  0  0  0  0  0  0  0  0
   -4.1042    3.0753   -2.6082 C   0  0  0  0  0  0  0  0  0  0  0  0
   -5.3344    2.3962   -2.7119 C   0  0  0  0  0  0  0  0  0  0  0  0
   -6.3455    2.4568   -1.5926 C   0  0  0  0  0  0  0  0  0  0  0  0
   -7.3786    3.5475   -1.8574 C   0  0  0  0  0  0  0  0  0  0  0  0
   -5.6273    1.6846   -3.8920 C   0  0  0  0  0  0  0  0  0  0  0  0
   -4.7007    1.6427   -4.9399 C   0  0  0  0  0  0  0  0  0  0  0  0
   -6.8168    1.0422   -4.0328 F   0  0  0  0  0  0  0  0  0  0  0  0
   -3.7973    3.7857   -1.4919 F   0  0  0  0  0  0  0  0  0  0  0  0
   -1.2472    1.6606   -5.8162 C   0  0  0  0  0  0  0  0  0  0  0  0
   -0.5907    1.0191   -4.4323 S   0  0  0  0  0  0  0  0  0  0  0  0
   -3.8278    3.8218   -7.3607 C   0  0  0  0  0  0  0  0  0  0  0  0
   -3.8085    4.4303   -8.6143 C   0  0  0  0  0  0  0  0  0  0  0  0
   -2.3756    3.9746   -9.3947 S   0  0  0  0  0  0  0  0  0  0  0  0
   -4.6621    5.5631   -9.0394 C   0  0  0  0  0  0  0  0  0  0  0  0
   -5.9229    5.7965   -8.6097 C   0  0  0  0  0  0  0  0  0  0  0  0
   -6.7204    4.9519   -7.7143 C   0  0  0  0  0  0  0  0  0  0  0  0
   -6.6934    3.6916   -7.6552 O   0  0  0  0  0  0  0  0  0  0  0  0
   -7.6715    5.7977   -7.0230 C   0  0  0  0  0  0  0  0  0  0  0  0
   -8.5149    5.4622   -5.9621 C   0  0  0  0  0  0  0  0  0  0  0  0
   -9.2848    6.4785   -5.3783 C   0  0  0  0  0  0  0  0  0  0  0  0
  -10.0860    6.1946   -4.3199 F   0  0  0  0  0  0  0  0  0  0  0  0
   -9.1931    7.7995   -5.8544 C   0  0  0  0  0  0  0  0  0  0  0  0
   -8.3526    8.1083   -6.9420 C   0  0  0  0  0  0  0  0  0  0  0  0
   -7.5981    7.0807   -7.5308 C   0  0  0  0  0  0  0  0  0  0  0  0
   -6.6182    7.1161   -8.6486 C   0  0  0  0  0  0  0  0  0  0  0  0
   -6.5503    8.0319   -9.6458 C   0  0  0  0  0  0  0  0  0  0  0  0
   -7.3088    9.2568   -9.6255 C   0  0  0  0  0  0  0  0  0  0  0  0
   -7.9207   10.2401   -9.6172 N   0  0  0  0  0  0  0  0  0  0  0  0
   -5.8310    7.7705  -10.8693 C   0  0  0  0  0  0  0  0  0  0  0  0
   -5.2558    7.5689  -11.8541 N   0  0  0  0  0  0  0  0  0  0  0  0
    2.6127   -1.9917   13.5525 H   0  0  0  0  0  0  0  0  0  0  0  0
    0.1701    3.1359   10.9459 H   0  0  0  0  0  0  0  0  0  0  0  0
    3.1676    5.3830   13.0643 H   0  0  0  0  0  0  0  0  0  0  0  0
    3.8505    3.3665   14.2775 H   0  0  0  0  0  0  0  0  0  0  0  0
   -0.8440   -2.2481   12.1272 H   0  0  0  0  0  0  0  0  0  0  0  0
   -2.4003   -1.8159   10.0845 H   0  0  0  0  0  0  0  0  0  0  0  0
   -4.5464   -2.5182    9.1010 H   0  0  0  0  0  0  0  0  0  0  0  0
   -4.8524   -4.8399    8.2758 H   0  0  0  0  0  0  0  0  0  0  0  0
   -3.0046   -6.4764    8.4870 H   0  0  0  0  0  0  0  0  0  0  0  0
   -0.8557   -5.8043    9.4934 H   0  0  0  0  0  0  0  0  0  0  0  0
    3.4760   -4.6716    8.4994 H   0  0  0  0  0  0  0  0  0  0  0  0
    0.7785   -1.2567    3.9365 H   0  0  0  0  0  0  0  0  0  0  0  0
   -0.0508   -2.1504    5.1675 H   0  0  0  0  0  0  0  0  0  0  0  0
   -0.5604   -0.1527    2.2011 H   0  0  0  0  0  0  0  0  0  0  0  0
   -2.7599    0.3855    1.2580 H   0  0  0  0  0  0  0  0  0  0  0  0
   -5.2669    0.3608    1.6953 H   0  0  0  0  0  0  0  0  0  0  0  0
   -5.9842   -1.0279    2.5676 H   0  0  0  0  0  0  0  0  0  0  0  0
   -6.3984   -1.2861    0.1615 H   0  0  0  0  0  0  0  0  0  0  0  0
   -4.6561   -1.0764   -0.2192 H   0  0  0  0  0  0  0  0  0  0  0  0
   -5.2172   -2.5581    0.6646 H   0  0  0  0  0  0  0  0  0  0  0  0
   -4.5775   -2.5790    3.8022 H   0  0  0  0  0  0  0  0  0  0  0  0
   -2.3760   -3.1317    4.7317 H   0  0  0  0  0  0  0  0  0  0  0  0
   -0.7810   -5.5328    4.6296 H   0  0  0  0  0  0  0  0  0  0  0  0
   -2.5843   -6.8287    3.6426 H   0  0  0  0  0  0  0  0  0  0  0  0
   -4.3895   -6.8563    1.9851 H   0  0  0  0  0  0  0  0  0  0  0  0
   -4.2594   -5.9293    0.4609 H   0  0  0  0  0  0  0  0  0  0  0  0
   -4.1420   -8.4042    0.1106 H   0  0  0  0  0  0  0  0  0  0  0  0
   -2.6517   -8.4892    1.1268 H   0  0  0  0  0  0  0  0  0  0  0  0
   -2.6394   -7.5899   -0.4538 H   0  0  0  0  0  0  0  0  0  0  0  0
   -2.1698   -4.6588   -0.0484 H   0  0  0  0  0  0  0  0  0  0  0  0
   -0.3460   -3.3693    0.9013 H   0  0  0  0  0  0  0  0  0  0  0  0
    1.0202   -1.5065    1.3954 H   0  0  0  0  0  0  0  0  0  0  0  0
    5.2307   -5.3968    2.9283 H   0  0  0  0  0  0  0  0  0  0  0  0
    7.1410   -5.2505    1.3979 H   0  0  0  0  0  0  0  0  0  0  0  0
    7.1878   -3.6135   -0.4129 H   0  0  0  0  0  0  0  0  0  0  0  0
    6.3820   -1.1232    1.4669 H   0  0  0  0  0  0  0  0  0  0  0  0
    7.7653    0.7352    2.1518 H   0  0  0  0  0  0  0  0  0  0  0  0
    9.0789    3.3871   -0.2114 H   0  0  0  0  0  0  0  0  0  0  0  0
    9.5611    2.4582    1.2439 H   0  0  0  0  0  0  0  0  0  0  0  0
    6.9688    4.1259    0.9597 H   0  0  0  0  0  0  0  0  0  0  0  0
    7.5042    3.2330    2.4438 H   0  0  0  0  0  0  0  0  0  0  0  0
    8.4659    4.6274    1.8325 H   0  0  0  0  0  0  0  0  0  0  0  0
    7.7404    2.2857   -1.8646 H   0  0  0  0  0  0  0  0  0  0  0  0
    6.3632    0.4046   -2.5894 H   0  0  0  0  0  0  0  0  0  0  0  0
    7.8979   -1.9017   -2.1864 H   0  0  0  0  0  0  0  0  0  0  0  0
    8.5764   -2.8672   -4.3085 H   0  0  0  0  0  0  0  0  0  0  0  0
    6.5936   -5.1166   -6.3245 H   0  0  0  0  0  0  0  0  0  0  0  0
    8.1108   -4.1706   -6.2655 H   0  0  0  0  0  0  0  0  0  0  0  0
    6.8838   -2.1554   -7.1801 H   0  0  0  0  0  0  0  0  0  0  0  0
    6.8610   -3.5774   -8.2918 H   0  0  0  0  0  0  0  0  0  0  0  0
    5.3924   -3.1718   -7.3286 H   0  0  0  0  0  0  0  0  0  0  0  0
    4.5289   -4.1349   -5.0503 H   0  0  0  0  0  0  0  0  0  0  0  0
    3.8225   -3.1501   -2.9211 H   0  0  0  0  0  0  0  0  0  0  0  0
    1.0523    2.1144   -2.5163 H   0  0  0  0  0  0  0  0  0  0  0  0
    1.9380    1.4498   -6.8947 H   0  0  0  0  0  0  0  0  0  0  0  0
    0.6507    4.3728   -9.3981 H   0  0  0  0  0  0  0  0  0  0  0  0
    3.0490    2.7888  -13.1828 H   0  0  0  0  0  0  0  0  0  0  0  0
    2.9172    1.0115  -13.1135 H   0  0  0  0  0  0  0  0  0  0  0  0
    4.7007    0.9136  -11.3604 H   0  0  0  0  0  0  0  0  0  0  0  0
    5.2748    1.7623  -12.8419 H   0  0  0  0  0  0  0  0  0  0  0  0
    4.8268    2.7204  -11.3854 H   0  0  0  0  0  0  0  0  0  0  0  0
    0.3833    0.0760   -9.2105 H   0  0  0  0  0  0  0  0  0  0  0  0
   -2.2391    3.5562   -3.5641 H   0  0  0  0  0  0  0  0  0  0  0  0
   -5.8440    2.6586   -0.6218 H   0  0  0  0  0  0  0  0  0  0  0  0
   -6.8546    1.4773   -1.4935 H   0  0  0  0  0  0  0  0  0  0  0  0
   -6.8971    4.5508   -1.8066 H   0  0  0  0  0  0  0  0  0  0  0  0
   -7.8448    3.4105   -2.8557 H   0  0  0  0  0  0  0  0  0  0  0  0
   -8.1767    3.4984   -1.0844 H   0  0  0  0  0  0  0  0  0  0  0  0
   -4.9457    1.0947   -5.8435 H   0  0  0  0  0  0  0  0  0  0  0  0
   -4.5293    4.0732   -6.5837 H   0  0  0  0  0  0  0  0  0  0  0  0
   -4.1537    6.3121   -9.6242 H   0  0  0  0  0  0  0  0  0  0  0  0
   -8.5530    4.4493   -5.5807 H   0  0  0  0  0  0  0  0  0  0  0  0
   -9.7768    8.5812   -5.3928 H   0  0  0  0  0  0  0  0  0  0  0  0
   -8.2766    9.1317   -7.2550 H   0  0  0  0  0  0  0  0  0  0  0  0
  1  2  2  3
  2  3  1  0
  3  4  2  0
  3  5  1  0
  5  6  2  0
  6  7  1  0
  7  8  1  0
  7  9  2  0
  9 10  1  0
 10 11  2  0
 11 12  1  0
 12 13  2  3
 13 14  1  0
 14 15  3  0
 13 16  1  0
 16 17  3  0
  1 18  1  0
 18 19  2  0
 19 20  1  0
 20 21  1  0
 21 22  2  0
 22 23  1  0
 23 24  2  0
 24 25  1  0
 25 26  2  0
 20 27  2  0
 27 28  1  0
 27 29  1  0
 29 30  2  0
 30 31  1  0
 31 32  1  0
 32 33  1  0
 33 34  1  0
 34 35  2  0
 35 36  1  0
 36 37  1  0
 37 38  1  0
 38 39  2  0
 39 40  1  0
 40 41  2  0
 41 42  1  0
 42 43  1  0
 41 44  1  0
 44 45  2  0
 36 46  1  0
 46 47  2  0
 47 48  1  0
 48 49  2  0
 49 50  1  0
 50 51  1  0
 49 52  1  0
 52 53  2  0
 36 54  1  0
 54 55  1  0
 55 56  1  0
 35 57  1  0
 57 58  2  0
 58 59  1  0
 59 60  2  0
 60 61  1  0
 61 62  1  0
 62 63  1  0
 63 64  2  0
 64 65  1  0
 65 66  2  0
 66 67  1  0
 61 68  1  0
 68 69  2  0
 69 70  1  0
 70 71  2  0
 71 72  1  0
 72 73  1  0
 71 74  1  0
 74 75  2  0
 61 76  1  0
 76 77  2  0
 77 78  1  0
 78 79  2  0
 79 80  1  0
 80 81  1  0
 79 82  1  0
 82 83  2  0
 60 84  1  0
 84 85  2  0
 85 86  1  0
 85 87  1  0
 87 88  2  0
 88 89  1  0
 88 90  1  0
 90 91  2  0
 91 92  1  0
 92 93  2  0
 93 94  1  0
 94 95  2  0
 95 96  1  0
 96 97  1  0
 96 98  2  0
 98 99  1  0
 99100  1  0
 98101  1  0
101102  1  0
101103  2  0
 93104  1  0
104105  2  0
105106  1  0
106107  1  0
107108  2  0
108109  1  0
109110  2  0
110111  1  0
111112  1  0
110113  1  0
113114  2  0
113115  1  0
109116  1  0
106117  2  0
117118  1  0
105119  1  0
119120  2  0
120121  1  0
120122  1  0
122123  2  3
123124  1  0
124125  2  0
124126  1  0
126127  2  0
127128  1  0
128129  1  0
128130  2  0
130131  1  0
131132  2  0
132133  1  0
133134  2  3
134135  1  0
135136  3  0
134137  1  0
137138  3  0
 12  2  1  0
 28 18  1  0
 56 29  1  0
 63 58  1  0
 75 68  1  0
 83 76  1  0
 89 84  1  0
118 90  1  0
133123  1  0
 11  5  1  0
 26 21  1  0
 55 31  2  0
 86 59  1  0
117 92  1  0
132126  1  0
 54 33  2  0
 67 62  2  0
103 94  1  0
121104  1  0
 64 34  1  0
114107  1  0
 45 38  1  0
 53 46  1  0
  1139  1  0
  6140  1  0
  9141  1  0
 10142  1  0
 19143  1  0
 22144  1  0
 23145  1  0
 24146  1  0
 25147  1  0
 26148  1  0
 30149  1  0
 37150  1  0
 37151  1  0
 39152  1  0
 40153  1  0
 42154  1  0
 42155  1  0
 43156  1  0
 43157  1  0
 43158  1  0
 44159  1  0
 45160  1  0
 47161  1  0
 48162  1  0
 50163  1  0
 50164  1  0
 51165  1  0
 51166  1  0
 51167  1  0
 52168  1  0
 53169  1  0
 57170  1  0
 65171  1  0
 66172  1  0
 67173  1  0
 69174  1  0
 70175  1  0
 72176  1  0
 72177  1  0
 73178  1  0
 73179  1  0
 73180  1  0
 74181  1  0
 75182  1  0
 77183  1  0
 78184  1  0
 80185  1  0
 80186  1  0
 81187  1  0
 81188  1  0
 81189  1  0
 82190  1  0
 83191  1  0
 87192  1  0
 91193  1  0
 95194  1  0
 99195  1  0
 99196  1  0
100197  1  0
100198  1  0
100199  1  0
103200  1  0
108201  1  0
111202  1  0
111203  1  0
112204  1  0
112205  1  0
112206  1  0
114207  1  0
119208  1  0
122209  1  0
127210  1  0
130211  1  0
131212  1  0
M  END

