
     RDKit          3D

145161  0  0  0  0  0  0  0  0999 V2000
   -3.1749    5.7197    4.7274 C   0  0  0  0  0  0  0  0  0  0  0  0
   -3.8318    4.5910    5.0553 C   0  0  0  0  0  0  0  0  0  0  0  0
   -3.1841    3.3188    5.3943 C   0  0  0  0  0  0  0  0  0  0  0  0
   -1.9681    3.1432    5.6786 O   0  0  0  0  0  0  0  0  0  0  0  0
   -4.1927    2.2854    5.4208 C   0  0  0  0  0  0  0  0  0  0  0  0
   -4.0094    0.9259    5.6816 C   0  0  0  0  0  0  0  0  0  0  0  0
   -5.1295    0.0827    5.6610 C   0  0  0  0  0  0  0  0  0  0  0  0
   -4.9846   -1.2441    5.9060 F   0  0  0  0  0  0  0  0  0  0  0  0
   -6.4022    0.6113    5.3822 C   0  0  0  0  0  0  0  0  0  0  0  0
   -6.5673    1.9866    5.1333 C   0  0  0  0  0  0  0  0  0  0  0  0
   -5.4415    2.8331    5.1657 C   0  0  0  0  0  0  0  0  0  0  0  0
   -5.3094    4.3163    4.9970 C   0  0  0  0  0  0  0  0  0  0  0  0
   -6.3229    5.2211    4.8982 C   0  0  0  0  0  0  0  0  0  0  0  0
   -6.1141    6.6452    4.9638 C   0  0  0  0  0  0  0  0  0  0  0  0
   -5.9636    7.7895    5.0261 N   0  0  0  0  0  0  0  0  0  0  0  0
   -7.7034    4.8387    4.7636 C   0  0  0  0  0  0  0  0  0  0  0  0
   -8.8186    4.5501    4.6527 N   0  0  0  0  0  0  0  0  0  0  0  0
   -1.7173    5.7694    4.5441 C   0  0  0  0  0  0  0  0  0  0  0  0
   -0.8370    6.6145    5.2072 C   0  0  0  0  0  0  0  0  0  0  0  0
    0.4904    6.4796    4.7695 C   0  0  0  0  0  0  0  0  0  0  0  0
    1.8141    7.4814    5.4505 S   0  0  0  0  0  0  0  0  0  0  0  0
    1.6529    8.8300    4.2254 C   0  0  0  0  0  0  0  0  0  0  0  0
    2.8472    8.8236    3.2797 C   0  0  0  0  0  0  0  0  0  0  0  0
    0.6498    5.5366    3.7505 C   0  0  0  0  0  0  0  0  0  0  0  0
   -0.8671    4.8988    3.3852 S   0  0  0  0  0  0  0  0  0  0  0  0
    1.8942    5.1149    3.0850 C   0  0  0  0  0  0  0  0  0  0  0  0
    3.0764    4.6724    3.7075 C   0  0  0  0  0  0  0  0  0  0  0  0
    3.2741    4.5444    5.1641 C   0  0  0  0  0  0  0  0  0  0  0  0
    4.4456    5.0479    5.7545 C   0  0  0  0  0  0  0  0  0  0  0  0
    4.6354    4.9481    7.1348 C   0  0  0  0  0  0  0  0  0  0  0  0
    3.6667    4.3352    7.9336 C   0  0  0  0  0  0  0  0  0  0  0  0
    2.5119    3.7902    7.3504 C   0  0  0  0  0  0  0  0  0  0  0  0
    1.4651    3.1249    8.2043 C   0  0  0  0  0  0  0  0  0  0  0  0
    0.3297    4.0949    8.5156 C   0  0  0  0  0  0  0  0  0  0  0  0
    2.3162    3.9064    5.9674 C   0  0  0  0  0  0  0  0  0  0  0  0
    3.9422    4.0794    2.7828 C   0  0  0  0  0  0  0  0  0  0  0  0
    5.1336    2.9114    3.0421 S   0  0  0  0  0  0  0  0  0  0  0  0
    5.0819    2.3783    1.4344 C   0  0  0  0  0  0  0  0  0  0  0  0
    5.1267    1.1006    0.9407 C   0  0  0  0  0  0  0  0  0  0  0  0
    5.3566   -0.0804    1.6699 C   0  0  0  0  0  0  0  0  0  0  0  0
    4.7639   -1.2968    1.2233 C   0  0  0  0  0  0  0  0  0  0  0  0
    4.9342   -2.3936    2.0012 N   0  0  0  0  0  0  0  0  0  0  0  0
    5.8227   -1.7249    3.2312 S   0  0  0  0  0  0  0  0  0  0  0  0
    6.0223   -0.1274    2.8520 N   0  0  0  0  0  0  0  0  0  0  0  0
    4.0773   -1.2924    0.0132 C   0  0  0  0  0  0  0  0  0  0  0  0
    3.3994   -2.2640   -0.6582 C   0  0  0  0  0  0  0  0  0  0  0  0
    2.5918   -3.7106   -0.3021 S   0  0  0  0  0  0  0  0  0  0  0  0
    1.8400   -3.6995   -1.8398 C   0  0  0  0  0  0  0  0  0  0  0  0
    0.8155   -4.4597   -2.4218 C   0  0  0  0  0  0  0  0  0  0  0  0
   -0.0700   -5.3504   -1.6292 C   0  0  0  0  0  0  0  0  0  0  0  0
    0.4647   -6.2636   -0.7054 C   0  0  0  0  0  0  0  0  0  0  0  0
   -0.3801   -7.1055    0.0247 C   0  0  0  0  0  0  0  0  0  0  0  0
   -1.7642   -7.0509   -0.1644 C   0  0  0  0  0  0  0  0  0  0  0  0
   -2.3158   -6.1475   -1.0829 C   0  0  0  0  0  0  0  0  0  0  0  0
   -3.7991   -6.1173   -1.3480 C   0  0  0  0  0  0  0  0  0  0  0  0
   -4.4823   -5.0014   -0.5652 C   0  0  0  0  0  0  0  0  0  0  0  0
   -1.4673   -5.2716   -1.7766 C   0  0  0  0  0  0  0  0  0  0  0  0
    0.5327   -3.9890   -3.7305 C   0  0  0  0  0  0  0  0  0  0  0  0
    1.4008   -2.5464   -4.0214 S   0  0  0  0  0  0  0  0  0  0  0  0
    2.2156   -2.5960   -2.5665 C   0  0  0  0  0  0  0  0  0  0  0  0
    3.0466   -1.7492   -1.8560 C   0  0  0  0  0  0  0  0  0  0  0  0
    3.3874   -0.4452   -1.9861 N   0  0  0  0  0  0  0  0  0  0  0  0
    3.9713   -0.1481   -0.7826 C   0  0  0  0  0  0  0  0  0  0  0  0
    4.3354    1.1026   -0.2220 C   0  0  0  0  0  0  0  0  0  0  0  0
    3.6710    2.2994   -0.3363 N   0  0  0  0  0  0  0  0  0  0  0  0
    4.1389    3.0525    0.7015 C   0  0  0  0  0  0  0  0  0  0  0  0
    3.4883    4.0257    1.4828 C   0  0  0  0  0  0  0  0  0  0  0  0
    1.9600    4.7185    1.4366 S   0  0  0  0  0  0  0  0  0  0  0  0
    2.3982    2.5517   -1.0322 C   0  0  0  0  0  0  0  0  0  0  0  0
    2.5222    3.7545   -1.9619 C   0  0  0  0  0  0  0  0  0  0  0  0
    3.4546    0.3103   -3.2421 C   0  0  0  0  0  0  0  0  0  0  0  0
    4.4442   -0.3297   -4.2147 C   0  0  0  0  0  0  0  0  0  0  0  0
   -0.3986   -4.5626   -4.7274 C   0  0  0  0  0  0  0  0  0  0  0  0
   -0.9007   -5.8620   -4.8486 C   0  0  0  0  0  0  0  0  0  0  0  0
   -0.6097   -7.1865   -4.2999 C   0  0  0  0  0  0  0  0  0  0  0  0
    0.2955   -7.4654   -3.4676 O   0  0  0  0  0  0  0  0  0  0  0  0
   -1.4004   -8.1804   -4.9597 N   0  0  0  0  0  0  0  0  0  0  0  0
   -1.8014   -9.4536   -4.3805 C   0  0  0  0  0  0  0  0  0  0  0  0
   -2.1404   -7.4569   -5.9478 C   0  0  0  0  0  0  0  0  0  0  0  0
   -2.9799   -7.9737   -6.7318 O   0  0  0  0  0  0  0  0  0  0  0  0
   -1.7871   -6.0500   -5.8837 C   0  0  0  0  0  0  0  0  0  0  0  0
   -1.9444   -4.9715   -6.7304 C   0  0  0  0  0  0  0  0  0  0  0  0
   -1.0325   -3.7176   -6.0529 S   0  0  0  0  0  0  0  0  0  0  0  0
   -2.6455   -4.9569   -8.0220 C   0  0  0  0  0  0  0  0  0  0  0  0
   -2.1055   -4.4736   -9.1549 C   0  0  0  0  0  0  0  0  0  0  0  0
   -2.9152   -3.9554  -10.2589 C   0  0  0  0  0  0  0  0  0  0  0  0
   -4.1370   -4.1872  -10.4595 O   0  0  0  0  0  0  0  0  0  0  0  0
   -2.0895   -3.0565  -11.0402 C   0  0  0  0  0  0  0  0  0  0  0  0
   -2.4584   -2.2583  -12.1259 C   0  0  0  0  0  0  0  0  0  0  0  0
   -1.4906   -1.4068  -12.6851 C   0  0  0  0  0  0  0  0  0  0  0  0
   -1.8104   -0.6293  -13.7538 F   0  0  0  0  0  0  0  0  0  0  0  0
   -0.2019   -1.3370  -12.1286 C   0  0  0  0  0  0  0  0  0  0  0  0
    0.1487   -2.1489  -11.0397 C   0  0  0  0  0  0  0  0  0  0  0  0
   -0.8082   -3.0323  -10.5135 C   0  0  0  0  0  0  0  0  0  0  0  0
   -0.7007   -4.0278   -9.4148 C   0  0  0  0  0  0  0  0  0  0  0  0
    0.4301   -4.6820   -9.0412 C   0  0  0  0  0  0  0  0  0  0  0  0
    0.3942   -5.9622   -8.3814 C   0  0  0  0  0  0  0  0  0  0  0  0
    0.3814   -6.9974   -7.8621 N   0  0  0  0  0  0  0  0  0  0  0  0
    1.7410   -4.2491   -9.4458 C   0  0  0  0  0  0  0  0  0  0  0  0
    2.8015   -3.9162   -9.7666 N   0  0  0  0  0  0  0  0  0  0  0  0
   -3.6906    6.6317    4.5051 H   0  0  0  0  0  0  0  0  0  0  0  0
   -3.0256    0.5255    5.9005 H   0  0  0  0  0  0  0  0  0  0  0  0
   -7.2653   -0.0391    5.3698 H   0  0  0  0  0  0  0  0  0  0  0  0
   -7.5605    2.3401    4.9294 H   0  0  0  0  0  0  0  0  0  0  0  0
   -1.1469    7.3173    5.9692 H   0  0  0  0  0  0  0  0  0  0  0  0
    0.7134    8.7489    3.6372 H   0  0  0  0  0  0  0  0  0  0  0  0
    1.6316    9.7939    4.7741 H   0  0  0  0  0  0  0  0  0  0  0  0
    2.9223    7.8538    2.7430 H   0  0  0  0  0  0  0  0  0  0  0  0
    3.7845    8.9934    3.8523 H   0  0  0  0  0  0  0  0  0  0  0  0
    2.7349    9.6403    2.5341 H   0  0  0  0  0  0  0  0  0  0  0  0
    5.1978    5.5441    5.1526 H   0  0  0  0  0  0  0  0  0  0  0  0
    5.5303    5.3532    7.5896 H   0  0  0  0  0  0  0  0  0  0  0  0
    3.8256    4.2653    9.0020 H   0  0  0  0  0  0  0  0  0  0  0  0
    1.0576    2.2330    7.6774 H   0  0  0  0  0  0  0  0  0  0  0  0
    1.9105    2.7673    9.1590 H   0  0  0  0  0  0  0  0  0  0  0  0
   -0.4266    3.5907    9.1551 H   0  0  0  0  0  0  0  0  0  0  0  0
    0.7235    4.9818    9.0562 H   0  0  0  0  0  0  0  0  0  0  0  0
   -0.1654    4.4290    7.5772 H   0  0  0  0  0  0  0  0  0  0  0  0
    1.4194    3.4994    5.5160 H   0  0  0  0  0  0  0  0  0  0  0  0
    1.5333   -6.3591   -0.5716 H   0  0  0  0  0  0  0  0  0  0  0  0
    0.0387   -7.8143    0.7294 H   0  0  0  0  0  0  0  0  0  0  0  0
   -2.4041   -7.7214    0.3972 H   0  0  0  0  0  0  0  0  0  0  0  0
   -4.2589   -7.0887   -1.0765 H   0  0  0  0  0  0  0  0  0  0  0  0
   -3.9820   -5.9649   -2.4346 H   0  0  0  0  0  0  0  0  0  0  0  0
   -4.4074   -5.2045    0.5261 H   0  0  0  0  0  0  0  0  0  0  0  0
   -5.5480   -4.9542   -0.8576 H   0  0  0  0  0  0  0  0  0  0  0  0
   -4.0074   -4.0199   -0.7871 H   0  0  0  0  0  0  0  0  0  0  0  0
   -1.8992   -4.5475   -2.4535 H   0  0  0  0  0  0  0  0  0  0  0  0
    2.0513    1.6757   -1.6039 H   0  0  0  0  0  0  0  0  0  0  0  0
    1.5852    2.7197   -0.3002 H   0  0  0  0  0  0  0  0  0  0  0  0
    2.7733    4.6698   -1.3870 H   0  0  0  0  0  0  0  0  0  0  0  0
    3.3174    3.5896   -2.7183 H   0  0  0  0  0  0  0  0  0  0  0  0
    1.5590    3.9229   -2.4979 H   0  0  0  0  0  0  0  0  0  0  0  0
    3.8082    1.3424   -3.0522 H   0  0  0  0  0  0  0  0  0  0  0  0
    2.4455    0.3565   -3.7072 H   0  0  0  0  0  0  0  0  0  0  0  0
    4.1070   -1.3458   -4.5079 H   0  0  0  0  0  0  0  0  0  0  0  0
    5.4480   -0.3989   -3.7459 H   0  0  0  0  0  0  0  0  0  0  0  0
    4.5209    0.2928   -5.1324 H   0  0  0  0  0  0  0  0  0  0  0  0
   -2.5832   -9.2818   -3.6106 H   0  0  0  0  0  0  0  0  0  0  0  0
   -0.9258   -9.9502   -3.9059 H   0  0  0  0  0  0  0  0  0  0  0  0
   -2.2093  -10.1201   -5.1661 H   0  0  0  0  0  0  0  0  0  0  0  0
   -3.6970   -5.2278   -8.0114 H   0  0  0  0  0  0  0  0  0  0  0  0
   -3.4674   -2.2847  -12.5180 H   0  0  0  0  0  0  0  0  0  0  0  0
    0.5291   -0.6530  -12.5444 H   0  0  0  0  0  0  0  0  0  0  0  0
    1.1333   -2.0486  -10.6134 H   0  0  0  0  0  0  0  0  0  0  0  0
  1  2  2  3
  2  3  1  0
  3  4  2  0
  3  5  1  0
  5  6  2  0
  6  7  1  0
  7  8  1  0
  7  9  2  0
  9 10  1  0
 10 11  2  0
 11 12  1  0
 12 13  2  3
 13 14  1  0
 14 15  3  0
 13 16  1  0
 16 17  3  0
  1 18  1  0
 18 19  2  0
 19 20  1  0
 20 21  1  0
 21 22  1  0
 22 23  1  0
 20 24  2  0
 24 25  1  0
 24 26  1  0
 26 27  2  0
 27 28  1  0
 28 29  2  0
 29 30  1  0
 30 31  2  0
 31 32  1  0
 32 33  1  0
 33 34  1  0
 32 35  2  0
 27 36  1  0
 36 37  1  0
 37 38  1  0
 38 39  1  0
 39 40  1  0
 40 41  1  0
 41 42  2  0
 42 43  1  0
 43 44  1  0
 41 45  1  0
 45 46  1  0
 46 47  1  0
 47 48  1  0
 48 49  1  0
 49 50  1  0
 50 51  2  0
 51 52  1  0
 52 53  2  0
 53 54  1  0
 54 55  1  0
 55 56  1  0
 54 57  2  0
 49 58  2  0
 58 59  1  0
 59 60  1  0
 60 61  1  0
 61 62  1  0
 62 63  1  0
 63 64  1  0
 64 65  1  0
 65 66  1  0
 66 67  1  0
 67 68  1  0
 65 69  1  0
 69 70  1  0
 62 71  1  0
 71 72  1  0
 58 73  1  0
 73 74  2  0
 74 75  1  0
 75 76  2  0
 75 77  1  0
 77 78  1  0
 77 79  1  0
 79 80  2  0
 79 81  1  0
 81 82  2  0
 82 83  1  0
 82 84  1  0
 84 85  2  3
 85 86  1  0
 86 87  2  0
 86 88  1  0
 88 89  2  0
 89 90  1  0
 90 91  1  0
 90 92  2  0
 92 93  1  0
 93 94  2  0
 94 95  1  0
 95 96  2  3
 96 97  1  0
 97 98  3  0
 96 99  1  0
 99100  3  0
 12  2  1  0
 25 18  1  0
 68 26  1  0
 83 73  1  0
 95 85  1  0
 11  5  1  0
 35 28  1  0
 67 36  2  0
 81 74  1  0
 94 88  1  0
 66 38  2  0
 64 39  2  0
 44 40  2  0
 63 45  2  0
 61 46  2  0
 60 48  2  0
 57 50  1  0
  1101  1  0
  6102  1  0
  9103  1  0
 10104  1  0
 19105  1  0
 22106  1  0
 22107  1  0
 23108  1  0
 23109  1  0
 23110  1  0
 29111  1  0
 30112  1  0
 31113  1  0
 33114  1  0
 33115  1  0
 34116  1  0
 34117  1  0
 34118  1  0
 35119  1  0
 51120  1  0
 52121  1  0
 53122  1  0
 55123  1  0
 55124  1  0
 56125  1  0
 56126  1  0
 56127  1  0
 57128  1  0
 69129  1  0
 69130  1  0
 70131  1  0
 70132  1  0
 70133  1  0
 71134  1  0
 71135  1  0
 72136  1  0
 72137  1  0
 72138  1  0
 78139  1  0
 78140  1  0
 78141  1  0
 84142  1  0
 89143  1  0
 92144  1  0
 93145  1  0
M  END

