
     RDKit          3D

151167  0  0  0  0  0  0  0  0999 V2000
   -0.0567   -7.1367   -5.7581 C   0  0  0  0  0  0  0  0  0  0  0  0
    1.1812   -7.3862   -6.3103 C   0  0  0  0  0  0  0  0  0  0  0  0
    1.6375   -6.7238   -7.5413 C   0  0  0  0  0  0  0  0  0  0  0  0
    0.9317   -6.5008   -8.5654 O   0  0  0  0  0  0  0  0  0  0  0  0
    2.9887   -6.2909   -7.3476 C   0  0  0  0  0  0  0  0  0  0  0  0
    3.5953   -5.1583   -7.9075 C   0  0  0  0  0  0  0  0  0  0  0  0
    4.7964   -4.7183   -7.3334 C   0  0  0  0  0  0  0  0  0  0  0  0
    5.2321   -3.4603   -7.5584 F   0  0  0  0  0  0  0  0  0  0  0  0
    5.4854   -5.5029   -6.3938 C   0  0  0  0  0  0  0  0  0  0  0  0
    4.8435   -6.6147   -5.8109 C   0  0  0  0  0  0  0  0  0  0  0  0
    3.5280   -6.9033   -6.2198 C   0  0  0  0  0  0  0  0  0  0  0  0
    2.4296   -7.6463   -5.5051 C   0  0  0  0  0  0  0  0  0  0  0  0
    2.5222   -8.3633   -4.3287 C   0  0  0  0  0  0  0  0  0  0  0  0
    1.4268   -9.0679   -3.7242 C   0  0  0  0  0  0  0  0  0  0  0  0
    0.5592   -9.6132   -3.1959 N   0  0  0  0  0  0  0  0  0  0  0  0
    3.6529   -8.1627   -3.4597 C   0  0  0  0  0  0  0  0  0  0  0  0
    4.5705   -7.8738   -2.7884 N   0  0  0  0  0  0  0  0  0  0  0  0
   -0.9985   -6.0682   -6.2269 C   0  0  0  0  0  0  0  0  0  0  0  0
   -0.6745   -4.8375   -6.8288 C   0  0  0  0  0  0  0  0  0  0  0  0
   -1.7318   -3.9158   -6.9218 C   0  0  0  0  0  0  0  0  0  0  0  0
   -1.4941   -2.3600   -7.7834 S   0  0  0  0  0  0  0  0  0  0  0  0
   -1.1616   -1.3439   -6.2986 C   0  0  0  0  0  0  0  0  0  0  0  0
   -0.6213    0.0217   -6.7299 C   0  0  0  0  0  0  0  0  0  0  0  0
   -2.9289   -4.3636   -6.3254 C   0  0  0  0  0  0  0  0  0  0  0  0
   -2.6199   -5.9253   -5.7321 S   0  0  0  0  0  0  0  0  0  0  0  0
   -3.9610   -3.4965   -5.7173 C   0  0  0  0  0  0  0  0  0  0  0  0
   -4.5505   -2.3279   -6.2851 C   0  0  0  0  0  0  0  0  0  0  0  0
   -4.6619   -2.0539   -7.7403 C   0  0  0  0  0  0  0  0  0  0  0  0
   -5.0634   -3.0690   -8.6206 C   0  0  0  0  0  0  0  0  0  0  0  0
   -5.2283   -2.7915   -9.9910 C   0  0  0  0  0  0  0  0  0  0  0  0
   -4.9880   -1.5060  -10.4873 C   0  0  0  0  0  0  0  0  0  0  0  0
   -4.5867   -0.4897   -9.6156 C   0  0  0  0  0  0  0  0  0  0  0  0
   -4.2995    0.9020  -10.1201 C   0  0  0  0  0  0  0  0  0  0  0  0
   -2.8806    0.9981  -10.6627 C   0  0  0  0  0  0  0  0  0  0  0  0
   -4.4066   -0.7685   -8.2424 C   0  0  0  0  0  0  0  0  0  0  0  0
   -5.0421   -1.4673   -5.2874 C   0  0  0  0  0  0  0  0  0  0  0  0
   -5.4625    0.2099   -5.2395 S   0  0  0  0  0  0  0  0  0  0  0  0
   -5.4736    0.1864   -3.5294 C   0  0  0  0  0  0  0  0  0  0  0  0
   -5.3955    1.0626   -2.4680 C   0  0  0  0  0  0  0  0  0  0  0  0
   -5.4141    2.4694   -2.4481 C   0  0  0  0  0  0  0  0  0  0  0  0
   -5.0627    3.1418   -1.2332 C   0  0  0  0  0  0  0  0  0  0  0  0
   -5.0145    4.5020   -1.2644 N   0  0  0  0  0  0  0  0  0  0  0  0
   -5.4465    4.7307   -2.8494 S   0  0  0  0  0  0  0  0  0  0  0  0
   -5.6855    3.2379   -3.5333 N   0  0  0  0  0  0  0  0  0  0  0  0
   -4.7106    2.3739   -0.1117 C   0  0  0  0  0  0  0  0  0  0  0  0
   -4.1023    2.7730    1.0566 C   0  0  0  0  0  0  0  0  0  0  0  0
   -3.2753    4.1554    1.6300 S   0  0  0  0  0  0  0  0  0  0  0  0
   -2.4654    3.2199    2.8204 C   0  0  0  0  0  0  0  0  0  0  0  0
   -1.4272    3.4759    3.7279 C   0  0  0  0  0  0  0  0  0  0  0  0
   -0.7760    4.7903    3.8895 C   0  0  0  0  0  0  0  0  0  0  0  0
   -0.6746    5.3708    5.1626 C   0  0  0  0  0  0  0  0  0  0  0  0
    0.0014    6.5806    5.3365 C   0  0  0  0  0  0  0  0  0  0  0  0
    0.5821    7.2127    4.2330 C   0  0  0  0  0  0  0  0  0  0  0  0
    0.4684    6.6595    2.9463 C   0  0  0  0  0  0  0  0  0  0  0  0
    1.1172    7.3239    1.7644 C   0  0  0  0  0  0  0  0  0  0  0  0
    2.4531    6.6621    1.4512 C   0  0  0  0  0  0  0  0  0  0  0  0
   -0.1972    5.4269    2.7769 C   0  0  0  0  0  0  0  0  0  0  0  0
   -0.9452    2.2895    4.3199 C   0  0  0  0  0  0  0  0  0  0  0  0
   -1.7808    0.9615    3.6641 S   0  0  0  0  0  0  0  0  0  0  0  0
   -2.7975    1.8906    2.7085 C   0  0  0  0  0  0  0  0  0  0  0  0
   -3.7333    1.6401    1.7085 C   0  0  0  0  0  0  0  0  0  0  0  0
   -4.0797    0.5108    1.0459 N   0  0  0  0  0  0  0  0  0  0  0  0
   -4.6933    0.9544   -0.1161 C   0  0  0  0  0  0  0  0  0  0  0  0
   -5.0676    0.2740   -1.3332 C   0  0  0  0  0  0  0  0  0  0  0  0
   -4.9921   -1.0627   -1.7010 N   0  0  0  0  0  0  0  0  0  0  0  0
   -5.1847   -1.0436   -3.0394 C   0  0  0  0  0  0  0  0  0  0  0  0
   -4.9343   -1.9831   -4.0141 C   0  0  0  0  0  0  0  0  0  0  0  0
   -4.1177   -3.4428   -4.0238 S   0  0  0  0  0  0  0  0  0  0  0  0
   -5.2313   -2.2921   -0.9419 C   0  0  0  0  0  0  0  0  0  0  0  0
   -6.5473   -2.2246   -0.1684 C   0  0  0  0  0  0  0  0  0  0  0  0
   -3.6301   -0.8121    1.4723 C   0  0  0  0  0  0  0  0  0  0  0  0
   -2.3642   -1.2382    0.7316 C   0  0  0  0  0  0  0  0  0  0  0  0
    0.3109    2.1242    5.0736 C   0  0  0  0  0  0  0  0  0  0  0  0
    1.3169    1.2328    4.7132 C   0  0  0  0  0  0  0  0  0  0  0  0
    2.2268    0.9376    5.7463 C   0  0  0  0  0  0  0  0  0  0  0  0
    3.6220   -0.1955    5.5793 S   0  0  0  0  0  0  0  0  0  0  0  0
    2.6421   -1.6732    5.1099 C   0  0  0  0  0  0  0  0  0  0  0  0
    2.7738   -1.9333    3.6101 C   0  0  0  0  0  0  0  0  0  0  0  0
    1.9480    1.6571    6.9241 C   0  0  0  0  0  0  0  0  0  0  0  0
    0.5816    2.6208    6.6693 S   0  0  0  0  0  0  0  0  0  0  0  0
    2.5557    1.4067    8.2629 C   0  0  0  0  0  0  0  0  0  0  0  0
    3.2812    2.4446    8.7192 C   0  0  0  0  0  0  0  0  0  0  0  0
    3.0366    2.8123   10.1106 C   0  0  0  0  0  0  0  0  0  0  0  0
    2.3618    3.8219   10.3984 O   0  0  0  0  0  0  0  0  0  0  0  0
    4.2595    2.5163   10.8415 C   0  0  0  0  0  0  0  0  0  0  0  0
    4.4269    2.4872   12.2290 C   0  0  0  0  0  0  0  0  0  0  0  0
    5.7346    2.3465   12.7348 C   0  0  0  0  0  0  0  0  0  0  0  0
    5.9656    2.2936   14.1115 C   0  0  0  0  0  0  0  0  0  0  0  0
    7.2769    2.2016   14.5846 C   0  0  0  0  0  0  0  0  0  0  0  0
    8.3638    2.1632   13.7024 C   0  0  0  0  0  0  0  0  0  0  0  0
    9.6203    2.0885   14.1891 F   0  0  0  0  0  0  0  0  0  0  0  0
    8.1570    2.2019   12.3250 C   0  0  0  0  0  0  0  0  0  0  0  0
    6.8424    2.2628   11.8267 C   0  0  0  0  0  0  0  0  0  0  0  0
    6.6231    2.2338   10.4347 C   0  0  0  0  0  0  0  0  0  0  0  0
    5.3063    2.3517    9.9663 C   0  0  0  0  0  0  0  0  0  0  0  0
    4.7731    2.4340    8.5893 C   0  0  0  0  0  0  0  0  0  0  0  0
    5.4239    2.8050    7.4620 C   0  0  0  0  0  0  0  0  0  0  0  0
    4.6901    3.3156    6.3200 C   0  0  0  0  0  0  0  0  0  0  0  0
    4.0635    3.7691    5.4833 N   0  0  0  0  0  0  0  0  0  0  0  0
    6.8677    3.0013    7.4319 C   0  0  0  0  0  0  0  0  0  0  0  0
    8.0189    3.1660    7.4155 N   0  0  0  0  0  0  0  0  0  0  0  0
   -0.3277   -7.5649   -4.7995 H   0  0  0  0  0  0  0  0  0  0  0  0
    3.0733   -4.5491   -8.6361 H   0  0  0  0  0  0  0  0  0  0  0  0
    6.3460   -5.1144   -5.8913 H   0  0  0  0  0  0  0  0  0  0  0  0
    5.3417   -7.1527   -5.0265 H   0  0  0  0  0  0  0  0  0  0  0  0
    0.3364   -4.5536   -7.1234 H   0  0  0  0  0  0  0  0  0  0  0  0
   -2.1073   -1.2047   -5.7199 H   0  0  0  0  0  0  0  0  0  0  0  0
   -0.4068   -1.8355   -5.6413 H   0  0  0  0  0  0  0  0  0  0  0  0
    0.4845    0.0527   -6.6861 H   0  0  0  0  0  0  0  0  0  0  0  0
   -1.0418    0.8239   -6.0800 H   0  0  0  0  0  0  0  0  0  0  0  0
   -0.9101    0.2911   -7.7663 H   0  0  0  0  0  0  0  0  0  0  0  0
   -5.2772   -4.0735   -8.2627 H   0  0  0  0  0  0  0  0  0  0  0  0
   -5.5542   -3.5741  -10.6608 H   0  0  0  0  0  0  0  0  0  0  0  0
   -5.1232   -1.3114  -11.5469 H   0  0  0  0  0  0  0  0  0  0  0  0
   -4.4314    1.6572   -9.3061 H   0  0  0  0  0  0  0  0  0  0  0  0
   -5.0199    1.1576  -10.9261 H   0  0  0  0  0  0  0  0  0  0  0  0
   -2.7149    0.2638  -11.4866 H   0  0  0  0  0  0  0  0  0  0  0  0
   -2.7003    2.0149  -11.0644 H   0  0  0  0  0  0  0  0  0  0  0  0
   -2.1478    0.8079   -9.8461 H   0  0  0  0  0  0  0  0  0  0  0  0
   -4.0275   -0.0011   -7.5983 H   0  0  0  0  0  0  0  0  0  0  0  0
   -1.1072    4.8751    6.0188 H   0  0  0  0  0  0  0  0  0  0  0  0
    0.0769    7.0293    6.3134 H   0  0  0  0  0  0  0  0  0  0  0  0
    1.1152    8.1410    4.3794 H   0  0  0  0  0  0  0  0  0  0  0  0
    1.2720    8.4019    1.9741 H   0  0  0  0  0  0  0  0  0  0  0  0
    0.4452    7.2408    0.8798 H   0  0  0  0  0  0  0  0  0  0  0  0
    3.0853    6.5766    2.3670 H   0  0  0  0  0  0  0  0  0  0  0  0
    2.9958    7.2768    0.6987 H   0  0  0  0  0  0  0  0  0  0  0  0
    2.2844    5.6459    1.0319 H   0  0  0  0  0  0  0  0  0  0  0  0
   -0.2332    4.9692    1.7957 H   0  0  0  0  0  0  0  0  0  0  0  0
   -4.3554   -2.5618   -0.3309 H   0  0  0  0  0  0  0  0  0  0  0  0
   -5.3047   -3.1770   -1.6196 H   0  0  0  0  0  0  0  0  0  0  0  0
   -6.7176   -3.2086    0.3399 H   0  0  0  0  0  0  0  0  0  0  0  0
   -7.3922   -2.0180   -0.8757 H   0  0  0  0  0  0  0  0  0  0  0  0
   -6.5437   -1.4124    0.5860 H   0  0  0  0  0  0  0  0  0  0  0  0
   -3.4185   -0.8157    2.5648 H   0  0  0  0  0  0  0  0  0  0  0  0
   -4.4522   -1.5336    1.4216 H   0  0  0  0  0  0  0  0  0  0  0  0
   -2.4704   -1.1148   -0.3710 H   0  0  0  0  0  0  0  0  0  0  0  0
   -2.1346   -2.3046    0.9547 H   0  0  0  0  0  0  0  0  0  0  0  0
   -1.5111   -0.6015    1.0660 H   0  0  0  0  0  0  0  0  0  0  0  0
    1.3488    0.7466    3.7442 H   0  0  0  0  0  0  0  0  0  0  0  0
    3.0657   -2.5403    5.6586 H   0  0  0  0  0  0  0  0  0  0  0  0
    1.5682   -1.5742    5.3839 H   0  0  0  0  0  0  0  0  0  0  0  0
    3.7113   -2.5028    3.3743 H   0  0  0  0  0  0  0  0  0  0  0  0
    2.8150   -0.9857    3.0202 H   0  0  0  0  0  0  0  0  0  0  0  0
    1.9087   -2.5316    3.2441 H   0  0  0  0  0  0  0  0  0  0  0  0
    3.0515    0.4541    8.2656 H   0  0  0  0  0  0  0  0  0  0  0  0
    3.5641    2.5967   12.8806 H   0  0  0  0  0  0  0  0  0  0  0  0
    5.1342    2.3052   14.8134 H   0  0  0  0  0  0  0  0  0  0  0  0
    7.4435    2.1578   15.6477 H   0  0  0  0  0  0  0  0  0  0  0  0
    9.0261    2.1661   11.6440 H   0  0  0  0  0  0  0  0  0  0  0  0
    7.4609    2.1053    9.7706 H   0  0  0  0  0  0  0  0  0  0  0  0
  1  2  2  3
  2  3  1  0
  3  4  2  0
  3  5  1  0
  5  6  2  0
  6  7  1  0
  7  8  1  0
  7  9  2  0
  9 10  1  0
 10 11  2  0
 11 12  1  0
 12 13  2  3
 13 14  1  0
 14 15  3  0
 13 16  1  0
 16 17  3  0
  1 18  1  0
 18 19  2  0
 19 20  1  0
 20 21  1  0
 21 22  1  0
 22 23  1  0
 20 24  2  0
 24 25  1  0
 24 26  1  0
 26 27  2  0
 27 28  1  0
 28 29  2  0
 29 30  1  0
 30 31  2  0
 31 32  1  0
 32 33  1  0
 33 34  1  0
 32 35  2  0
 27 36  1  0
 36 37  1  0
 37 38  1  0
 38 39  1  0
 39 40  1  0
 40 41  1  0
 41 42  2  0
 42 43  1  0
 43 44  1  0
 41 45  1  0
 45 46  1  0
 46 47  1  0
 47 48  1  0
 48 49  1  0
 49 50  1  0
 50 51  2  0
 51 52  1  0
 52 53  2  0
 53 54  1  0
 54 55  1  0
 55 56  1  0
 54 57  2  0
 49 58  2  0
 58 59  1  0
 59 60  1  0
 60 61  1  0
 61 62  1  0
 62 63  1  0
 63 64  1  0
 64 65  1  0
 65 66  1  0
 66 67  1  0
 67 68  1  0
 65 69  1  0
 69 70  1  0
 62 71  1  0
 71 72  1  0
 58 73  1  0
 73 74  2  0
 74 75  1  0
 75 76  1  0
 76 77  1  0
 77 78  1  0
 75 79  2  0
 79 80  1  0
 79 81  1  0
 81 82  2  3
 82 83  1  0
 83 84  2  0
 83 85  1  0
 85 86  2  0
 86 87  1  0
 87 88  2  0
 88 89  1  0
 89 90  2  0
 90 91  1  0
 90 92  1  0
 92 93  2  0
 93 94  1  0
 94 95  2  0
 95 96  1  0
 96 97  2  3
 97 98  1  0
 98 99  3  0
 97100  1  0
100101  3  0
 12  2  1  0
 25 18  1  0
 68 26  1  0
 80 73  1  0
 96 82  1  0
 11  5  1  0
 35 28  1  0
 67 36  2  0
 95 85  1  0
 66 38  2  0
 93 87  1  0
 64 39  2  0
 44 40  2  0
 63 45  2  0
 61 46  2  0
 60 48  2  0
 57 50  1  0
  1102  1  0
  6103  1  0
  9104  1  0
 10105  1  0
 19106  1  0
 22107  1  0
 22108  1  0
 23109  1  0
 23110  1  0
 23111  1  0
 29112  1  0
 30113  1  0
 31114  1  0
 33115  1  0
 33116  1  0
 34117  1  0
 34118  1  0
 34119  1  0
 35120  1  0
 51121  1  0
 52122  1  0
 53123  1  0
 55124  1  0
 55125  1  0
 56126  1  0
 56127  1  0
 56128  1  0
 57129  1  0
 69130  1  0
 69131  1  0
 70132  1  0
 70133  1  0
 70134  1  0
 71135  1  0
 71136  1  0
 72137  1  0
 72138  1  0
 72139  1  0
 74140  1  0
 77141  1  0
 77142  1  0
 78143  1  0
 78144  1  0
 78145  1  0
 81146  1  0
 86147  1  0
 88148  1  0
 89149  1  0
 92150  1  0
 94151  1  0
M  END

