
     RDKit          3D

161178  0  0  0  0  0  0  0  0999 V2000
   -5.7079   -1.6837  -10.8910 C   0  0  0  0  0  0  0  0  0  0  0  0
   -6.7336   -1.9429  -10.0589 C   0  0  0  0  0  0  0  0  0  0  0  0
   -7.9365   -2.6566  -10.4829 C   0  0  0  0  0  0  0  0  0  0  0  0
   -8.0540   -3.3748  -11.5120 O   0  0  0  0  0  0  0  0  0  0  0  0
   -9.0091   -2.3028   -9.5741 C   0  0  0  0  0  0  0  0  0  0  0  0
  -10.3609   -2.6354   -9.6600 C   0  0  0  0  0  0  0  0  0  0  0  0
  -11.2400   -2.1067   -8.7047 C   0  0  0  0  0  0  0  0  0  0  0  0
  -12.5652   -2.3954   -8.7700 F   0  0  0  0  0  0  0  0  0  0  0  0
  -10.7604   -1.2503   -7.6965 C   0  0  0  0  0  0  0  0  0  0  0  0
   -9.3938   -0.9242   -7.6298 C   0  0  0  0  0  0  0  0  0  0  0  0
   -8.5193   -1.4706   -8.5798 C   0  0  0  0  0  0  0  0  0  0  0  0
   -7.0481   -1.3217   -8.7381 C   0  0  0  0  0  0  0  0  0  0  0  0
   -6.1624   -1.0881   -7.7381 C   0  0  0  0  0  0  0  0  0  0  0  0
   -6.5484   -0.5419   -6.4627 C   0  0  0  0  0  0  0  0  0  0  0  0
   -6.8355   -0.1011   -5.4298 N   0  0  0  0  0  0  0  0  0  0  0  0
   -4.7949   -1.5324   -7.8223 C   0  0  0  0  0  0  0  0  0  0  0  0
   -3.6987   -1.9042   -7.8727 N   0  0  0  0  0  0  0  0  0  0  0  0
   -4.7776   -0.5574  -10.7124 C   0  0  0  0  0  0  0  0  0  0  0  0
   -5.2245    1.0032  -10.2020 S   0  0  0  0  0  0  0  0  0  0  0  0
   -3.6440    1.5371  -10.0735 C   0  0  0  0  0  0  0  0  0  0  0  0
   -3.0461    2.3311   -9.1333 C   0  0  0  0  0  0  0  0  0  0  0  0
   -1.8504    1.7381   -8.8353 C   0  0  0  0  0  0  0  0  0  0  0  0
   -1.6219    0.6441   -9.6113 N   0  0  0  0  0  0  0  0  0  0  0  0
   -0.6142   -0.3964   -9.3775 C   0  0  0  0  0  0  0  0  0  0  0  0
    0.7954    0.1759   -9.4973 C   0  0  0  0  0  0  0  0  0  0  0  0
   -2.7709    0.5133  -10.3293 C   0  0  0  0  0  0  0  0  0  0  0  0
   -3.3837   -0.6732  -10.7476 C   0  0  0  0  0  0  0  0  0  0  0  0
   -1.4164    1.9588   -7.5217 C   0  0  0  0  0  0  0  0  0  0  0  0
   -2.3224    2.7543   -6.8086 C   0  0  0  0  0  0  0  0  0  0  0  0
   -3.6715    3.0958   -7.7828 S   0  0  0  0  0  0  0  0  0  0  0  0
   -2.3516    2.8670   -5.3462 C   0  0  0  0  0  0  0  0  0  0  0  0
   -2.9118    3.9231   -4.6005 C   0  0  0  0  0  0  0  0  0  0  0  0
   -3.3416    5.2217   -5.1609 C   0  0  0  0  0  0  0  0  0  0  0  0
   -2.5115    5.9215   -6.0516 C   0  0  0  0  0  0  0  0  0  0  0  0
   -2.9348    7.1316   -6.6059 C   0  0  0  0  0  0  0  0  0  0  0  0
   -4.1901    7.6512   -6.2820 C   0  0  0  0  0  0  0  0  0  0  0  0
   -5.0359    6.9585   -5.4020 C   0  0  0  0  0  0  0  0  0  0  0  0
   -6.3857    7.5190   -5.0438 C   0  0  0  0  0  0  0  0  0  0  0  0
   -6.3025    8.3674   -3.7808 C   0  0  0  0  0  0  0  0  0  0  0  0
   -4.5978    5.7522   -4.8304 C   0  0  0  0  0  0  0  0  0  0  0  0
   -3.0077    3.5769   -3.2504 C   0  0  0  0  0  0  0  0  0  0  0  0
   -3.3888    4.4530   -1.8400 S   0  0  0  0  0  0  0  0  0  0  0  0
   -3.0568    3.0970   -0.8698 C   0  0  0  0  0  0  0  0  0  0  0  0
   -2.6807    2.8802    0.4267 C   0  0  0  0  0  0  0  0  0  0  0  0
   -2.4976    3.7962    1.4742 C   0  0  0  0  0  0  0  0  0  0  0  0
   -1.7410    3.3961    2.6138 C   0  0  0  0  0  0  0  0  0  0  0  0
   -1.5400    4.3254    3.5796 N   0  0  0  0  0  0  0  0  0  0  0  0
   -2.3404    5.6072    2.9028 S   0  0  0  0  0  0  0  0  0  0  0  0
   -2.9351    5.0793    1.4496 N   0  0  0  0  0  0  0  0  0  0  0  0
   -1.2518    2.0891    2.6651 C   0  0  0  0  0  0  0  0  0  0  0  0
   -0.5260    1.4241    3.6102 C   0  0  0  0  0  0  0  0  0  0  0  0
    0.3336    1.7315    5.0413 S   0  0  0  0  0  0  0  0  0  0  0  0
    0.8920    0.1142    5.0782 C   0  0  0  0  0  0  0  0  0  0  0  0
    1.8751   -0.5532    5.8219 C   0  0  0  0  0  0  0  0  0  0  0  0
    2.6528    0.0560    6.9238 C   0  0  0  0  0  0  0  0  0  0  0  0
    3.1795    1.3521    6.8043 C   0  0  0  0  0  0  0  0  0  0  0  0
    3.9367    1.9059    7.8390 C   0  0  0  0  0  0  0  0  0  0  0  0
    4.1783    1.1727    9.0015 C   0  0  0  0  0  0  0  0  0  0  0  0
    3.6559   -0.1225    9.1396 C   0  0  0  0  0  0  0  0  0  0  0  0
    3.9501   -0.9374   10.3706 C   0  0  0  0  0  0  0  0  0  0  0  0
    5.1088   -1.8936   10.1146 C   0  0  0  0  0  0  0  0  0  0  0  0
    2.9028   -0.6793    8.0939 C   0  0  0  0  0  0  0  0  0  0  0  0
    2.0894   -1.8556    5.3111 C   0  0  0  0  0  0  0  0  0  0  0  0
    1.0839   -2.1180    3.9642 S   0  0  0  0  0  0  0  0  0  0  0  0
    0.3737   -0.6132    4.0379 C   0  0  0  0  0  0  0  0  0  0  0  0
   -0.4028    0.1474    3.1860 C   0  0  0  0  0  0  0  0  0  0  0  0
   -0.9967   -0.0854    1.9916 N   0  0  0  0  0  0  0  0  0  0  0  0
   -1.4754    1.1541    1.6416 C   0  0  0  0  0  0  0  0  0  0  0  0
   -2.1148    1.5896    0.4501 C   0  0  0  0  0  0  0  0  0  0  0  0
   -2.0382    1.0756   -0.8233 N   0  0  0  0  0  0  0  0  0  0  0  0
   -2.6306    2.0270   -1.5883 C   0  0  0  0  0  0  0  0  0  0  0  0
   -2.5693    2.3137   -2.9457 C   0  0  0  0  0  0  0  0  0  0  0  0
   -1.9819    1.5611   -4.3193 S   0  0  0  0  0  0  0  0  0  0  0  0
   -1.1122    0.0646   -1.3457 C   0  0  0  0  0  0  0  0  0  0  0  0
   -1.8650   -1.0941   -2.0002 C   0  0  0  0  0  0  0  0  0  0  0  0
   -1.5668   -1.3841    1.6096 C   0  0  0  0  0  0  0  0  0  0  0  0
   -0.5042   -2.3566    1.0865 C   0  0  0  0  0  0  0  0  0  0  0  0
    3.2784   -2.7041    5.5188 C   0  0  0  0  0  0  0  0  0  0  0  0
    3.1040   -4.0776    5.7393 C   0  0  0  0  0  0  0  0  0  0  0  0
    1.8698   -4.5740    6.0117 F   0  0  0  0  0  0  0  0  0  0  0  0
    4.1707   -4.9620    5.5685 C   0  0  0  0  0  0  0  0  0  0  0  0
    3.9307   -6.2979    5.6224 F   0  0  0  0  0  0  0  0  0  0  0  0
    5.4467   -4.4791    5.2268 C   0  0  0  0  0  0  0  0  0  0  0  0
    5.6471   -3.0898    5.0816 C   0  0  0  0  0  0  0  0  0  0  0  0
    6.9149   -2.5671    4.8065 O   0  0  0  0  0  0  0  0  0  0  0  0
    8.0485   -2.7904    5.6406 C   0  0  0  0  0  0  0  0  0  0  0  0
    9.2008   -1.9229    5.1608 C   0  0  0  0  0  0  0  0  0  0  0  0
    4.5522   -2.2093    5.1775 C   0  0  0  0  0  0  0  0  0  0  0  0
    4.6905   -0.8423    4.8988 O   0  0  0  0  0  0  0  0  0  0  0  0
    5.3041   -0.3305    3.7203 C   0  0  0  0  0  0  0  0  0  0  0  0
    4.9655    1.1443    3.5811 C   0  0  0  0  0  0  0  0  0  0  0  0
    6.4756   -5.4107    4.7181 C   0  0  0  0  0  0  0  0  0  0  0  0
    7.0186   -6.4245    5.4174 C   0  0  0  0  0  0  0  0  0  0  0  0
    6.6388   -6.8420    6.7689 C   0  0  0  0  0  0  0  0  0  0  0  0
    6.0174   -6.1518    7.6216 O   0  0  0  0  0  0  0  0  0  0  0  0
    7.1236   -8.1889    6.9765 C   0  0  0  0  0  0  0  0  0  0  0  0
    6.8814   -9.0359    8.0582 C   0  0  0  0  0  0  0  0  0  0  0  0
    7.3744  -10.3477    8.0018 C   0  0  0  0  0  0  0  0  0  0  0  0
    7.1436  -11.1993    9.0299 F   0  0  0  0  0  0  0  0  0  0  0  0
    8.0827  -10.7894    6.8718 C   0  0  0  0  0  0  0  0  0  0  0  0
    8.3151   -9.9221    5.7925 C   0  0  0  0  0  0  0  0  0  0  0  0
    7.8438   -8.6009    5.8665 C   0  0  0  0  0  0  0  0  0  0  0  0
    7.9317   -7.4817    4.8871 C   0  0  0  0  0  0  0  0  0  0  0  0
    8.8261   -7.3555    3.8704 C   0  0  0  0  0  0  0  0  0  0  0  0
    9.0407   -6.1095    3.1803 C   0  0  0  0  0  0  0  0  0  0  0  0
    9.2239   -5.1110    2.6227 N   0  0  0  0  0  0  0  0  0  0  0  0
    9.7255   -8.4125    3.4914 C   0  0  0  0  0  0  0  0  0  0  0  0
   10.4513   -9.2545    3.1654 N   0  0  0  0  0  0  0  0  0  0  0  0
   -5.6197   -2.2469  -11.8117 H   0  0  0  0  0  0  0  0  0  0  0  0
  -10.7264   -3.2771  -10.4510 H   0  0  0  0  0  0  0  0  0  0  0  0
  -11.4469   -0.8301   -6.9713 H   0  0  0  0  0  0  0  0  0  0  0  0
   -9.0624   -0.2340   -6.8733 H   0  0  0  0  0  0  0  0  0  0  0  0
   -0.7616   -0.8458   -8.3744 H   0  0  0  0  0  0  0  0  0  0  0  0
   -0.7116   -1.2008  -10.1346 H   0  0  0  0  0  0  0  0  0  0  0  0
    1.5383   -0.6507   -9.4579 H   0  0  0  0  0  0  0  0  0  0  0  0
    1.0107    0.8743   -8.6643 H   0  0  0  0  0  0  0  0  0  0  0  0
    0.9084    0.7134  -10.4629 H   0  0  0  0  0  0  0  0  0  0  0  0
   -2.8714   -1.6163  -10.8767 H   0  0  0  0  0  0  0  0  0  0  0  0
   -0.6023    1.4234   -7.0550 H   0  0  0  0  0  0  0  0  0  0  0  0
   -1.5329    5.5334   -6.3119 H   0  0  0  0  0  0  0  0  0  0  0  0
   -2.2875    7.6678   -7.2892 H   0  0  0  0  0  0  0  0  0  0  0  0
   -4.5049    8.5913   -6.7191 H   0  0  0  0  0  0  0  0  0  0  0  0
   -6.7771    8.1419   -5.8773 H   0  0  0  0  0  0  0  0  0  0  0  0
   -7.1104    6.6919   -4.8823 H   0  0  0  0  0  0  0  0  0  0  0  0
   -5.6076    9.2214   -3.9358 H   0  0  0  0  0  0  0  0  0  0  0  0
   -7.3090    8.7690   -3.5339 H   0  0  0  0  0  0  0  0  0  0  0  0
   -5.9442    7.7539   -2.9246 H   0  0  0  0  0  0  0  0  0  0  0  0
   -5.2476    5.2162   -4.1478 H   0  0  0  0  0  0  0  0  0  0  0  0
    3.0297    1.9293    5.9015 H   0  0  0  0  0  0  0  0  0  0  0  0
    4.3486    2.9004    7.7317 H   0  0  0  0  0  0  0  0  0  0  0  0
    4.7764    1.6110    9.7908 H   0  0  0  0  0  0  0  0  0  0  0  0
    3.0475   -1.5197   10.6584 H   0  0  0  0  0  0  0  0  0  0  0  0
    4.2048   -0.2726   11.2243 H   0  0  0  0  0  0  0  0  0  0  0  0
    4.8577   -2.5995    9.2931 H   0  0  0  0  0  0  0  0  0  0  0  0
    5.3167   -2.4775   11.0348 H   0  0  0  0  0  0  0  0  0  0  0  0
    6.0228   -1.3235    9.8404 H   0  0  0  0  0  0  0  0  0  0  0  0
    2.5125   -1.6864    8.1916 H   0  0  0  0  0  0  0  0  0  0  0  0
   -0.4370    0.5299   -2.0955 H   0  0  0  0  0  0  0  0  0  0  0  0
   -0.4410   -0.3016   -0.5531 H   0  0  0  0  0  0  0  0  0  0  0  0
   -2.4250   -0.7543   -2.8924 H   0  0  0  0  0  0  0  0  0  0  0  0
   -1.1422   -1.8763   -2.3171 H   0  0  0  0  0  0  0  0  0  0  0  0
   -2.5966   -1.5474   -1.3048 H   0  0  0  0  0  0  0  0  0  0  0  0
   -2.0680   -1.8336    2.4962 H   0  0  0  0  0  0  0  0  0  0  0  0
   -2.3696   -1.2418    0.8627 H   0  0  0  0  0  0  0  0  0  0  0  0
   -0.7946   -2.7453    0.0864 H   0  0  0  0  0  0  0  0  0  0  0  0
    0.4916   -1.8716    1.0027 H   0  0  0  0  0  0  0  0  0  0  0  0
   -0.4182   -3.2318    1.7659 H   0  0  0  0  0  0  0  0  0  0  0  0
    8.3651   -3.8521    5.6060 H   0  0  0  0  0  0  0  0  0  0  0  0
    7.7991   -2.5217    6.6915 H   0  0  0  0  0  0  0  0  0  0  0  0
    8.9168   -0.8498    5.2188 H   0  0  0  0  0  0  0  0  0  0  0  0
   10.0908   -2.0985    5.8015 H   0  0  0  0  0  0  0  0  0  0  0  0
    9.4525   -2.1783    4.1103 H   0  0  0  0  0  0  0  0  0  0  0  0
    4.9191   -0.8773    2.8294 H   0  0  0  0  0  0  0  0  0  0  0  0
    6.4080   -0.4401    3.7712 H   0  0  0  0  0  0  0  0  0  0  0  0
    3.8624    1.2799    3.5548 H   0  0  0  0  0  0  0  0  0  0  0  0
    5.4052    1.5427    2.6431 H   0  0  0  0  0  0  0  0  0  0  0  0
    5.3816    1.7059    4.4447 H   0  0  0  0  0  0  0  0  0  0  0  0
    6.7562   -5.2523    3.6892 H   0  0  0  0  0  0  0  0  0  0  0  0
    6.3074   -8.6973    8.9116 H   0  0  0  0  0  0  0  0  0  0  0  0
    8.4396  -11.8106    6.8253 H   0  0  0  0  0  0  0  0  0  0  0  0
    8.8175  -10.3074    4.9217 H   0  0  0  0  0  0  0  0  0  0  0  0
  1  2  2  3
  2  3  1  0
  3  4  2  0
  3  5  1  0
  5  6  2  0
  6  7  1  0
  7  8  1  0
  7  9  2  0
  9 10  1  0
 10 11  2  0
 11 12  1  0
 12 13  2  3
 13 14  1  0
 14 15  3  0
 13 16  1  0
 16 17  3  0
  1 18  1  0
 18 19  1  0
 19 20  1  0
 20 21  1  0
 21 22  2  0
 22 23  1  0
 23 24  1  0
 24 25  1  0
 23 26  1  0
 26 27  1  0
 22 28  1  0
 28 29  2  0
 29 30  1  0
 29 31  1  0
 31 32  2  0
 32 33  1  0
 33 34  2  0
 34 35  1  0
 35 36  2  0
 36 37  1  0
 37 38  1  0
 38 39  1  0
 37 40  2  0
 32 41  1  0
 41 42  1  0
 42 43  1  0
 43 44  1  0
 44 45  1  0
 45 46  1  0
 46 47  2  0
 47 48  1  0
 48 49  1  0
 46 50  1  0
 50 51  1  0
 51 52  1  0
 52 53  1  0
 53 54  1  0
 54 55  1  0
 55 56  2  0
 56 57  1  0
 57 58  2  0
 58 59  1  0
 59 60  1  0
 60 61  1  0
 59 62  2  0
 54 63  2  0
 63 64  1  0
 64 65  1  0
 65 66  1  0
 66 67  1  0
 67 68  1  0
 68 69  1  0
 69 70  1  0
 70 71  1  0
 71 72  1  0
 72 73  1  0
 70 74  1  0
 74 75  1  0
 67 76  1  0
 76 77  1  0
 63 78  1  0
 78 79  2  0
 79 80  1  0
 79 81  1  0
 81 82  1  0
 81 83  2  0
 83 84  1  0
 84 85  1  0
 85 86  1  0
 86 87  1  0
 84 88  2  0
 88 89  1  0
 89 90  1  0
 90 91  1  0
 83 92  1  0
 92 93  2  3
 93 94  1  0
 94 95  2  0
 94 96  1  0
 96 97  2  0
 97 98  1  0
 98 99  1  0
 98100  2  0
100101  1  0
101102  2  0
102103  1  0
103104  2  3
104105  1  0
105106  3  0
104107  1  0
107108  3  0
 12  2  1  0
 27 18  2  0
 73 31  1  0
 88 78  1  0
103 93  1  0
 11  5  1  0
 26 20  2  0
 40 33  1  0
 72 41  2  0
102 96  1  0
 30 21  1  0
 71 43  2  0
 69 44  2  0
 49 45  2  0
 68 50  2  0
 66 51  2  0
 65 53  2  0
 62 55  1  0
  1109  1  0
  6110  1  0
  9111  1  0
 10112  1  0
 24113  1  0
 24114  1  0
 25115  1  0
 25116  1  0
 25117  1  0
 27118  1  0
 28119  1  0
 34120  1  0
 35121  1  0
 36122  1  0
 38123  1  0
 38124  1  0
 39125  1  0
 39126  1  0
 39127  1  0
 40128  1  0
 56129  1  0
 57130  1  0
 58131  1  0
 60132  1  0
 60133  1  0
 61134  1  0
 61135  1  0
 61136  1  0
 62137  1  0
 74138  1  0
 74139  1  0
 75140  1  0
 75141  1  0
 75142  1  0
 76143  1  0
 76144  1  0
 77145  1  0
 77146  1  0
 77147  1  0
 86148  1  0
 86149  1  0
 87150  1  0
 87151  1  0
 87152  1  0
 90153  1  0
 90154  1  0
 91155  1  0
 91156  1  0
 91157  1  0
 92158  1  0
 97159  1  0
100160  1  0
101161  1  0
M  END

