
     RDKit          3D

162179  0  0  0  0  0  0  0  0999 V2000
   -0.2872    4.0067   -8.5678 C   0  0  0  0  0  0  0  0  0  0  0  0
   -1.1930    4.6768   -7.8219 C   0  0  0  0  0  0  0  0  0  0  0  0
   -1.5526    4.3499   -6.4374 C   0  0  0  0  0  0  0  0  0  0  0  0
   -0.8806    3.6424   -5.6362 O   0  0  0  0  0  0  0  0  0  0  0  0
   -2.7895    5.0171   -6.1083 C   0  0  0  0  0  0  0  0  0  0  0  0
   -3.4718    4.9909   -4.8935 C   0  0  0  0  0  0  0  0  0  0  0  0
   -4.6331    5.7709   -4.7534 C   0  0  0  0  0  0  0  0  0  0  0  0
   -5.4257    5.7326   -3.4715 C   0  0  0  0  0  0  0  0  0  0  0  0
   -5.0731    6.5721   -5.8349 C   0  0  0  0  0  0  0  0  0  0  0  0
   -6.1773    7.3500   -5.7098 F   0  0  0  0  0  0  0  0  0  0  0  0
   -4.3489    6.5987   -7.0417 C   0  0  0  0  0  0  0  0  0  0  0  0
   -3.2126    5.7814   -7.1787 C   0  0  0  0  0  0  0  0  0  0  0  0
   -2.2210    5.6676   -8.2954 C   0  0  0  0  0  0  0  0  0  0  0  0
   -2.2589    6.3119   -9.4886 C   0  0  0  0  0  0  0  0  0  0  0  0
   -3.4502    6.9238   -9.9996 C   0  0  0  0  0  0  0  0  0  0  0  0
   -4.4272    7.3863  -10.4374 N   0  0  0  0  0  0  0  0  0  0  0  0
   -1.1054    6.4022  -10.3439 C   0  0  0  0  0  0  0  0  0  0  0  0
   -0.1753    6.4870  -11.0341 N   0  0  0  0  0  0  0  0  0  0  0  0
    0.3580    2.7829   -8.0971 C   0  0  0  0  0  0  0  0  0  0  0  0
   -0.4621    1.3652   -7.7206 S   0  0  0  0  0  0  0  0  0  0  0  0
    0.8940    0.5531   -7.1687 C   0  0  0  0  0  0  0  0  0  0  0  0
    0.9173   -0.6433   -6.3499 C   0  0  0  0  0  0  0  0  0  0  0  0
    2.0194   -0.8826   -5.5628 C   0  0  0  0  0  0  0  0  0  0  0  0
    3.2000   -0.1407   -5.7186 O   0  0  0  0  0  0  0  0  0  0  0  0
    3.3715    0.9092   -6.7045 C   0  0  0  0  0  0  0  0  0  0  0  0
    4.2537    0.3370   -7.8224 C   0  0  0  0  0  0  0  0  0  0  0  0
    5.3900   -0.4239   -7.4814 C   0  0  0  0  0  0  0  0  0  0  0  0
    6.2592   -0.8982   -8.4626 C   0  0  0  0  0  0  0  0  0  0  0  0
    6.0193   -0.6256   -9.8192 C   0  0  0  0  0  0  0  0  0  0  0  0
    6.9742   -1.1081  -10.8754 C   0  0  0  0  0  0  0  0  0  0  0  0
    6.6193   -2.5269  -11.3133 C   0  0  0  0  0  0  0  0  0  0  0  0
    4.8839    0.1185  -10.1728 C   0  0  0  0  0  0  0  0  0  0  0  0
    4.0172    0.6001   -9.1895 C   0  0  0  0  0  0  0  0  0  0  0  0
    4.0355    2.0807   -5.9824 C   0  0  0  0  0  0  0  0  0  0  0  0
    5.1205    2.7989   -6.5296 C   0  0  0  0  0  0  0  0  0  0  0  0
    5.6956    3.8581   -5.8247 C   0  0  0  0  0  0  0  0  0  0  0  0
    5.1746    4.2594   -4.5890 C   0  0  0  0  0  0  0  0  0  0  0  0
    5.8409    5.3614   -3.8062 C   0  0  0  0  0  0  0  0  0  0  0  0
    6.9441    4.7917   -2.9155 C   0  0  0  0  0  0  0  0  0  0  0  0
    4.0761    3.5721   -4.0494 C   0  0  0  0  0  0  0  0  0  0  0  0
    3.5094    2.5017   -4.7489 C   0  0  0  0  0  0  0  0  0  0  0  0
    2.0063    1.3710   -7.2418 C   0  0  0  0  0  0  0  0  0  0  0  0
    1.7117    2.6290   -7.8006 C   0  0  0  0  0  0  0  0  0  0  0  0
    1.7915   -1.7769   -4.5123 C   0  0  0  0  0  0  0  0  0  0  0  0
    0.4554   -2.1873   -4.4204 C   0  0  0  0  0  0  0  0  0  0  0  0
   -0.3857   -1.4788   -5.7095 S   0  0  0  0  0  0  0  0  0  0  0  0
   -0.1535   -2.7399   -3.1813 C   0  0  0  0  0  0  0  0  0  0  0  0
    0.6508   -3.4653   -2.2821 C   0  0  0  0  0  0  0  0  0  0  0  0
    0.2592   -3.6706   -0.9428 C   0  0  0  0  0  0  0  0  0  0  0  0
   -0.9819   -3.1661   -0.4803 C   0  0  0  0  0  0  0  0  0  0  0  0
   -1.8550   -2.5711   -1.4061 C   0  0  0  0  0  0  0  0  0  0  0  0
   -3.0988   -2.1337   -1.0719 N   0  0  0  0  0  0  0  0  0  0  0  0
   -3.5946   -1.4928   -2.5108 S   0  0  0  0  0  0  0  0  0  0  0  0
   -2.3433   -1.7279   -3.5594 N   0  0  0  0  0  0  0  0  0  0  0  0
   -1.4438   -2.3604   -2.7546 C   0  0  0  0  0  0  0  0  0  0  0  0
   -1.2902   -3.1966    0.8939 C   0  0  0  0  0  0  0  0  0  0  0  0
   -0.3879   -3.7315    1.8291 C   0  0  0  0  0  0  0  0  0  0  0  0
    0.7748   -4.3656    1.3518 C   0  0  0  0  0  0  0  0  0  0  0  0
    1.6517   -5.0130    2.1657 N   0  0  0  0  0  0  0  0  0  0  0  0
    2.8039   -5.4638    1.0735 S   0  0  0  0  0  0  0  0  0  0  0  0
    2.2809   -4.9055   -0.3885 N   0  0  0  0  0  0  0  0  0  0  0  0
    1.1072   -4.3189   -0.0323 C   0  0  0  0  0  0  0  0  0  0  0  0
   -0.6308   -3.5102    3.2774 C   0  0  0  0  0  0  0  0  0  0  0  0
   -2.1468   -3.3243    4.0034 S   0  0  0  0  0  0  0  0  0  0  0  0
   -1.5432   -2.9823    5.5222 C   0  0  0  0  0  0  0  0  0  0  0  0
   -2.2747   -2.8000    6.7473 C   0  0  0  0  0  0  0  0  0  0  0  0
   -1.6104   -2.7188    7.9413 C   0  0  0  0  0  0  0  0  0  0  0  0
   -0.2111   -2.7942    7.9900 O   0  0  0  0  0  0  0  0  0  0  0  0
    0.6460   -2.7698    6.8142 C   0  0  0  0  0  0  0  0  0  0  0  0
    1.6554   -3.9076    7.0092 C   0  0  0  0  0  0  0  0  0  0  0  0
    1.2875   -5.2362    6.7048 C   0  0  0  0  0  0  0  0  0  0  0  0
    2.1573   -6.2966    6.9629 C   0  0  0  0  0  0  0  0  0  0  0  0
    3.4072   -6.0652    7.5528 C   0  0  0  0  0  0  0  0  0  0  0  0
    4.3657   -7.1996    7.7807 C   0  0  0  0  0  0  0  0  0  0  0  0
    5.1700   -7.5067    6.5223 C   0  0  0  0  0  0  0  0  0  0  0  0
    3.7754   -4.7552    7.8803 C   0  0  0  0  0  0  0  0  0  0  0  0
    2.8996   -3.6921    7.6441 C   0  0  0  0  0  0  0  0  0  0  0  0
    1.3204   -1.3872    6.7072 C   0  0  0  0  0  0  0  0  0  0  0  0
    2.4006   -1.1803    5.8255 C   0  0  0  0  0  0  0  0  0  0  0  0
    3.0753    0.0395    5.7941 C   0  0  0  0  0  0  0  0  0  0  0  0
    2.6798    1.0880    6.6397 C   0  0  0  0  0  0  0  0  0  0  0  0
    3.4608    2.3824    6.6792 C   0  0  0  0  0  0  0  0  0  0  0  0
    2.6467    3.5529    6.1430 C   0  0  0  0  0  0  0  0  0  0  0  0
    1.5773    0.9080    7.4811 C   0  0  0  0  0  0  0  0  0  0  0  0
    0.8981   -0.3091    7.5075 C   0  0  0  0  0  0  0  0  0  0  0  0
   -0.1667   -3.0033    5.5212 C   0  0  0  0  0  0  0  0  0  0  0  0
    0.3528   -3.2836    4.2467 C   0  0  0  0  0  0  0  0  0  0  0  0
   -2.4634   -2.5264    9.0416 C   0  0  0  0  0  0  0  0  0  0  0  0
   -3.8103   -2.4689    8.6671 C   0  0  0  0  0  0  0  0  0  0  0  0
   -3.9122   -2.6008    6.9778 S   0  0  0  0  0  0  0  0  0  0  0  0
   -4.8964   -1.9687    9.5340 C   0  0  0  0  0  0  0  0  0  0  0  0
   -6.2090   -2.1386    9.2709 C   0  0  0  0  0  0  0  0  0  0  0  0
   -6.7791   -3.0318    8.2562 C   0  0  0  0  0  0  0  0  0  0  0  0
   -6.2956   -4.1310    7.8667 O   0  0  0  0  0  0  0  0  0  0  0  0
   -8.0325   -2.4726    7.8108 C   0  0  0  0  0  0  0  0  0  0  0  0
   -8.7657   -2.8133    6.6820 C   0  0  0  0  0  0  0  0  0  0  0  0
   -9.8042   -1.9630    6.2739 C   0  0  0  0  0  0  0  0  0  0  0  0
  -10.1048   -0.7969    7.0059 C   0  0  0  0  0  0  0  0  0  0  0  0
  -11.1384    0.1719    6.5002 C   0  0  0  0  0  0  0  0  0  0  0  0
   -9.3669   -0.4959    8.1748 C   0  0  0  0  0  0  0  0  0  0  0  0
   -8.3337   -1.3611    8.5765 C   0  0  0  0  0  0  0  0  0  0  0  0
   -7.3023   -1.1895    9.6380 C   0  0  0  0  0  0  0  0  0  0  0  0
   -7.4232   -0.4527   10.7703 C   0  0  0  0  0  0  0  0  0  0  0  0
   -8.6205    0.2967   11.0693 C   0  0  0  0  0  0  0  0  0  0  0  0
   -9.5762    0.9022   11.3220 N   0  0  0  0  0  0  0  0  0  0  0  0
   -6.4255   -0.4568   11.8020 C   0  0  0  0  0  0  0  0  0  0  0  0
   -5.6271   -0.4439   12.6437 N   0  0  0  0  0  0  0  0  0  0  0  0
   -0.0952    4.2630   -9.6008 H   0  0  0  0  0  0  0  0  0  0  0  0
   -3.1145    4.3734   -4.0806 H   0  0  0  0  0  0  0  0  0  0  0  0
   -5.6104    6.7639   -3.1093 H   0  0  0  0  0  0  0  0  0  0  0  0
   -6.3939    5.2212   -3.6515 H   0  0  0  0  0  0  0  0  0  0  0  0
   -4.8862    5.1772   -2.6742 H   0  0  0  0  0  0  0  0  0  0  0  0
   -4.6688    7.2797   -7.8149 H   0  0  0  0  0  0  0  0  0  0  0  0
    5.6128   -0.6320   -6.4427 H   0  0  0  0  0  0  0  0  0  0  0  0
    7.1258   -1.4787   -8.1652 H   0  0  0  0  0  0  0  0  0  0  0  0
    6.9387   -0.4317  -11.7559 H   0  0  0  0  0  0  0  0  0  0  0  0
    8.0148   -1.0892  -10.4832 H   0  0  0  0  0  0  0  0  0  0  0  0
    6.7719   -3.2333  -10.4684 H   0  0  0  0  0  0  0  0  0  0  0  0
    7.2809   -2.8275  -12.1525 H   0  0  0  0  0  0  0  0  0  0  0  0
    5.5558   -2.5812  -11.6505 H   0  0  0  0  0  0  0  0  0  0  0  0
    4.6775    0.3449  -11.2104 H   0  0  0  0  0  0  0  0  0  0  0  0
    3.1841    1.1968   -9.5119 H   0  0  0  0  0  0  0  0  0  0  0  0
    5.5450    2.5339   -7.4902 H   0  0  0  0  0  0  0  0  0  0  0  0
    6.5527    4.3647   -6.2478 H   0  0  0  0  0  0  0  0  0  0  0  0
    6.2851    6.1029   -4.4991 H   0  0  0  0  0  0  0  0  0  0  0  0
    5.0993    5.8945   -3.1731 H   0  0  0  0  0  0  0  0  0  0  0  0
    7.6801    4.2281   -3.5296 H   0  0  0  0  0  0  0  0  0  0  0  0
    7.4706    5.6200   -2.3983 H   0  0  0  0  0  0  0  0  0  0  0  0
    6.5085    4.1092   -2.1538 H   0  0  0  0  0  0  0  0  0  0  0  0
    3.6626    3.8556   -3.0948 H   0  0  0  0  0  0  0  0  0  0  0  0
    2.6571    1.9913   -4.3150 H   0  0  0  0  0  0  0  0  0  0  0  0
    2.4446    3.4134   -7.9334 H   0  0  0  0  0  0  0  0  0  0  0  0
    2.5410   -1.9670   -3.7484 H   0  0  0  0  0  0  0  0  0  0  0  0
    1.6279   -3.8052   -2.6093 H   0  0  0  0  0  0  0  0  0  0  0  0
   -2.2028   -2.7298    1.2432 H   0  0  0  0  0  0  0  0  0  0  0  0
    0.3141   -5.4608    6.2882 H   0  0  0  0  0  0  0  0  0  0  0  0
    1.8515   -7.3023    6.7150 H   0  0  0  0  0  0  0  0  0  0  0  0
    3.8072   -8.1049    8.0998 H   0  0  0  0  0  0  0  0  0  0  0  0
    5.0686   -6.9470    8.6026 H   0  0  0  0  0  0  0  0  0  0  0  0
    5.7403   -6.5981    6.2137 H   0  0  0  0  0  0  0  0  0  0  0  0
    5.8812   -8.3254    6.7421 H   0  0  0  0  0  0  0  0  0  0  0  0
    4.4955   -7.8193    5.6985 H   0  0  0  0  0  0  0  0  0  0  0  0
    4.7488   -4.5535    8.3205 H   0  0  0  0  0  0  0  0  0  0  0  0
    3.2083   -2.7052    7.9483 H   0  0  0  0  0  0  0  0  0  0  0  0
    2.7688   -1.9855    5.2058 H   0  0  0  0  0  0  0  0  0  0  0  0
    3.9272    0.1485    5.1368 H   0  0  0  0  0  0  0  0  0  0  0  0
    3.7514    2.5952    7.7324 H   0  0  0  0  0  0  0  0  0  0  0  0
    4.4047    2.2962    6.0967 H   0  0  0  0  0  0  0  0  0  0  0  0
    3.2431    4.4843    6.2211 H   0  0  0  0  0  0  0  0  0  0  0  0
    1.7106    3.6867    6.7289 H   0  0  0  0  0  0  0  0  0  0  0  0
    2.3794    3.3874    5.0761 H   0  0  0  0  0  0  0  0  0  0  0  0
    1.2587    1.7098    8.1386 H   0  0  0  0  0  0  0  0  0  0  0  0
    0.0626   -0.4065    8.1931 H   0  0  0  0  0  0  0  0  0  0  0  0
    1.4100   -3.3202    4.0349 H   0  0  0  0  0  0  0  0  0  0  0  0
   -2.1091   -2.3672   10.0494 H   0  0  0  0  0  0  0  0  0  0  0  0
   -4.5817   -1.2640   10.2887 H   0  0  0  0  0  0  0  0  0  0  0  0
   -8.4983   -3.6703    6.0801 H   0  0  0  0  0  0  0  0  0  0  0  0
  -10.3355   -2.1938    5.3556 H   0  0  0  0  0  0  0  0  0  0  0  0
  -11.8835    0.3746    7.3022 H   0  0  0  0  0  0  0  0  0  0  0  0
  -11.6712   -0.2351    5.6118 H   0  0  0  0  0  0  0  0  0  0  0  0
  -10.6296    1.1224    6.2192 H   0  0  0  0  0  0  0  0  0  0  0  0
   -9.5456    0.4358    8.6808 H   0  0  0  0  0  0  0  0  0  0  0  0
  1  2  2  3
  2  3  1  0
  3  4  2  0
  3  5  1  0
  5  6  2  0
  6  7  1  0
  7  8  1  0
  7  9  2  0
  9 10  1  0
  9 11  1  0
 11 12  2  0
 12 13  1  0
 13 14  2  3
 14 15  1  0
 15 16  3  0
 14 17  1  0
 17 18  3  0
  1 19  1  0
 19 20  1  0
 20 21  1  0
 21 22  1  0
 22 23  2  0
 23 24  1  0
 24 25  1  0
 25 26  1  0
 26 27  2  0
 27 28  1  0
 28 29  2  0
 29 30  1  0
 30 31  1  0
 29 32  1  0
 32 33  2  0
 25 34  1  0
 34 35  2  0
 35 36  1  0
 36 37  2  0
 37 38  1  0
 38 39  1  0
 37 40  1  0
 40 41  2  0
 25 42  1  0
 42 43  1  0
 23 44  1  0
 44 45  2  0
 45 46  1  0
 45 47  1  0
 47 48  2  0
 48 49  1  0
 49 50  2  0
 50 51  1  0
 51 52  2  0
 52 53  1  0
 53 54  1  0
 54 55  2  0
 50 56  1  0
 56 57  2  0
 57 58  1  0
 58 59  2  0
 59 60  1  0
 60 61  1  0
 61 62  2  0
 57 63  1  0
 63 64  1  0
 64 65  1  0
 65 66  1  0
 66 67  2  0
 67 68  1  0
 68 69  1  0
 69 70  1  0
 70 71  2  0
 71 72  1  0
 72 73  2  0
 73 74  1  0
 74 75  1  0
 73 76  1  0
 76 77  2  0
 69 78  1  0
 78 79  2  0
 79 80  1  0
 80 81  2  0
 81 82  1  0
 82 83  1  0
 81 84  1  0
 84 85  2  0
 69 86  1  0
 86 87  1  0
 67 88  1  0
 88 89  2  0
 89 90  1  0
 89 91  1  0
 91 92  2  3
 92 93  1  0
 93 94  2  0
 93 95  1  0
 95 96  2  0
 96 97  1  0
 97 98  2  0
 98 99  1  0
 98100  1  0
100101  2  0
101102  1  0
102103  2  3
103104  1  0
104105  3  0
103106  1  0
106107  3  0
 13  2  1  0
 43 19  2  0
 55 47  1  0
 62 58  1  0
 87 63  2  0
102 92  1  0
 12  5  1  0
 42 21  2  0
 62 49  1  0
 86 65  2  0
101 95  1  0
 46 22  1  0
 55 51  1  0
 90 66  1  0
 33 26  1  0
 41 34  1  0
 77 70  1  0
 85 78  1  0
  1108  1  0
  6109  1  0
  8110  1  0
  8111  1  0
  8112  1  0
 11113  1  0
 27114  1  0
 28115  1  0
 30116  1  0
 30117  1  0
 31118  1  0
 31119  1  0
 31120  1  0
 32121  1  0
 33122  1  0
 35123  1  0
 36124  1  0
 38125  1  0
 38126  1  0
 39127  1  0
 39128  1  0
 39129  1  0
 40130  1  0
 41131  1  0
 43132  1  0
 44133  1  0
 48134  1  0
 56135  1  0
 71136  1  0
 72137  1  0
 74138  1  0
 74139  1  0
 75140  1  0
 75141  1  0
 75142  1  0
 76143  1  0
 77144  1  0
 79145  1  0
 80146  1  0
 82147  1  0
 82148  1  0
 83149  1  0
 83150  1  0
 83151  1  0
 84152  1  0
 85153  1  0
 87154  1  0
 88155  1  0
 91156  1  0
 96157  1  0
 97158  1  0
 99159  1  0
 99160  1  0
 99161  1  0
100162  1  0
M  END

