
     RDKit          3D

153170  0  0  0  0  0  0  0  0999 V2000
   -8.2000    6.3907   -8.2977 C   0  0  0  0  0  0  0  0  0  0  0  0
   -9.3818    5.7522   -8.1737 C   0  0  0  0  0  0  0  0  0  0  0  0
   -9.7143    4.7570   -7.1427 C   0  0  0  0  0  0  0  0  0  0  0  0
   -8.9482    4.3258   -6.2397 O   0  0  0  0  0  0  0  0  0  0  0  0
  -11.1363    4.4921   -7.2065 C   0  0  0  0  0  0  0  0  0  0  0  0
  -11.8954    3.6896   -6.3562 C   0  0  0  0  0  0  0  0  0  0  0  0
  -13.2923    3.6678   -6.5155 C   0  0  0  0  0  0  0  0  0  0  0  0
  -14.1475    2.8293   -5.6119 C   0  0  0  0  0  0  0  0  0  0  0  0
  -13.8938    4.4870   -7.4957 C   0  0  0  0  0  0  0  0  0  0  0  0
  -15.2435    4.5196   -7.6278 F   0  0  0  0  0  0  0  0  0  0  0  0
  -13.1071    5.2936   -8.3338 C   0  0  0  0  0  0  0  0  0  0  0  0
  -11.7100    5.2608   -8.2022 C   0  0  0  0  0  0  0  0  0  0  0  0
  -10.6538    6.0359   -8.9150 C   0  0  0  0  0  0  0  0  0  0  0  0
  -10.7825    6.6513  -10.1199 C   0  0  0  0  0  0  0  0  0  0  0  0
   -9.6781    7.2672  -10.8068 C   0  0  0  0  0  0  0  0  0  0  0  0
   -8.7984    7.7642  -11.3691 N   0  0  0  0  0  0  0  0  0  0  0  0
  -12.0026    6.5933  -10.8879 C   0  0  0  0  0  0  0  0  0  0  0  0
  -12.9677    6.5319  -11.5251 N   0  0  0  0  0  0  0  0  0  0  0  0
   -6.9359    5.9291   -7.7034 C   0  0  0  0  0  0  0  0  0  0  0  0
   -5.7295    6.9932   -7.1026 S   0  0  0  0  0  0  0  0  0  0  0  0
   -4.6780    5.7330   -6.7851 C   0  0  0  0  0  0  0  0  0  0  0  0
   -3.4873    5.4627   -6.1755 C   0  0  0  0  0  0  0  0  0  0  0  0
   -3.3652    4.1125   -6.1618 C   0  0  0  0  0  0  0  0  0  0  0  0
   -4.4303    3.4944   -6.7371 N   0  0  0  0  0  0  0  0  0  0  0  0
   -4.6879    2.0612   -6.8641 C   0  0  0  0  0  0  0  0  0  0  0  0
   -4.0847    1.5343   -8.1593 C   0  0  0  0  0  0  0  0  0  0  0  0
   -5.2162    4.5343   -7.1182 C   0  0  0  0  0  0  0  0  0  0  0  0
   -6.4909    4.5917   -7.6631 C   0  0  0  0  0  0  0  0  0  0  0  0
   -2.2832    3.6274   -5.4363 C   0  0  0  0  0  0  0  0  0  0  0  0
   -1.5551    4.6923   -4.8685 C   0  0  0  0  0  0  0  0  0  0  0  0
   -2.2799    6.1967   -5.2860 S   0  0  0  0  0  0  0  0  0  0  0  0
   -0.3904    4.5078   -3.9748 C   0  0  0  0  0  0  0  0  0  0  0  0
    0.2516    5.4758   -3.1695 C   0  0  0  0  0  0  0  0  0  0  0  0
   -0.1100    6.8954   -3.0558 C   0  0  0  0  0  0  0  0  0  0  0  0
   -1.2386    7.2818   -2.3220 C   0  0  0  0  0  0  0  0  0  0  0  0
   -1.5440    8.6375   -2.1710 C   0  0  0  0  0  0  0  0  0  0  0  0
   -0.7238    9.6102   -2.7497 C   0  0  0  0  0  0  0  0  0  0  0  0
    0.4070    9.2335   -3.4911 C   0  0  0  0  0  0  0  0  0  0  0  0
    1.3075   10.2841   -4.0851 C   0  0  0  0  0  0  0  0  0  0  0  0
    2.3274   10.7630   -3.0584 C   0  0  0  0  0  0  0  0  0  0  0  0
    0.7205    7.8721   -3.6243 C   0  0  0  0  0  0  0  0  0  0  0  0
    1.2545    4.8999   -2.3889 C   0  0  0  0  0  0  0  0  0  0  0  0
    2.1328    5.4783   -1.0505 S   0  0  0  0  0  0  0  0  0  0  0  0
    2.7824    3.9348   -0.7756 C   0  0  0  0  0  0  0  0  0  0  0  0
    3.3102    3.2679    0.2918 C   0  0  0  0  0  0  0  0  0  0  0  0
    3.5714    3.7260    1.5898 C   0  0  0  0  0  0  0  0  0  0  0  0
    3.8105    2.7711    2.6174 C   0  0  0  0  0  0  0  0  0  0  0  0
    4.0157    3.2484    3.8708 N   0  0  0  0  0  0  0  0  0  0  0  0
    3.8603    4.8715    3.5744 S   0  0  0  0  0  0  0  0  0  0  0  0
    3.5460    5.0316    1.9554 N   0  0  0  0  0  0  0  0  0  0  0  0
    3.8231    1.4177    2.2814 C   0  0  0  0  0  0  0  0  0  0  0  0
    4.1015    0.3141    3.0297 C   0  0  0  0  0  0  0  0  0  0  0  0
    4.4645   -0.1119    4.6334 S   0  0  0  0  0  0  0  0  0  0  0  0
    4.6746   -1.7466    4.1774 C   0  0  0  0  0  0  0  0  0  0  0  0
    4.9371   -2.9249    4.8880 C   0  0  0  0  0  0  0  0  0  0  0  0
    5.0795   -2.9739    6.3605 C   0  0  0  0  0  0  0  0  0  0  0  0
    4.3647   -3.9186    7.1136 C   0  0  0  0  0  0  0  0  0  0  0  0
    4.4784   -3.9411    8.5067 C   0  0  0  0  0  0  0  0  0  0  0  0
    5.3020   -3.0205    9.1596 C   0  0  0  0  0  0  0  0  0  0  0  0
    6.0321   -2.0772    8.4202 C   0  0  0  0  0  0  0  0  0  0  0  0
    6.8780   -1.0490    9.1217 C   0  0  0  0  0  0  0  0  0  0  0  0
    6.0669    0.2117    9.4036 C   0  0  0  0  0  0  0  0  0  0  0  0
    5.9118   -2.0536    7.0207 C   0  0  0  0  0  0  0  0  0  0  0  0
    4.9401   -4.0419    4.0182 C   0  0  0  0  0  0  0  0  0  0  0  0
    4.6088   -3.5284    2.4238 S   0  0  0  0  0  0  0  0  0  0  0  0
    4.4757   -1.9155    2.8307 C   0  0  0  0  0  0  0  0  0  0  0  0
    4.1393   -0.7362    2.1834 C   0  0  0  0  0  0  0  0  0  0  0  0
    3.9004   -0.3951    0.8947 N   0  0  0  0  0  0  0  0  0  0  0  0
    3.6203    0.9522    0.9675 C   0  0  0  0  0  0  0  0  0  0  0  0
    3.2413    1.8974   -0.0322 C   0  0  0  0  0  0  0  0  0  0  0  0
    2.5619    1.7277   -1.2217 N   0  0  0  0  0  0  0  0  0  0  0  0
    2.3209    2.9977   -1.6420 C   0  0  0  0  0  0  0  0  0  0  0  0
    1.4282    3.5499   -2.5594 C   0  0  0  0  0  0  0  0  0  0  0  0
    0.3170    2.9848   -3.6735 S   0  0  0  0  0  0  0  0  0  0  0  0
    1.8818    0.5392   -1.7513 C   0  0  0  0  0  0  0  0  0  0  0  0
    0.8201    0.0229   -0.7856 C   0  0  0  0  0  0  0  0  0  0  0  0
    4.2796   -1.2356   -0.2531 C   0  0  0  0  0  0  0  0  0  0  0  0
    5.2524   -0.5215   -1.1935 C   0  0  0  0  0  0  0  0  0  0  0  0
    5.2563   -5.4515    4.3503 C   0  0  0  0  0  0  0  0  0  0  0  0
    6.3784   -5.7758    5.1364 C   0  0  0  0  0  0  0  0  0  0  0  0
    7.1786   -4.8025    5.6386 F   0  0  0  0  0  0  0  0  0  0  0  0
    6.7397   -7.1129    5.3321 C   0  0  0  0  0  0  0  0  0  0  0  0
    7.8432   -7.4003    6.0684 F   0  0  0  0  0  0  0  0  0  0  0  0
    5.9974   -8.1477    4.7413 C   0  0  0  0  0  0  0  0  0  0  0  0
    4.8908   -7.8242    3.9357 C   0  0  0  0  0  0  0  0  0  0  0  0
    4.2228   -8.7911    3.2533 F   0  0  0  0  0  0  0  0  0  0  0  0
    4.5086   -6.4908    3.7650 C   0  0  0  0  0  0  0  0  0  0  0  0
    3.4211   -6.2170    2.9992 F   0  0  0  0  0  0  0  0  0  0  0  0
    6.5159   -9.5299    4.8082 C   0  0  0  0  0  0  0  0  0  0  0  0
    5.7953  -10.6154    5.1544 C   0  0  0  0  0  0  0  0  0  0  0  0
    4.3717  -10.6380    5.5111 C   0  0  0  0  0  0  0  0  0  0  0  0
    3.6809   -9.6598    5.9075 O   0  0  0  0  0  0  0  0  0  0  0  0
    3.8895  -11.9951    5.3634 C   0  0  0  0  0  0  0  0  0  0  0  0
    2.5764  -12.4597    5.4516 C   0  0  0  0  0  0  0  0  0  0  0  0
    2.3191  -13.8175    5.1826 C   0  0  0  0  0  0  0  0  0  0  0  0
    0.9155  -14.3444    5.2359 C   0  0  0  0  0  0  0  0  0  0  0  0
    3.3796  -14.6640    4.7890 C   0  0  0  0  0  0  0  0  0  0  0  0
    3.1401  -15.9624    4.4736 F   0  0  0  0  0  0  0  0  0  0  0  0
    4.6916  -14.1697    4.6998 C   0  0  0  0  0  0  0  0  0  0  0  0
    4.9432  -12.8259    5.0207 C   0  0  0  0  0  0  0  0  0  0  0  0
    6.2113  -12.0428    5.0031 C   0  0  0  0  0  0  0  0  0  0  0  0
    7.4756  -12.5405    5.0671 C   0  0  0  0  0  0  0  0  0  0  0  0
    8.6185  -11.7093    5.3497 C   0  0  0  0  0  0  0  0  0  0  0  0
    9.5420  -11.0507    5.5796 N   0  0  0  0  0  0  0  0  0  0  0  0
    7.7600  -13.9483    4.9864 C   0  0  0  0  0  0  0  0  0  0  0  0
    8.0118  -15.0763    4.9163 N   0  0  0  0  0  0  0  0  0  0  0  0
   -8.1374    7.3107   -8.8564 H   0  0  0  0  0  0  0  0  0  0  0  0
  -11.4120    3.1149   -5.5736 H   0  0  0  0  0  0  0  0  0  0  0  0
  -13.5328    2.1354   -5.0001 H   0  0  0  0  0  0  0  0  0  0  0  0
  -14.7225    3.4896   -4.9301 H   0  0  0  0  0  0  0  0  0  0  0  0
  -14.8556    2.2243   -6.2161 H   0  0  0  0  0  0  0  0  0  0  0  0
  -13.6019    5.9556   -9.0255 H   0  0  0  0  0  0  0  0  0  0  0  0
   -4.2462    1.5192   -5.9990 H   0  0  0  0  0  0  0  0  0  0  0  0
   -5.7831    1.8698   -6.8601 H   0  0  0  0  0  0  0  0  0  0  0  0
   -4.5505    2.0404   -9.0287 H   0  0  0  0  0  0  0  0  0  0  0  0
   -4.2668    0.4413   -8.2352 H   0  0  0  0  0  0  0  0  0  0  0  0
   -2.9884    1.7162   -8.1711 H   0  0  0  0  0  0  0  0  0  0  0  0
   -7.0534    3.7331   -8.0056 H   0  0  0  0  0  0  0  0  0  0  0  0
   -2.0723    2.5773   -5.2858 H   0  0  0  0  0  0  0  0  0  0  0  0
   -1.8756    6.5365   -1.8616 H   0  0  0  0  0  0  0  0  0  0  0  0
   -2.4129    8.9356   -1.5977 H   0  0  0  0  0  0  0  0  0  0  0  0
   -0.9665   10.6572   -2.6161 H   0  0  0  0  0  0  0  0  0  0  0  0
    1.8427    9.8777   -4.9714 H   0  0  0  0  0  0  0  0  0  0  0  0
    0.7025   11.1495   -4.4338 H   0  0  0  0  0  0  0  0  0  0  0  0
    2.9800   11.5377   -3.5143 H   0  0  0  0  0  0  0  0  0  0  0  0
    2.9624    9.9149   -2.7222 H   0  0  0  0  0  0  0  0  0  0  0  0
    1.8110   11.2049   -2.1802 H   0  0  0  0  0  0  0  0  0  0  0  0
    1.6083    7.5704   -4.1702 H   0  0  0  0  0  0  0  0  0  0  0  0
    3.7024   -4.6238    6.6271 H   0  0  0  0  0  0  0  0  0  0  0  0
    3.9153   -4.6628    9.0826 H   0  0  0  0  0  0  0  0  0  0  0  0
    5.3681   -3.0385   10.2418 H   0  0  0  0  0  0  0  0  0  0  0  0
    7.7570   -0.7850    8.4941 H   0  0  0  0  0  0  0  0  0  0  0  0
    7.2663   -1.4568   10.0797 H   0  0  0  0  0  0  0  0  0  0  0  0
    6.7142    0.9736    9.8864 H   0  0  0  0  0  0  0  0  0  0  0  0
    5.6683    0.6343    8.4570 H   0  0  0  0  0  0  0  0  0  0  0  0
    5.2204   -0.0193   10.0842 H   0  0  0  0  0  0  0  0  0  0  0  0
    6.4674   -1.3196    6.4495 H   0  0  0  0  0  0  0  0  0  0  0  0
    1.3835    0.7670   -2.7072 H   0  0  0  0  0  0  0  0  0  0  0  0
    2.6038   -0.2299   -2.0422 H   0  0  0  0  0  0  0  0  0  0  0  0
    0.3052   -0.8558   -1.2289 H   0  0  0  0  0  0  0  0  0  0  0  0
    0.0697    0.8194   -0.5926 H   0  0  0  0  0  0  0  0  0  0  0  0
    1.2669   -0.2811    0.1852 H   0  0  0  0  0  0  0  0  0  0  0  0
    4.8249   -2.1310    0.0995 H   0  0  0  0  0  0  0  0  0  0  0  0
    3.3848   -1.6464   -0.7526 H   0  0  0  0  0  0  0  0  0  0  0  0
    5.5730   -1.2201   -1.9944 H   0  0  0  0  0  0  0  0  0  0  0  0
    4.7999    0.3673   -1.6748 H   0  0  0  0  0  0  0  0  0  0  0  0
    6.1508   -0.1958   -0.6276 H   0  0  0  0  0  0  0  0  0  0  0  0
    7.5341   -9.6427    4.4801 H   0  0  0  0  0  0  0  0  0  0  0  0
    1.7737  -11.7778    5.7071 H   0  0  0  0  0  0  0  0  0  0  0  0
    0.8948  -15.3254    5.7546 H   0  0  0  0  0  0  0  0  0  0  0  0
    0.2446  -13.6498    5.7860 H   0  0  0  0  0  0  0  0  0  0  0  0
    0.5283  -14.4709    4.2028 H   0  0  0  0  0  0  0  0  0  0  0  0
    5.4677  -14.8294    4.3494 H   0  0  0  0  0  0  0  0  0  0  0  0
  1  2  2  3
  2  3  1  0
  3  4  2  0
  3  5  1  0
  5  6  2  0
  6  7  1  0
  7  8  1  0
  7  9  2  0
  9 10  1  0
  9 11  1  0
 11 12  2  0
 12 13  1  0
 13 14  2  3
 14 15  1  0
 15 16  3  0
 14 17  1  0
 17 18  3  0
  1 19  1  0
 19 20  1  0
 20 21  1  0
 21 22  1  0
 22 23  2  0
 23 24  1  0
 24 25  1  0
 25 26  1  0
 24 27  1  0
 27 28  1  0
 23 29  1  0
 29 30  2  0
 30 31  1  0
 30 32  1  0
 32 33  2  0
 33 34  1  0
 34 35  2  0
 35 36  1  0
 36 37  2  0
 37 38  1  0
 38 39  1  0
 39 40  1  0
 38 41  2  0
 33 42  1  0
 42 43  1  0
 43 44  1  0
 44 45  1  0
 45 46  1  0
 46 47  1  0
 47 48  2  0
 48 49  1  0
 49 50  1  0
 47 51  1  0
 51 52  1  0
 52 53  1  0
 53 54  1  0
 54 55  1  0
 55 56  1  0
 56 57  2  0
 57 58  1  0
 58 59  2  0
 59 60  1  0
 60 61  1  0
 61 62  1  0
 60 63  2  0
 55 64  2  0
 64 65  1  0
 65 66  1  0
 66 67  1  0
 67 68  1  0
 68 69  1  0
 69 70  1  0
 70 71  1  0
 71 72  1  0
 72 73  1  0
 73 74  1  0
 71 75  1  0
 75 76  1  0
 68 77  1  0
 77 78  1  0
 64 79  1  0
 79 80  2  0
 80 81  1  0
 80 82  1  0
 82 83  1  0
 82 84  2  0
 84 85  1  0
 85 86  1  0
 85 87  2  0
 87 88  1  0
 84 89  1  0
 89 90  2  3
 90 91  1  0
 91 92  2  0
 91 93  1  0
 93 94  2  0
 94 95  1  0
 95 96  1  0
 95 97  2  0
 97 98  1  0
 97 99  1  0
 99100  2  0
100101  1  0
101102  2  3
102103  1  0
103104  3  0
102105  1  0
105106  3  0
 13  2  1  0
 28 19  2  0
 74 32  1  0
 87 79  1  0
101 90  1  0
 12  5  1  0
 27 21  2  0
 41 34  1  0
 73 42  2  0
100 93  1  0
 31 22  1  0
 72 44  2  0
 70 45  2  0
 50 46  2  0
 69 51  2  0
 67 52  2  0
 66 54  2  0
 63 56  1  0
  1107  1  0
  6108  1  0
  8109  1  0
  8110  1  0
  8111  1  0
 11112  1  0
 25113  1  0
 25114  1  0
 26115  1  0
 26116  1  0
 26117  1  0
 28118  1  0
 29119  1  0
 35120  1  0
 36121  1  0
 37122  1  0
 39123  1  0
 39124  1  0
 40125  1  0
 40126  1  0
 40127  1  0
 41128  1  0
 57129  1  0
 58130  1  0
 59131  1  0
 61132  1  0
 61133  1  0
 62134  1  0
 62135  1  0
 62136  1  0
 63137  1  0
 75138  1  0
 75139  1  0
 76140  1  0
 76141  1  0
 76142  1  0
 77143  1  0
 77144  1  0
 78145  1  0
 78146  1  0
 78147  1  0
 89148  1  0
 94149  1  0
 96150  1  0
 96151  1  0
 96152  1  0
 99153  1  0
M  END

