
     RDKit          3D

197219  0  0  0  0  0  0  0  0999 V2000
    3.0629   -6.9217    1.7621 C   0  0  0  0  0  0  0  0  0  0  0  0
    2.5776   -6.4530    2.9253 C   0  0  0  0  0  0  0  0  0  0  0  0
    3.0742   -5.2539    3.6466 C   0  0  0  0  0  0  0  0  0  0  0  0
    3.9049   -4.4024    3.2296 O   0  0  0  0  0  0  0  0  0  0  0  0
    2.4933   -5.2718    4.9687 C   0  0  0  0  0  0  0  0  0  0  0  0
    2.5810   -4.4540    6.0927 C   0  0  0  0  0  0  0  0  0  0  0  0
    1.7759   -4.9384    7.1268 C   0  0  0  0  0  0  0  0  0  0  0  0
    0.9806   -6.3545    6.6145 S   0  0  0  0  0  0  0  0  0  0  0  0
    1.6812   -6.3463    5.0885 C   0  0  0  0  0  0  0  0  0  0  0  0
    1.6143   -7.1384    3.8501 C   0  0  0  0  0  0  0  0  0  0  0  0
    0.7453   -8.1419    3.5986 C   0  0  0  0  0  0  0  0  0  0  0  0
    0.5677   -8.6989    2.2829 C   0  0  0  0  0  0  0  0  0  0  0  0
    0.4170   -9.1510    1.2280 N   0  0  0  0  0  0  0  0  0  0  0  0
   -0.1221   -8.6555    4.6281 C   0  0  0  0  0  0  0  0  0  0  0  0
   -0.8191   -9.0752    5.4504 N   0  0  0  0  0  0  0  0  0  0  0  0
    3.9826   -6.1394    0.9228 C   0  0  0  0  0  0  0  0  0  0  0  0
    3.5197   -4.9644    0.3009 C   0  0  0  0  0  0  0  0  0  0  0  0
    4.4321   -4.1825   -0.3957 C   0  0  0  0  0  0  0  0  0  0  0  0
    4.2547   -2.8520   -0.9544 C   0  0  0  0  0  0  0  0  0  0  0  0
    3.1816   -2.1942   -1.0108 O   0  0  0  0  0  0  0  0  0  0  0  0
    5.5789   -2.3937   -1.3453 C   0  0  0  0  0  0  0  0  0  0  0  0
    6.4969   -3.3930   -1.0739 C   0  0  0  0  0  0  0  0  0  0  0  0
    5.7717   -4.5226   -0.4782 C   0  0  0  0  0  0  0  0  0  0  0  0
    6.2509   -5.6984    0.1036 C   0  0  0  0  0  0  0  0  0  0  0  0
    5.3389   -6.5212    0.7932 C   0  0  0  0  0  0  0  0  0  0  0  0
    7.8692   -3.1558   -1.1796 C   0  0  0  0  0  0  0  0  0  0  0  0
    8.2981   -1.8617   -1.5337 C   0  0  0  0  0  0  0  0  0  0  0  0
    7.3591   -0.8212   -1.7385 C   0  0  0  0  0  0  0  0  0  0  0  0
    5.9789   -1.1080   -1.6764 C   0  0  0  0  0  0  0  0  0  0  0  0
    7.7735    0.5995   -1.7700 C   0  0  0  0  0  0  0  0  0  0  0  0
    8.4058    1.2379   -0.6821 C   0  0  0  0  0  0  0  0  0  0  0  0
    8.9633    0.4965    0.4659 C   0  0  0  0  0  0  0  0  0  0  0  0
    8.1394    0.1673    1.5530 C   0  0  0  0  0  0  0  0  0  0  0  0
    8.6338   -0.6231    2.5924 C   0  0  0  0  0  0  0  0  0  0  0  0
    9.9488   -1.0940    2.5514 C   0  0  0  0  0  0  0  0  0  0  0  0
   10.7882   -0.7578    1.4770 C   0  0  0  0  0  0  0  0  0  0  0  0
   12.1826   -1.3198    1.4013 C   0  0  0  0  0  0  0  0  0  0  0  0
   12.1781   -2.6749    0.7001 C   0  0  0  0  0  0  0  0  0  0  0  0
   10.2872    0.0378    0.4326 C   0  0  0  0  0  0  0  0  0  0  0  0
    8.0641    2.5958   -0.6080 C   0  0  0  0  0  0  0  0  0  0  0  0
    8.0167    3.6208    0.7393 S   0  0  0  0  0  0  0  0  0  0  0  0
    6.8694    4.6481    0.0284 C   0  0  0  0  0  0  0  0  0  0  0  0
    5.7907    5.2791    0.5933 C   0  0  0  0  0  0  0  0  0  0  0  0
    5.4898    5.4271    1.9592 C   0  0  0  0  0  0  0  0  0  0  0  0
    4.1327    5.6090    2.3576 C   0  0  0  0  0  0  0  0  0  0  0  0
    3.8781    5.6557    3.6876 N   0  0  0  0  0  0  0  0  0  0  0  0
    5.4141    5.4547    4.2725 S   0  0  0  0  0  0  0  0  0  0  0  0
    6.4025    5.3011    2.9539 N   0  0  0  0  0  0  0  0  0  0  0  0
    3.1560    5.7254    1.3679 C   0  0  0  0  0  0  0  0  0  0  0  0
    1.7849    5.7731    1.4409 C   0  0  0  0  0  0  0  0  0  0  0  0
    0.6684    5.0406    2.4924 S   0  0  0  0  0  0  0  0  0  0  0  0
   -0.4532    4.7979    1.2300 C   0  0  0  0  0  0  0  0  0  0  0  0
   -1.5209    3.8995    1.1112 C   0  0  0  0  0  0  0  0  0  0  0  0
   -2.0424    3.1516    2.2650 C   0  0  0  0  0  0  0  0  0  0  0  0
   -1.4689    1.9227    2.6235 C   0  0  0  0  0  0  0  0  0  0  0  0
   -1.9674    1.2090    3.7160 C   0  0  0  0  0  0  0  0  0  0  0  0
   -3.0241    1.7260    4.4692 C   0  0  0  0  0  0  0  0  0  0  0  0
   -3.6021    2.9588    4.1236 C   0  0  0  0  0  0  0  0  0  0  0  0
   -4.6987    3.5462    4.9714 C   0  0  0  0  0  0  0  0  0  0  0  0
   -4.1237    4.4731    6.0379 C   0  0  0  0  0  0  0  0  0  0  0  0
   -3.1025    3.6723    3.0209 C   0  0  0  0  0  0  0  0  0  0  0  0
   -1.8389    3.6418   -0.2471 C   0  0  0  0  0  0  0  0  0  0  0  0
   -0.7459    4.5120   -1.2216 S   0  0  0  0  0  0  0  0  0  0  0  0
    0.0564    5.2477    0.0409 C   0  0  0  0  0  0  0  0  0  0  0  0
    1.3298    5.7826    0.1541 C   0  0  0  0  0  0  0  0  0  0  0  0
    2.3363    5.7573   -0.7500 N   0  0  0  0  0  0  0  0  0  0  0  0
    3.4667    5.6471    0.0063 C   0  0  0  0  0  0  0  0  0  0  0  0
    4.7831    5.2779   -0.3845 C   0  0  0  0  0  0  0  0  0  0  0  0
    5.1736    4.5327   -1.4749 N   0  0  0  0  0  0  0  0  0  0  0  0
    6.4686    4.1864   -1.2004 C   0  0  0  0  0  0  0  0  0  0  0  0
    7.1934    3.0399   -1.5773 C   0  0  0  0  0  0  0  0  0  0  0  0
    6.8535    1.7596   -2.6009 S   0  0  0  0  0  0  0  0  0  0  0  0
    4.2879    3.7408   -2.3431 C   0  0  0  0  0  0  0  0  0  0  0  0
    4.5699    4.0094   -3.8215 C   0  0  0  0  0  0  0  0  0  0  0  0
    2.2319    6.2506   -2.1291 C   0  0  0  0  0  0  0  0  0  0  0  0
    1.6815    7.6714   -2.1674 C   0  0  0  0  0  0  0  0  0  0  0  0
   -2.7670    2.6090   -0.7826 C   0  0  0  0  0  0  0  0  0  0  0  0
   -3.0201    2.3310   -2.1461 C   0  0  0  0  0  0  0  0  0  0  0  0
   -2.6107    3.1478   -3.2545 N   0  0  0  0  0  0  0  0  0  0  0  0
   -1.7124    2.5820   -4.2318 C   0  0  0  0  0  0  0  0  0  0  0  0
   -1.9500    2.7487   -5.6065 C   0  0  0  0  0  0  0  0  0  0  0  0
   -1.0850    2.1800   -6.5468 C   0  0  0  0  0  0  0  0  0  0  0  0
    0.0181    1.4231   -6.1277 C   0  0  0  0  0  0  0  0  0  0  0  0
    0.9692    0.8442   -7.1337 C   0  0  0  0  0  0  0  0  0  0  0  0
    0.2632    1.2647   -4.7571 C   0  0  0  0  0  0  0  0  0  0  0  0
   -0.6007    1.8295   -3.8165 C   0  0  0  0  0  0  0  0  0  0  0  0
   -3.1951    4.4592   -3.4308 C   0  0  0  0  0  0  0  0  0  0  0  0
   -4.5041    4.7284   -2.9898 C   0  0  0  0  0  0  0  0  0  0  0  0
   -5.0485    6.0081   -3.1202 C   0  0  0  0  0  0  0  0  0  0  0  0
   -4.2899    7.0472   -3.6784 C   0  0  0  0  0  0  0  0  0  0  0  0
   -4.8783    8.4184   -3.8358 C   0  0  0  0  0  0  0  0  0  0  0  0
   -2.9943    6.7788   -4.1429 C   0  0  0  0  0  0  0  0  0  0  0  0
   -2.4494    5.4991   -4.0136 C   0  0  0  0  0  0  0  0  0  0  0  0
   -3.7771    1.1724   -2.3047 C   0  0  0  0  0  0  0  0  0  0  0  0
   -4.3369    0.3050   -3.6265 S   0  0  0  0  0  0  0  0  0  0  0  0
   -5.1061   -0.8918   -2.6784 C   0  0  0  0  0  0  0  0  0  0  0  0
   -4.8795   -0.6153   -1.3162 C   0  0  0  0  0  0  0  0  0  0  0  0
   -5.3759   -1.3920   -0.2111 N   0  0  0  0  0  0  0  0  0  0  0  0
   -6.0467   -0.7092    0.8694 C   0  0  0  0  0  0  0  0  0  0  0  0
   -5.6932   -0.9633    2.2057 C   0  0  0  0  0  0  0  0  0  0  0  0
   -6.2831   -0.2362    3.2440 C   0  0  0  0  0  0  0  0  0  0  0  0
   -7.2471    0.7432    2.9632 C   0  0  0  0  0  0  0  0  0  0  0  0
   -7.8605    1.5549    4.0634 C   0  0  0  0  0  0  0  0  0  0  0  0
   -7.5948    1.0042    1.6298 C   0  0  0  0  0  0  0  0  0  0  0  0
   -7.0022    0.2812    0.5914 C   0  0  0  0  0  0  0  0  0  0  0  0
   -5.0633   -2.7971   -0.1088 C   0  0  0  0  0  0  0  0  0  0  0  0
   -6.0180   -3.7044    0.3792 C   0  0  0  0  0  0  0  0  0  0  0  0
   -5.7199   -5.0674    0.4695 C   0  0  0  0  0  0  0  0  0  0  0  0
   -4.4679   -5.5456    0.0583 C   0  0  0  0  0  0  0  0  0  0  0  0
   -4.1344   -7.0023    0.1902 C   0  0  0  0  0  0  0  0  0  0  0  0
   -3.5032   -4.6399   -0.4095 C   0  0  0  0  0  0  0  0  0  0  0  0
   -3.8022   -3.2770   -0.5001 C   0  0  0  0  0  0  0  0  0  0  0  0
   -4.1487    0.5592   -1.1605 C   0  0  0  0  0  0  0  0  0  0  0  0
   -3.5381    1.4011    0.1508 S   0  0  0  0  0  0  0  0  0  0  0  0
   -5.7715   -2.0868   -3.2267 C   0  0  0  0  0  0  0  0  0  0  0  0
   -6.6402   -2.0611   -4.2546 C   0  0  0  0  0  0  0  0  0  0  0  0
   -7.3494   -0.8602   -4.7631 C   0  0  0  0  0  0  0  0  0  0  0  0
   -7.2354    0.3202   -4.3461 O   0  0  0  0  0  0  0  0  0  0  0  0
   -8.3279   -1.3072   -5.7268 C   0  0  0  0  0  0  0  0  0  0  0  0
   -9.2987   -0.6783   -6.5006 C   0  0  0  0  0  0  0  0  0  0  0  0
  -10.0165   -1.6084   -7.2568 C   0  0  0  0  0  0  0  0  0  0  0  0
   -9.4356   -3.1752   -6.9262 S   0  0  0  0  0  0  0  0  0  0  0  0
   -8.2749   -2.6534   -5.8331 C   0  0  0  0  0  0  0  0  0  0  0  0
   -7.2331   -3.2433   -4.9730 C   0  0  0  0  0  0  0  0  0  0  0  0
   -6.8493   -4.5423   -4.9763 C   0  0  0  0  0  0  0  0  0  0  0  0
   -5.7140   -5.0276   -4.2369 C   0  0  0  0  0  0  0  0  0  0  0  0
   -4.7988   -5.4238   -3.6499 N   0  0  0  0  0  0  0  0  0  0  0  0
   -7.5316   -5.5151   -5.7904 C   0  0  0  0  0  0  0  0  0  0  0  0
   -8.0808   -6.2982   -6.4427 N   0  0  0  0  0  0  0  0  0  0  0  0
    2.8185   -7.9129    1.4194 H   0  0  0  0  0  0  0  0  0  0  0  0
    3.1931   -3.5637    6.1570 H   0  0  0  0  0  0  0  0  0  0  0  0
    1.6684   -4.4781    8.0994 H   0  0  0  0  0  0  0  0  0  0  0  0
    2.4905   -4.6398    0.4087 H   0  0  0  0  0  0  0  0  0  0  0  0
    7.3008   -5.9549    0.0616 H   0  0  0  0  0  0  0  0  0  0  0  0
    5.6970   -7.4206    1.2748 H   0  0  0  0  0  0  0  0  0  0  0  0
    8.5879   -3.9255   -0.9299 H   0  0  0  0  0  0  0  0  0  0  0  0
    9.3582   -1.6524   -1.5767 H   0  0  0  0  0  0  0  0  0  0  0  0
    5.2311   -0.3295   -1.7610 H   0  0  0  0  0  0  0  0  0  0  0  0
    7.1093    0.5032    1.5820 H   0  0  0  0  0  0  0  0  0  0  0  0
    7.9916   -0.8855    3.4235 H   0  0  0  0  0  0  0  0  0  0  0  0
   10.3107   -1.7270    3.3527 H   0  0  0  0  0  0  0  0  0  0  0  0
   12.6024   -1.4367    2.4249 H   0  0  0  0  0  0  0  0  0  0  0  0
   12.8505   -0.6228    0.8472 H   0  0  0  0  0  0  0  0  0  0  0  0
   11.5257   -3.3913    1.2442 H   0  0  0  0  0  0  0  0  0  0  0  0
   11.8121   -2.5682   -0.3440 H   0  0  0  0  0  0  0  0  0  0  0  0
   13.2109   -3.0837    0.6762 H   0  0  0  0  0  0  0  0  0  0  0  0
   10.9156    0.2766   -0.4158 H   0  0  0  0  0  0  0  0  0  0  0  0
   -0.6459    1.5136    2.0500 H   0  0  0  0  0  0  0  0  0  0  0  0
   -1.5350    0.2523    3.9811 H   0  0  0  0  0  0  0  0  0  0  0  0
   -3.3887    1.1699    5.3254 H   0  0  0  0  0  0  0  0  0  0  0  0
   -5.2696    2.7330    5.4690 H   0  0  0  0  0  0  0  0  0  0  0  0
   -5.4074    4.1163    4.3333 H   0  0  0  0  0  0  0  0  0  0  0  0
   -3.5801    5.3185    5.5643 H   0  0  0  0  0  0  0  0  0  0  0  0
   -3.4280    3.9132    6.6994 H   0  0  0  0  0  0  0  0  0  0  0  0
   -4.9495    4.8845    6.6571 H   0  0  0  0  0  0  0  0  0  0  0  0
   -3.5374    4.6272    2.7499 H   0  0  0  0  0  0  0  0  0  0  0  0
    3.2228    3.9171   -2.1359 H   0  0  0  0  0  0  0  0  0  0  0  0
    4.3992    2.6613   -2.1191 H   0  0  0  0  0  0  0  0  0  0  0  0
    4.3631    5.0666   -4.0810 H   0  0  0  0  0  0  0  0  0  0  0  0
    5.6296    3.8013   -4.0669 H   0  0  0  0  0  0  0  0  0  0  0  0
    3.9231    3.3566   -4.4437 H   0  0  0  0  0  0  0  0  0  0  0  0
    1.5716    5.5818   -2.7223 H   0  0  0  0  0  0  0  0  0  0  0  0
    3.2314    6.2789   -2.5992 H   0  0  0  0  0  0  0  0  0  0  0  0
    2.3595    8.3541   -1.6108 H   0  0  0  0  0  0  0  0  0  0  0  0
    1.6141    8.0165   -3.2202 H   0  0  0  0  0  0  0  0  0  0  0  0
    0.6686    7.7164   -1.7161 H   0  0  0  0  0  0  0  0  0  0  0  0
   -2.8102    3.3088   -5.9501 H   0  0  0  0  0  0  0  0  0  0  0  0
   -1.2846    2.3249   -7.6028 H   0  0  0  0  0  0  0  0  0  0  0  0
    1.8096    1.5504   -7.2981 H   0  0  0  0  0  0  0  0  0  0  0  0
    0.4560    0.6591   -8.1002 H   0  0  0  0  0  0  0  0  0  0  0  0
    1.3743   -0.1229   -6.7695 H   0  0  0  0  0  0  0  0  0  0  0  0
    1.1232    0.7003   -4.4150 H   0  0  0  0  0  0  0  0  0  0  0  0
   -0.3999    1.6864   -2.7626 H   0  0  0  0  0  0  0  0  0  0  0  0
   -5.1101    3.9444   -2.5521 H   0  0  0  0  0  0  0  0  0  0  0  0
   -6.0608    6.1906   -2.7787 H   0  0  0  0  0  0  0  0  0  0  0  0
   -5.6582    8.6055   -3.0666 H   0  0  0  0  0  0  0  0  0  0  0  0
   -5.3357    8.5106   -4.8428 H   0  0  0  0  0  0  0  0  0  0  0  0
   -4.0925    9.1960   -3.7222 H   0  0  0  0  0  0  0  0  0  0  0  0
   -2.3991    7.5638   -4.5919 H   0  0  0  0  0  0  0  0  0  0  0  0
   -1.4338    5.3239   -4.3478 H   0  0  0  0  0  0  0  0  0  0  0  0
   -4.9345   -1.7004    2.4411 H   0  0  0  0  0  0  0  0  0  0  0  0
   -5.9790   -0.4291    4.2651 H   0  0  0  0  0  0  0  0  0  0  0  0
   -7.3511    2.5388    4.1273 H   0  0  0  0  0  0  0  0  0  0  0  0
   -7.7723    1.0357    5.0436 H   0  0  0  0  0  0  0  0  0  0  0  0
   -8.9407    1.7287    3.8595 H   0  0  0  0  0  0  0  0  0  0  0  0
   -8.3187    1.7742    1.3931 H   0  0  0  0  0  0  0  0  0  0  0  0
   -7.2770    0.5029   -0.4316 H   0  0  0  0  0  0  0  0  0  0  0  0
   -6.9958   -3.3543    0.6852 H   0  0  0  0  0  0  0  0  0  0  0  0
   -6.4669   -5.7474    0.8583 H   0  0  0  0  0  0  0  0  0  0  0  0
   -5.0434   -7.6260    0.0537 H   0  0  0  0  0  0  0  0  0  0  0  0
   -3.7139   -7.1917    1.1994 H   0  0  0  0  0  0  0  0  0  0  0  0
   -3.3906   -7.3070   -0.5768 H   0  0  0  0  0  0  0  0  0  0  0  0
   -2.5206   -4.9874   -0.7050 H   0  0  0  0  0  0  0  0  0  0  0  0
   -3.0426   -2.5942   -0.8616 H   0  0  0  0  0  0  0  0  0  0  0  0
   -5.5263   -3.0241   -2.7636 H   0  0  0  0  0  0  0  0  0  0  0  0
   -9.4799    0.3889   -6.5144 H   0  0  0  0  0  0  0  0  0  0  0  0
  -10.8244   -1.3735   -7.9309 H   0  0  0  0  0  0  0  0  0  0  0  0
  1  2  2  3
  2  3  1  0
  3  4  2  0
  3  5  1  0
  5  6  1  0
  6  7  2  0
  7  8  1  0
  8  9  1  0
  9 10  1  0
 10 11  2  3
 11 12  1  0
 12 13  3  0
 11 14  1  0
 14 15  3  0
  1 16  1  0
 16 17  2  0
 17 18  1  0
 18 19  1  0
 19 20  2  0
 19 21  1  0
 21 22  2  0
 22 23  1  0
 23 24  1  0
 24 25  2  0
 22 26  1  0
 26 27  2  0
 27 28  1  0
 28 29  2  0
 28 30  1  0
 30 31  2  0
 31 32  1  0
 32 33  2  0
 33 34  1  0
 34 35  2  0
 35 36  1  0
 36 37  1  0
 37 38  1  0
 36 39  2  0
 31 40  1  0
 40 41  1  0
 41 42  1  0
 42 43  1  0
 43 44  1  0
 44 45  1  0
 45 46  2  0
 46 47  1  0
 47 48  1  0
 45 49  1  0
 49 50  1  0
 50 51  1  0
 51 52  1  0
 52 53  1  0
 53 54  1  0
 54 55  2  0
 55 56  1  0
 56 57  2  0
 57 58  1  0
 58 59  1  0
 59 60  1  0
 58 61  2  0
 53 62  2  0
 62 63  1  0
 63 64  1  0
 64 65  1  0
 65 66  1  0
 66 67  1  0
 67 68  1  0
 68 69  1  0
 69 70  1  0
 70 71  1  0
 71 72  1  0
 69 73  1  0
 73 74  1  0
 66 75  1  0
 75 76  1  0
 62 77  1  0
 77 78  2  0
 78 79  1  0
 79 80  1  0
 80 81  2  0
 81 82  1  0
 82 83  2  0
 83 84  1  0
 83 85  1  0
 85 86  2  0
 79 87  1  0
 87 88  2  0
 88 89  1  0
 89 90  2  0
 90 91  1  0
 90 92  1  0
 92 93  2  0
 78 94  1  0
 94 95  1  0
 95 96  1  0
 96 97  2  0
 97 98  1  0
 98 99  1  0
 99100  2  0
100101  1  0
101102  2  0
102103  1  0
102104  1  0
104105  2  0
 98106  1  0
106107  2  0
107108  1  0
108109  2  0
109110  1  0
109111  1  0
111112  2  0
 97113  1  0
113114  1  0
 96115  1  0
115116  2  3
116117  1  0
117118  2  0
117119  1  0
119120  1  0
120121  2  0
121122  1  0
122123  1  0
123124  1  0
124125  2  3
125126  1  0
126127  3  0
125128  1  0
128129  3  0
 10  2  1  0
 25 16  1  0
 72 30  1  0
114 77  1  0
124116  1  0
  9  5  2  0
 23 18  2  0
 39 32  1  0
 71 40  2  0
 86 80  1  0
 93 87  1  0
113 94  2  0
123119  2  0
 29 21  1  0
 70 42  2  0
105 99  1  0
112106  1  0
 68 43  2  0
 48 44  2  0
 67 49  2  0
 65 50  2  0
 64 52  2  0
 61 54  1  0
  1130  1  0
  6131  1  0
  7132  1  0
 17133  1  0
 24134  1  0
 25135  1  0
 26136  1  0
 27137  1  0
 29138  1  0
 33139  1  0
 34140  1  0
 35141  1  0
 37142  1  0
 37143  1  0
 38144  1  0
 38145  1  0
 38146  1  0
 39147  1  0
 55148  1  0
 56149  1  0
 57150  1  0
 59151  1  0
 59152  1  0
 60153  1  0
 60154  1  0
 60155  1  0
 61156  1  0
 73157  1  0
 73158  1  0
 74159  1  0
 74160  1  0
 74161  1  0
 75162  1  0
 75163  1  0
 76164  1  0
 76165  1  0
 76166  1  0
 81167  1  0
 82168  1  0
 84169  1  0
 84170  1  0
 84171  1  0
 85172  1  0
 86173  1  0
 88174  1  0
 89175  1  0
 91176  1  0
 91177  1  0
 91178  1  0
 92179  1  0
 93180  1  0
100181  1  0
101182  1  0
103183  1  0
103184  1  0
103185  1  0
104186  1  0
105187  1  0
107188  1  0
108189  1  0
110190  1  0
110191  1  0
110192  1  0
111193  1  0
112194  1  0
115195  1  0
120196  1  0
121197  1  0
M  END

