
     RDKit          3D

191211  0  0  0  0  0  0  0  0999 V2000
    3.2495   -7.5357   -4.3697 C   0  0  0  0  0  0  0  0  0  0  0  0
    3.9778   -8.2266   -3.4714 C   0  0  0  0  0  0  0  0  0  0  0  0
    4.5857   -9.5279   -3.8125 C   0  0  0  0  0  0  0  0  0  0  0  0
    4.7297  -10.0124   -4.9666 O   0  0  0  0  0  0  0  0  0  0  0  0
    4.9395  -10.1812   -2.5772 C   0  0  0  0  0  0  0  0  0  0  0  0
    5.5717  -11.3766   -2.2484 C   0  0  0  0  0  0  0  0  0  0  0  0
    5.7851  -11.4670   -0.8696 C   0  0  0  0  0  0  0  0  0  0  0  0
    5.1956  -10.0622   -0.1115 S   0  0  0  0  0  0  0  0  0  0  0  0
    4.6463   -9.3656   -1.5388 C   0  0  0  0  0  0  0  0  0  0  0  0
    4.1299   -8.0575   -1.9844 C   0  0  0  0  0  0  0  0  0  0  0  0
    4.1584   -6.9291   -1.2457 C   0  0  0  0  0  0  0  0  0  0  0  0
    4.3974   -6.9764    0.1737 C   0  0  0  0  0  0  0  0  0  0  0  0
    4.6041   -7.0114    1.3111 N   0  0  0  0  0  0  0  0  0  0  0  0
    4.0987   -5.6179   -1.8306 C   0  0  0  0  0  0  0  0  0  0  0  0
    4.0547   -4.5534   -2.2798 N   0  0  0  0  0  0  0  0  0  0  0  0
    2.2327   -6.5148   -4.0689 C   0  0  0  0  0  0  0  0  0  0  0  0
    1.9180   -5.3953   -4.8728 C   0  0  0  0  0  0  0  0  0  0  0  0
    2.5223   -5.0940   -6.1495 N   0  0  0  0  0  0  0  0  0  0  0  0
    2.5579   -6.1319   -7.1455 C   0  0  0  0  0  0  0  0  0  0  0  0
    3.7656   -6.4744   -7.7745 C   0  0  0  0  0  0  0  0  0  0  0  0
    3.8218   -7.5626   -8.6513 C   0  0  0  0  0  0  0  0  0  0  0  0
    2.6635   -8.3061   -8.9305 C   0  0  0  0  0  0  0  0  0  0  0  0
    2.7359   -9.5221   -9.8049 C   0  0  0  0  0  0  0  0  0  0  0  0
    1.4545   -7.9563   -8.3122 C   0  0  0  0  0  0  0  0  0  0  0  0
    1.3990   -6.8758   -7.4288 C   0  0  0  0  0  0  0  0  0  0  0  0
    2.9708   -3.7535   -6.4699 C   0  0  0  0  0  0  0  0  0  0  0  0
    3.4145   -2.8805   -5.4593 C   0  0  0  0  0  0  0  0  0  0  0  0
    3.8270   -1.5823   -5.7667 C   0  0  0  0  0  0  0  0  0  0  0  0
    3.8216   -1.1336   -7.0943 C   0  0  0  0  0  0  0  0  0  0  0  0
    4.2386    0.2684   -7.4294 C   0  0  0  0  0  0  0  0  0  0  0  0
    3.3733   -1.9910   -8.1072 C   0  0  0  0  0  0  0  0  0  0  0  0
    2.9524   -3.2868   -7.8008 C   0  0  0  0  0  0  0  0  0  0  0  0
    0.8712   -4.6629   -4.3143 C   0  0  0  0  0  0  0  0  0  0  0  0
    0.1083   -3.2076   -4.6762 S   0  0  0  0  0  0  0  0  0  0  0  0
   -0.9276   -3.2563   -3.3236 C   0  0  0  0  0  0  0  0  0  0  0  0
   -0.6492   -4.4156   -2.5781 C   0  0  0  0  0  0  0  0  0  0  0  0
   -1.2249   -4.7070   -1.2907 N   0  0  0  0  0  0  0  0  0  0  0  0
   -2.6565   -4.6282   -1.1303 C   0  0  0  0  0  0  0  0  0  0  0  0
   -3.2174   -3.9335   -0.0444 C   0  0  0  0  0  0  0  0  0  0  0  0
   -4.6040   -3.8270    0.0889 C   0  0  0  0  0  0  0  0  0  0  0  0
   -5.4532   -4.4334   -0.8493 C   0  0  0  0  0  0  0  0  0  0  0  0
   -6.9392   -4.2807   -0.7212 C   0  0  0  0  0  0  0  0  0  0  0  0
   -4.8964   -5.1176   -1.9399 C   0  0  0  0  0  0  0  0  0  0  0  0
   -3.5096   -5.2109   -2.0811 C   0  0  0  0  0  0  0  0  0  0  0  0
   -0.3752   -4.9809   -0.1538 C   0  0  0  0  0  0  0  0  0  0  0  0
   -0.7733   -5.9131    0.8207 C   0  0  0  0  0  0  0  0  0  0  0  0
    0.0227   -6.1477    1.9444 C   0  0  0  0  0  0  0  0  0  0  0  0
    1.2284   -5.4530    2.1172 C   0  0  0  0  0  0  0  0  0  0  0  0
    2.0770   -5.7183    3.3242 C   0  0  0  0  0  0  0  0  0  0  0  0
    1.6469   -4.5472    1.1316 C   0  0  0  0  0  0  0  0  0  0  0  0
    0.8513   -4.3114    0.0062 C   0  0  0  0  0  0  0  0  0  0  0  0
    0.3530   -5.1744   -3.1708 C   0  0  0  0  0  0  0  0  0  0  0  0
    1.1527   -6.5836   -2.7478 S   0  0  0  0  0  0  0  0  0  0  0  0
   -1.5733   -2.0753   -2.7384 C   0  0  0  0  0  0  0  0  0  0  0  0
   -2.9054   -1.6458   -2.9587 C   0  0  0  0  0  0  0  0  0  0  0  0
   -3.7592   -2.0796   -4.0895 C   0  0  0  0  0  0  0  0  0  0  0  0
   -3.2319   -2.1462   -5.3897 C   0  0  0  0  0  0  0  0  0  0  0  0
   -4.0321   -2.5566   -6.4581 C   0  0  0  0  0  0  0  0  0  0  0  0
   -5.3711   -2.8867   -6.2455 C   0  0  0  0  0  0  0  0  0  0  0  0
   -5.9202   -2.8134   -4.9562 C   0  0  0  0  0  0  0  0  0  0  0  0
   -7.3795   -3.0973   -4.7282 C   0  0  0  0  0  0  0  0  0  0  0  0
   -8.1929   -1.8081   -4.7926 C   0  0  0  0  0  0  0  0  0  0  0  0
   -5.1113   -2.4012   -3.8863 C   0  0  0  0  0  0  0  0  0  0  0  0
   -3.3296   -0.8201   -1.9025 C   0  0  0  0  0  0  0  0  0  0  0  0
   -4.8060   -0.0603   -1.4546 S   0  0  0  0  0  0  0  0  0  0  0  0
   -4.1536    0.4243    0.0439 C   0  0  0  0  0  0  0  0  0  0  0  0
   -4.4538    1.1544    1.1675 C   0  0  0  0  0  0  0  0  0  0  0  0
   -5.5185    2.0051    1.4988 C   0  0  0  0  0  0  0  0  0  0  0  0
   -5.4271    2.7905    2.6966 C   0  0  0  0  0  0  0  0  0  0  0  0
   -6.4620    3.6176    2.9686 N   0  0  0  0  0  0  0  0  0  0  0  0
   -7.4159    3.3058    1.6517 S   0  0  0  0  0  0  0  0  0  0  0  0
   -6.6199    2.1774    0.7352 N   0  0  0  0  0  0  0  0  0  0  0  0
   -4.3197    2.6087    3.5401 C   0  0  0  0  0  0  0  0  0  0  0  0
   -3.9594    3.1585    4.7490 C   0  0  0  0  0  0  0  0  0  0  0  0
   -4.0334    4.7348    5.3807 S   0  0  0  0  0  0  0  0  0  0  0  0
   -2.5378    4.5524    6.1939 C   0  0  0  0  0  0  0  0  0  0  0  0
   -1.5985    5.4995    6.6368 C   0  0  0  0  0  0  0  0  0  0  0  0
   -1.9587    6.8582    7.0739 C   0  0  0  0  0  0  0  0  0  0  0  0
   -1.6812    7.2431    8.3961 C   0  0  0  0  0  0  0  0  0  0  0  0
   -1.9810    8.5348    8.8317 C   0  0  0  0  0  0  0  0  0  0  0  0
   -2.5646    9.4499    7.9539 C   0  0  0  0  0  0  0  0  0  0  0  0
   -2.8502    9.0796    6.6294 C   0  0  0  0  0  0  0  0  0  0  0  0
   -3.5088   10.0630    5.7005 C   0  0  0  0  0  0  0  0  0  0  0  0
   -5.0274    9.9659    5.8147 C   0  0  0  0  0  0  0  0  0  0  0  0
   -2.5611    7.7737    6.1968 C   0  0  0  0  0  0  0  0  0  0  0  0
   -0.2877    4.9639    6.6468 C   0  0  0  0  0  0  0  0  0  0  0  0
   -0.3640    3.3355    6.1634 S   0  0  0  0  0  0  0  0  0  0  0  0
   -2.0136    3.3112    5.9438 C   0  0  0  0  0  0  0  0  0  0  0  0
   -2.8046    2.5321    5.1223 C   0  0  0  0  0  0  0  0  0  0  0  0
   -2.4098    1.5853    4.2457 N   0  0  0  0  0  0  0  0  0  0  0  0
   -3.3090    1.6947    3.2306 C   0  0  0  0  0  0  0  0  0  0  0  0
   -3.3072    1.0691    1.9709 C   0  0  0  0  0  0  0  0  0  0  0  0
   -2.2771    0.4562    1.3136 N   0  0  0  0  0  0  0  0  0  0  0  0
   -2.8635    0.0336    0.1744 C   0  0  0  0  0  0  0  0  0  0  0  0
   -2.3863   -0.6298   -0.9310 C   0  0  0  0  0  0  0  0  0  0  0  0
   -0.9750   -1.4265   -1.2835 S   0  0  0  0  0  0  0  0  0  0  0  0
   -0.8328    0.7227    1.4375 C   0  0  0  0  0  0  0  0  0  0  0  0
   -0.3777    1.7913    0.4414 C   0  0  0  0  0  0  0  0  0  0  0  0
   -1.6039    0.4039    4.6066 C   0  0  0  0  0  0  0  0  0  0  0  0
   -2.1604   -0.2984    5.8414 C   0  0  0  0  0  0  0  0  0  0  0  0
    0.9955    5.7028    6.6311 C   0  0  0  0  0  0  0  0  0  0  0  0
    1.1982    7.0862    6.6454 C   0  0  0  0  0  0  0  0  0  0  0  0
    2.5082    7.4628    6.3081 C   0  0  0  0  0  0  0  0  0  0  0  0
    3.0428    9.1781    6.2486 S   0  0  0  0  0  0  0  0  0  0  0  0
    3.7240    9.1883    7.9440 C   0  0  0  0  0  0  0  0  0  0  0  0
    2.6279    9.4299    8.9736 C   0  0  0  0  0  0  0  0  0  0  0  0
    3.3199    6.3895    5.9558 C   0  0  0  0  0  0  0  0  0  0  0  0
    2.4468    4.9774    6.1739 S   0  0  0  0  0  0  0  0  0  0  0  0
    4.6977    6.4587    5.4453 C   0  0  0  0  0  0  0  0  0  0  0  0
    5.0531    5.9712    4.2409 C   0  0  0  0  0  0  0  0  0  0  0  0
    4.1274    5.4141    3.2212 C   0  0  0  0  0  0  0  0  0  0  0  0
    2.8705    5.4576    3.2276 O   0  0  0  0  0  0  0  0  0  0  0  0
    4.9256    4.8978    2.1377 C   0  0  0  0  0  0  0  0  0  0  0  0
    4.6399    4.3463    0.8919 C   0  0  0  0  0  0  0  0  0  0  0  0
    5.8095    4.1288    0.1566 C   0  0  0  0  0  0  0  0  0  0  0  0
    7.1491    4.6607    1.0638 S   0  0  0  0  0  0  0  0  0  0  0  0
    6.2320    5.1242    2.3943 C   0  0  0  0  0  0  0  0  0  0  0  0
    6.4383    5.8350    3.6683 C   0  0  0  0  0  0  0  0  0  0  0  0
    7.6290    6.2851    4.1290 C   0  0  0  0  0  0  0  0  0  0  0  0
    7.7601    7.1160    5.2989 C   0  0  0  0  0  0  0  0  0  0  0  0
    7.8819    7.7954    6.2287 N   0  0  0  0  0  0  0  0  0  0  0  0
    8.8539    6.0078    3.4258 C   0  0  0  0  0  0  0  0  0  0  0  0
    9.8377    5.7837    2.8569 N   0  0  0  0  0  0  0  0  0  0  0  0
    3.3115   -7.8612   -5.3953 H   0  0  0  0  0  0  0  0  0  0  0  0
    5.8889  -12.1221   -2.9656 H   0  0  0  0  0  0  0  0  0  0  0  0
    6.2738  -12.2913   -0.3699 H   0  0  0  0  0  0  0  0  0  0  0  0
    4.6714   -5.9257   -7.5456 H   0  0  0  0  0  0  0  0  0  0  0  0
    4.7707   -7.8357   -9.0978 H   0  0  0  0  0  0  0  0  0  0  0  0
    1.8007   -9.6324  -10.3934 H   0  0  0  0  0  0  0  0  0  0  0  0
    2.8736  -10.4232   -9.1698 H   0  0  0  0  0  0  0  0  0  0  0  0
    3.5860   -9.4492  -10.5166 H   0  0  0  0  0  0  0  0  0  0  0  0
    0.5545   -8.5310   -8.5015 H   0  0  0  0  0  0  0  0  0  0  0  0
    0.4597   -6.6283   -6.9488 H   0  0  0  0  0  0  0  0  0  0  0  0
    3.4307   -3.1991   -4.4277 H   0  0  0  0  0  0  0  0  0  0  0  0
    4.1471   -0.9257   -4.9664 H   0  0  0  0  0  0  0  0  0  0  0  0
    4.9010    0.2661   -8.3203 H   0  0  0  0  0  0  0  0  0  0  0  0
    4.7933    0.7359   -6.5885 H   0  0  0  0  0  0  0  0  0  0  0  0
    3.3406    0.8818   -7.6474 H   0  0  0  0  0  0  0  0  0  0  0  0
    3.3465   -1.6532   -9.1371 H   0  0  0  0  0  0  0  0  0  0  0  0
    2.5987   -3.9187   -8.6048 H   0  0  0  0  0  0  0  0  0  0  0  0
   -2.5796   -3.4498    0.6859 H   0  0  0  0  0  0  0  0  0  0  0  0
   -5.0159   -3.2704    0.9241 H   0  0  0  0  0  0  0  0  0  0  0  0
   -7.4738   -5.0459   -1.3229 H   0  0  0  0  0  0  0  0  0  0  0  0
   -7.2381   -3.2729   -1.0751 H   0  0  0  0  0  0  0  0  0  0  0  0
   -7.2450   -4.3986    0.3395 H   0  0  0  0  0  0  0  0  0  0  0  0
   -5.5353   -5.5750   -2.6873 H   0  0  0  0  0  0  0  0  0  0  0  0
   -3.0962   -5.7413   -2.9305 H   0  0  0  0  0  0  0  0  0  0  0  0
   -1.7032   -6.4558    0.7128 H   0  0  0  0  0  0  0  0  0  0  0  0
   -0.3058   -6.8645    2.6889 H   0  0  0  0  0  0  0  0  0  0  0  0
    2.5907   -6.6956    3.2104 H   0  0  0  0  0  0  0  0  0  0  0  0
    1.4433   -5.7573    4.2345 H   0  0  0  0  0  0  0  0  0  0  0  0
    2.8439   -4.9248    3.4648 H   0  0  0  0  0  0  0  0  0  0  0  0
    2.5807   -4.0067    1.2440 H   0  0  0  0  0  0  0  0  0  0  0  0
    1.1839   -3.5871   -0.7267 H   0  0  0  0  0  0  0  0  0  0  0  0
   -2.2119   -1.8531   -5.5841 H   0  0  0  0  0  0  0  0  0  0  0  0
   -3.6139   -2.6047   -7.4580 H   0  0  0  0  0  0  0  0  0  0  0  0
   -5.9813   -3.1922   -7.0886 H   0  0  0  0  0  0  0  0  0  0  0  0
   -7.5235   -3.5736   -3.7346 H   0  0  0  0  0  0  0  0  0  0  0  0
   -7.7601   -3.8078   -5.4953 H   0  0  0  0  0  0  0  0  0  0  0  0
   -9.2632   -2.0316   -4.6051 H   0  0  0  0  0  0  0  0  0  0  0  0
   -8.0966   -1.3409   -5.7996 H   0  0  0  0  0  0  0  0  0  0  0  0
   -7.8402   -1.0887   -4.0221 H   0  0  0  0  0  0  0  0  0  0  0  0
   -5.5412   -2.3468   -2.8967 H   0  0  0  0  0  0  0  0  0  0  0  0
   -1.2289    6.5465    9.0876 H   0  0  0  0  0  0  0  0  0  0  0  0
   -1.7540    8.8276    9.8495 H   0  0  0  0  0  0  0  0  0  0  0  0
   -2.7951   10.4470    8.3047 H   0  0  0  0  0  0  0  0  0  0  0  0
   -3.1907   11.0972    5.9528 H   0  0  0  0  0  0  0  0  0  0  0  0
   -3.2064    9.8722    4.6486 H   0  0  0  0  0  0  0  0  0  0  0  0
   -5.3477   10.0714    6.8745 H   0  0  0  0  0  0  0  0  0  0  0  0
   -5.5024   10.7826    5.2277 H   0  0  0  0  0  0  0  0  0  0  0  0
   -5.3826    8.9888    5.4203 H   0  0  0  0  0  0  0  0  0  0  0  0
   -2.7713    7.4801    5.1759 H   0  0  0  0  0  0  0  0  0  0  0  0
   -0.5736    1.1138    2.4309 H   0  0  0  0  0  0  0  0  0  0  0  0
   -0.2604   -0.2166    1.2751 H   0  0  0  0  0  0  0  0  0  0  0  0
   -0.5587    1.4737   -0.6063 H   0  0  0  0  0  0  0  0  0  0  0  0
    0.7122    1.9715    0.5644 H   0  0  0  0  0  0  0  0  0  0  0  0
   -0.9222    2.7436    0.6264 H   0  0  0  0  0  0  0  0  0  0  0  0
   -0.5555    0.7077    4.8021 H   0  0  0  0  0  0  0  0  0  0  0  0
   -1.6138   -0.3438    3.7891 H   0  0  0  0  0  0  0  0  0  0  0  0
   -1.5336   -1.1795    6.0829 H   0  0  0  0  0  0  0  0  0  0  0  0
   -2.1627    0.3842    6.7178 H   0  0  0  0  0  0  0  0  0  0  0  0
   -3.2010   -0.6403    5.6476 H   0  0  0  0  0  0  0  0  0  0  0  0
    0.4355    7.8192    6.8436 H   0  0  0  0  0  0  0  0  0  0  0  0
    4.4660   10.0096    8.0118 H   0  0  0  0  0  0  0  0  0  0  0  0
    4.2460    8.2359    8.1750 H   0  0  0  0  0  0  0  0  0  0  0  0
    3.0775    9.4463    9.9925 H   0  0  0  0  0  0  0  0  0  0  0  0
    2.1268   10.4027    8.7868 H   0  0  0  0  0  0  0  0  0  0  0  0
    1.8753    8.6161    8.9378 H   0  0  0  0  0  0  0  0  0  0  0  0
    5.4180    6.9021    6.1053 H   0  0  0  0  0  0  0  0  0  0  0  0
    3.6370    4.1302    0.5366 H   0  0  0  0  0  0  0  0  0  0  0  0
    5.8504    3.7086   -0.8387 H   0  0  0  0  0  0  0  0  0  0  0  0
  1  2  2  3
  2  3  1  0
  3  4  2  0
  3  5  1  0
  5  6  1  0
  6  7  2  0
  7  8  1  0
  8  9  1  0
  9 10  1  0
 10 11  2  3
 11 12  1  0
 12 13  3  0
 11 14  1  0
 14 15  3  0
  1 16  1  0
 16 17  2  0
 17 18  1  0
 18 19  1  0
 19 20  2  0
 20 21  1  0
 21 22  2  0
 22 23  1  0
 22 24  1  0
 24 25  2  0
 18 26  1  0
 26 27  2  0
 27 28  1  0
 28 29  2  0
 29 30  1  0
 29 31  1  0
 31 32  2  0
 17 33  1  0
 33 34  1  0
 34 35  1  0
 35 36  2  0
 36 37  1  0
 37 38  1  0
 38 39  2  0
 39 40  1  0
 40 41  2  0
 41 42  1  0
 41 43  1  0
 43 44  2  0
 37 45  1  0
 45 46  2  0
 46 47  1  0
 47 48  2  0
 48 49  1  0
 48 50  1  0
 50 51  2  0
 36 52  1  0
 52 53  1  0
 35 54  1  0
 54 55  2  0
 55 56  1  0
 56 57  2  0
 57 58  1  0
 58 59  2  0
 59 60  1  0
 60 61  1  0
 61 62  1  0
 60 63  2  0
 55 64  1  0
 64 65  1  0
 65 66  1  0
 66 67  1  0
 67 68  1  0
 68 69  1  0
 69 70  2  0
 70 71  1  0
 71 72  1  0
 69 73  1  0
 73 74  1  0
 74 75  1  0
 75 76  1  0
 76 77  1  0
 77 78  1  0
 78 79  2  0
 79 80  1  0
 80 81  2  0
 81 82  1  0
 82 83  1  0
 83 84  1  0
 82 85  2  0
 77 86  2  0
 86 87  1  0
 87 88  1  0
 88 89  1  0
 89 90  1  0
 90 91  1  0
 91 92  1  0
 92 93  1  0
 93 94  1  0
 94 95  1  0
 95 96  1  0
 93 97  1  0
 97 98  1  0
 90 99  1  0
 99100  1  0
 86101  1  0
101102  2  0
102103  1  0
103104  1  0
104105  1  0
105106  1  0
103107  2  0
107108  1  0
107109  1  0
109110  2  3
110111  1  0
111112  2  0
111113  1  0
113114  1  0
114115  2  0
115116  1  0
116117  1  0
117118  1  0
118119  2  3
119120  1  0
120121  3  0
119122  1  0
122123  3  0
 10  2  1  0
 53 16  1  0
 96 54  1  0
108101  1  0
118110  1  0
  9  5  2  0
 25 19  1  0
 32 26  1  0
 52 33  2  0
 63 56  1  0
 95 64  2  0
117113  2  0
 44 38  1  0
 51 45  1  0
 94 66  2  0
 92 67  2  0
 72 68  2  0
 91 73  2  0
 89 74  2  0
 88 76  2  0
 85 78  1  0
  1124  1  0
  6125  1  0
  7126  1  0
 20127  1  0
 21128  1  0
 23129  1  0
 23130  1  0
 23131  1  0
 24132  1  0
 25133  1  0
 27134  1  0
 28135  1  0
 30136  1  0
 30137  1  0
 30138  1  0
 31139  1  0
 32140  1  0
 39141  1  0
 40142  1  0
 42143  1  0
 42144  1  0
 42145  1  0
 43146  1  0
 44147  1  0
 46148  1  0
 47149  1  0
 49150  1  0
 49151  1  0
 49152  1  0
 50153  1  0
 51154  1  0
 57155  1  0
 58156  1  0
 59157  1  0
 61158  1  0
 61159  1  0
 62160  1  0
 62161  1  0
 62162  1  0
 63163  1  0
 79164  1  0
 80165  1  0
 81166  1  0
 83167  1  0
 83168  1  0
 84169  1  0
 84170  1  0
 84171  1  0
 85172  1  0
 97173  1  0
 97174  1  0
 98175  1  0
 98176  1  0
 98177  1  0
 99178  1  0
 99179  1  0
100180  1  0
100181  1  0
100182  1  0
102183  1  0
105184  1  0
105185  1  0
106186  1  0
106187  1  0
106188  1  0
109189  1  0
114190  1  0
115191  1  0
M  END

