
     RDKit          3D

261286  0  0  0  0  0  0  0  0999 V2000
    0.6624   -8.4418   -1.9719 C   0  0  0  0  0  0  0  0  0  0  0  0
    0.5782   -7.4879   -2.9206 C   0  0  0  0  0  0  0  0  0  0  0  0
    0.1308   -7.7872   -4.2928 C   0  0  0  0  0  0  0  0  0  0  0  0
   -0.2273   -8.9154   -4.7180 O   0  0  0  0  0  0  0  0  0  0  0  0
    0.1654   -6.5730   -5.0761 C   0  0  0  0  0  0  0  0  0  0  0  0
    0.0095   -6.4246   -6.4513 C   0  0  0  0  0  0  0  0  0  0  0  0
    0.2953   -5.1760   -7.0406 C   0  0  0  0  0  0  0  0  0  0  0  0
    0.1797   -5.0531   -8.5338 C   0  0  0  0  0  0  0  0  0  0  0  0
    0.7870   -4.1095   -6.2260 C   0  0  0  0  0  0  0  0  0  0  0  0
    1.2098   -2.7915   -6.8213 C   0  0  0  0  0  0  0  0  0  0  0  0
    0.9208   -4.3022   -4.8363 C   0  0  0  0  0  0  0  0  0  0  0  0
    0.5611   -5.5319   -4.2703 C   0  0  0  0  0  0  0  0  0  0  0  0
    0.8118   -6.0048   -2.8941 C   0  0  0  0  0  0  0  0  0  0  0  0
    0.8771   -5.1946   -1.8182 C   0  0  0  0  0  0  0  0  0  0  0  0
    0.2260   -3.9069   -1.8168 C   0  0  0  0  0  0  0  0  0  0  0  0
   -0.2982   -2.8732   -1.8036 N   0  0  0  0  0  0  0  0  0  0  0  0
    1.9601   -5.3142   -0.8818 C   0  0  0  0  0  0  0  0  0  0  0  0
    2.8367   -5.3646   -0.1269 N   0  0  0  0  0  0  0  0  0  0  0  0
    1.0945   -8.2464   -0.5850 C   0  0  0  0  0  0  0  0  0  0  0  0
    0.2848   -7.8691    0.5027 C   0  0  0  0  0  0  0  0  0  0  0  0
   -1.1415   -7.6354    0.4311 N   0  0  0  0  0  0  0  0  0  0  0  0
   -1.7574   -6.5287    1.1386 C   0  0  0  0  0  0  0  0  0  0  0  0
   -1.1233   -5.2770    1.1986 C   0  0  0  0  0  0  0  0  0  0  0  0
   -1.7123   -4.2054    1.8737 C   0  0  0  0  0  0  0  0  0  0  0  0
   -2.9446   -4.3717    2.5211 C   0  0  0  0  0  0  0  0  0  0  0  0
   -3.5916   -3.2149    3.2222 C   0  0  0  0  0  0  0  0  0  0  0  0
   -3.5947   -5.6145    2.4539 C   0  0  0  0  0  0  0  0  0  0  0  0
   -3.0066   -6.6850    1.7734 C   0  0  0  0  0  0  0  0  0  0  0  0
   -1.9630   -8.5472   -0.3292 C   0  0  0  0  0  0  0  0  0  0  0  0
   -1.8084   -9.9378   -0.1814 C   0  0  0  0  0  0  0  0  0  0  0  0
   -2.5956  -10.8199   -0.9343 C   0  0  0  0  0  0  0  0  0  0  0  0
   -3.5418  -10.3225   -1.8374 C   0  0  0  0  0  0  0  0  0  0  0  0
   -4.3396  -11.2615   -2.6900 C   0  0  0  0  0  0  0  0  0  0  0  0
   -3.6896   -8.9362   -1.9964 C   0  0  0  0  0  0  0  0  0  0  0  0
   -2.9112   -8.0547   -1.2371 C   0  0  0  0  0  0  0  0  0  0  0  0
    1.0637   -7.7304    1.6598 C   0  0  0  0  0  0  0  0  0  0  0  0
    0.8072   -6.9531    3.1128 S   0  0  0  0  0  0  0  0  0  0  0  0
    2.4487   -6.8636    3.5351 C   0  0  0  0  0  0  0  0  0  0  0  0
    3.2080   -7.5123    2.5448 C   0  0  0  0  0  0  0  0  0  0  0  0
    4.6469   -7.5955    2.5530 N   0  0  0  0  0  0  0  0  0  0  0  0
    5.2702   -8.7858    3.0648 C   0  0  0  0  0  0  0  0  0  0  0  0
    6.1291   -8.7331    4.1775 C   0  0  0  0  0  0  0  0  0  0  0  0
    6.6861   -9.9026    4.7021 C   0  0  0  0  0  0  0  0  0  0  0  0
    6.4013  -11.1439    4.1135 C   0  0  0  0  0  0  0  0  0  0  0  0
    7.0132  -12.3997    4.6568 C   0  0  0  0  0  0  0  0  0  0  0  0
    5.5666  -11.1994    2.9921 C   0  0  0  0  0  0  0  0  0  0  0  0
    5.0070  -10.0321    2.4695 C   0  0  0  0  0  0  0  0  0  0  0  0
    5.4507   -6.4841    2.1308 C   0  0  0  0  0  0  0  0  0  0  0  0
    5.9770   -5.5822    3.0721 C   0  0  0  0  0  0  0  0  0  0  0  0
    6.7691   -4.5118    2.6570 C   0  0  0  0  0  0  0  0  0  0  0  0
    7.0778   -4.3454    1.3025 C   0  0  0  0  0  0  0  0  0  0  0  0
    7.9172   -3.1865    0.8511 C   0  0  0  0  0  0  0  0  0  0  0  0
    6.5423   -5.2388    0.3577 C   0  0  0  0  0  0  0  0  0  0  0  0
    5.7398   -6.3045    0.7754 C   0  0  0  0  0  0  0  0  0  0  0  0
    2.3947   -7.9845    1.5141 C   0  0  0  0  0  0  0  0  0  0  0  0
    2.7043   -8.4537   -0.0683 S   0  0  0  0  0  0  0  0  0  0  0  0
    2.9138   -5.6567    4.2151 C   0  0  0  0  0  0  0  0  0  0  0  0
    2.7940   -5.3913    5.5941 C   0  0  0  0  0  0  0  0  0  0  0  0
    2.4882   -6.4370    6.5902 C   0  0  0  0  0  0  0  0  0  0  0  0
    1.4319   -6.2895    7.5020 C   0  0  0  0  0  0  0  0  0  0  0  0
    1.1190   -7.3277    8.3824 C   0  0  0  0  0  0  0  0  0  0  0  0
    1.8505   -8.5163    8.3596 C   0  0  0  0  0  0  0  0  0  0  0  0
    2.8895   -8.6915    7.4289 C   0  0  0  0  0  0  0  0  0  0  0  0
    3.6732   -9.9744    7.3742 C   0  0  0  0  0  0  0  0  0  0  0  0
    5.0361   -9.8133    8.0450 C   0  0  0  0  0  0  0  0  0  0  0  0
    3.1985   -7.6500    6.5471 C   0  0  0  0  0  0  0  0  0  0  0  0
    2.8848   -4.0135    5.8413 C   0  0  0  0  0  0  0  0  0  0  0  0
    2.5049   -3.0051    7.1801 S   0  0  0  0  0  0  0  0  0  0  0  0
    2.5729   -1.6129    6.1984 C   0  0  0  0  0  0  0  0  0  0  0  0
    2.1470   -0.3043    6.1982 C   0  0  0  0  0  0  0  0  0  0  0  0
    1.7631    0.5893    7.2075 C   0  0  0  0  0  0  0  0  0  0  0  0
    1.3564    1.9123    6.8341 C   0  0  0  0  0  0  0  0  0  0  0  0
    0.9969    2.7486    7.8407 N   0  0  0  0  0  0  0  0  0  0  0  0
    1.2512    1.7496    9.1395 S   0  0  0  0  0  0  0  0  0  0  0  0
    1.7779    0.2989    8.5341 N   0  0  0  0  0  0  0  0  0  0  0  0
    1.2755    2.2388    5.4708 C   0  0  0  0  0  0  0  0  0  0  0  0
    0.6452    3.2659    4.8117 C   0  0  0  0  0  0  0  0  0  0  0  0
   -0.2213    4.6972    5.1410 S   0  0  0  0  0  0  0  0  0  0  0  0
   -0.8274    4.7425    3.5406 C   0  0  0  0  0  0  0  0  0  0  0  0
   -1.6255    5.6270    2.8125 C   0  0  0  0  0  0  0  0  0  0  0  0
   -1.8859    7.0005    3.2595 C   0  0  0  0  0  0  0  0  0  0  0  0
   -1.0196    8.0254    2.8502 C   0  0  0  0  0  0  0  0  0  0  0  0
   -1.2103    9.3304    3.3014 C   0  0  0  0  0  0  0  0  0  0  0  0
   -2.2411    9.6168    4.1949 C   0  0  0  0  0  0  0  0  0  0  0  0
   -3.1035    8.5956    4.6343 C   0  0  0  0  0  0  0  0  0  0  0  0
   -4.1854    8.9005    5.6360 C   0  0  0  0  0  0  0  0  0  0  0  0
   -3.6191    8.9485    7.0519 C   0  0  0  0  0  0  0  0  0  0  0  0
   -2.9129    7.2813    4.1681 C   0  0  0  0  0  0  0  0  0  0  0  0
   -1.8685    5.1233    1.5088 C   0  0  0  0  0  0  0  0  0  0  0  0
   -1.0182    3.6671    1.2874 S   0  0  0  0  0  0  0  0  0  0  0  0
   -0.4020    3.6591    2.8299 C   0  0  0  0  0  0  0  0  0  0  0  0
    0.4659    2.8500    3.5316 C   0  0  0  0  0  0  0  0  0  0  0  0
    0.9589    1.6163    3.2874 N   0  0  0  0  0  0  0  0  0  0  0  0
    1.5500    1.2887    4.4765 C   0  0  0  0  0  0  0  0  0  0  0  0
    2.1253    0.0630    4.8489 C   0  0  0  0  0  0  0  0  0  0  0  0
    2.6378   -0.9135    4.0474 N   0  0  0  0  0  0  0  0  0  0  0  0
    2.8641   -1.9203    4.9122 C   0  0  0  0  0  0  0  0  0  0  0  0
    3.0600   -3.2609    4.7082 C   0  0  0  0  0  0  0  0  0  0  0  0
    3.0552   -4.2076    3.3412 S   0  0  0  0  0  0  0  0  0  0  0  0
    3.3323   -0.7458    2.7607 C   0  0  0  0  0  0  0  0  0  0  0  0
    4.8504   -0.7866    2.9348 C   0  0  0  0  0  0  0  0  0  0  0  0
    0.3398    0.6840    2.3284 C   0  0  0  0  0  0  0  0  0  0  0  0
   -1.0310    0.2255    2.8286 C   0  0  0  0  0  0  0  0  0  0  0  0
   -2.5401    5.7870    0.3737 C   0  0  0  0  0  0  0  0  0  0  0  0
   -3.1061    5.0954   -0.7329 C   0  0  0  0  0  0  0  0  0  0  0  0
   -3.7842    3.8087   -0.6844 N   0  0  0  0  0  0  0  0  0  0  0  0
   -4.5871    3.4086   -1.8059 C   0  0  0  0  0  0  0  0  0  0  0  0
   -4.1623    2.3898   -2.6680 C   0  0  0  0  0  0  0  0  0  0  0  0
   -4.9417    2.0335   -3.7746 C   0  0  0  0  0  0  0  0  0  0  0  0
   -6.1495    2.7054   -4.0327 C   0  0  0  0  0  0  0  0  0  0  0  0
   -7.0008    2.3194   -5.2054 C   0  0  0  0  0  0  0  0  0  0  0  0
   -6.5901    3.6951   -3.1429 C   0  0  0  0  0  0  0  0  0  0  0  0
   -5.8123    4.0501   -2.0429 C   0  0  0  0  0  0  0  0  0  0  0  0
   -4.1182    3.1577    0.5578 C   0  0  0  0  0  0  0  0  0  0  0  0
   -4.7776    3.8544    1.5798 C   0  0  0  0  0  0  0  0  0  0  0  0
   -5.1417    3.1989    2.7585 C   0  0  0  0  0  0  0  0  0  0  0  0
   -4.8627    1.8365    2.9315 C   0  0  0  0  0  0  0  0  0  0  0  0
   -5.2660    1.1245    4.1890 C   0  0  0  0  0  0  0  0  0  0  0  0
   -4.2508    1.1298    1.8915 C   0  0  0  0  0  0  0  0  0  0  0  0
   -3.8610    1.7878    0.7215 C   0  0  0  0  0  0  0  0  0  0  0  0
   -2.9367    5.8448   -1.9094 C   0  0  0  0  0  0  0  0  0  0  0  0
   -2.8321    5.4060   -3.5256 S   0  0  0  0  0  0  0  0  0  0  0  0
   -2.1286    6.8619   -4.0399 C   0  0  0  0  0  0  0  0  0  0  0  0
   -1.9494    7.7134   -2.9376 C   0  0  0  0  0  0  0  0  0  0  0  0
   -1.8145    9.1385   -3.0797 N   0  0  0  0  0  0  0  0  0  0  0  0
   -0.6307    9.8627   -2.6919 C   0  0  0  0  0  0  0  0  0  0  0  0
    0.1739   10.4489   -3.6776 C   0  0  0  0  0  0  0  0  0  0  0  0
    1.2348   11.2944   -3.3150 C   0  0  0  0  0  0  0  0  0  0  0  0
    1.4857   11.5708   -1.9640 C   0  0  0  0  0  0  0  0  0  0  0  0
    2.5957   12.5109   -1.5764 C   0  0  0  0  0  0  0  0  0  0  0  0
    0.7069   10.9551   -0.9806 C   0  0  0  0  0  0  0  0  0  0  0  0
   -0.3627   10.1269   -1.3437 C   0  0  0  0  0  0  0  0  0  0  0  0
   -2.9972    9.8675   -3.4374 C   0  0  0  0  0  0  0  0  0  0  0  0
   -3.4425    9.8966   -4.7664 C   0  0  0  0  0  0  0  0  0  0  0  0
   -4.6436   10.5322   -5.0837 C   0  0  0  0  0  0  0  0  0  0  0  0
   -5.4090   11.1520   -4.0858 C   0  0  0  0  0  0  0  0  0  0  0  0
   -6.7400   11.7651   -4.4170 C   0  0  0  0  0  0  0  0  0  0  0  0
   -4.9637   11.1134   -2.7558 C   0  0  0  0  0  0  0  0  0  0  0  0
   -3.7551   10.4864   -2.4367 C   0  0  0  0  0  0  0  0  0  0  0  0
   -2.4168    7.0977   -1.7675 C   0  0  0  0  0  0  0  0  0  0  0  0
   -2.0312    7.3213   -0.1576 S   0  0  0  0  0  0  0  0  0  0  0  0
   -1.3145    6.9220   -5.2598 C   0  0  0  0  0  0  0  0  0  0  0  0
   -0.0909    6.3552   -5.3112 C   0  0  0  0  0  0  0  0  0  0  0  0
    0.5438    5.5945   -4.2208 C   0  0  0  0  0  0  0  0  0  0  0  0
    0.3605    5.7552   -2.9904 O   0  0  0  0  0  0  0  0  0  0  0  0
    1.4977    4.6803   -4.8001 C   0  0  0  0  0  0  0  0  0  0  0  0
    2.2106    3.6782   -4.1602 C   0  0  0  0  0  0  0  0  0  0  0  0
    3.0317    2.8283   -4.9246 C   0  0  0  0  0  0  0  0  0  0  0  0
    3.8293    1.7685   -4.2004 C   0  0  0  0  0  0  0  0  0  0  0  0
    3.1234    3.0216   -6.3349 C   0  0  0  0  0  0  0  0  0  0  0  0
    3.9907    2.1427   -7.1930 C   0  0  0  0  0  0  0  0  0  0  0  0
    2.3429    4.0248   -6.9534 C   0  0  0  0  0  0  0  0  0  0  0  0
    1.5700    4.8828   -6.1642 C   0  0  0  0  0  0  0  0  0  0  0  0
    0.6860    6.0215   -6.5417 C   0  0  0  0  0  0  0  0  0  0  0  0
    0.7706    6.7836   -7.6615 C   0  0  0  0  0  0  0  0  0  0  0  0
    1.6701    6.4673   -8.7376 C   0  0  0  0  0  0  0  0  0  0  0  0
    2.3931    6.2151   -9.6085 N   0  0  0  0  0  0  0  0  0  0  0  0
    0.0919    8.0485   -7.7703 C   0  0  0  0  0  0  0  0  0  0  0  0
   -0.4412    9.0789   -7.8538 N   0  0  0  0  0  0  0  0  0  0  0  0
    0.4334   -9.4615   -2.2516 H   0  0  0  0  0  0  0  0  0  0  0  0
   -0.2900   -7.2702   -7.0557 H   0  0  0  0  0  0  0  0  0  0  0  0
    0.0551   -3.9964   -8.8663 H   0  0  0  0  0  0  0  0  0  0  0  0
    1.0951   -5.4747   -9.0094 H   0  0  0  0  0  0  0  0  0  0  0  0
   -0.7101   -5.6215   -8.8972 H   0  0  0  0  0  0  0  0  0  0  0  0
    1.9952   -2.9617   -7.5923 H   0  0  0  0  0  0  0  0  0  0  0  0
    1.6309   -2.1066   -6.0475 H   0  0  0  0  0  0  0  0  0  0  0  0
    0.3354   -2.2959   -7.2849 H   0  0  0  0  0  0  0  0  0  0  0  0
    1.3563   -3.5261   -4.2229 H   0  0  0  0  0  0  0  0  0  0  0  0
   -0.1583   -5.1360    0.7436 H   0  0  0  0  0  0  0  0  0  0  0  0
   -1.2025   -3.2490    1.8987 H   0  0  0  0  0  0  0  0  0  0  0  0
   -4.3137   -2.7209    2.5396 H   0  0  0  0  0  0  0  0  0  0  0  0
   -4.1315   -3.5670    4.1278 H   0  0  0  0  0  0  0  0  0  0  0  0
   -2.8352   -2.4689    3.5458 H   0  0  0  0  0  0  0  0  0  0  0  0
   -4.5573   -5.7503    2.9302 H   0  0  0  0  0  0  0  0  0  0  0  0
   -3.5209   -7.6370    1.7452 H   0  0  0  0  0  0  0  0  0  0  0  0
   -1.0727  -10.3419    0.5067 H   0  0  0  0  0  0  0  0  0  0  0  0
   -2.4511  -11.8877   -0.8152 H   0  0  0  0  0  0  0  0  0  0  0  0
   -4.3529  -12.2864   -2.2578 H   0  0  0  0  0  0  0  0  0  0  0  0
   -5.3921  -10.9094   -2.7655 H   0  0  0  0  0  0  0  0  0  0  0  0
   -3.8941  -11.3037   -3.7069 H   0  0  0  0  0  0  0  0  0  0  0  0
   -4.3973   -8.5423   -2.7131 H   0  0  0  0  0  0  0  0  0  0  0  0
   -3.0279   -6.9879   -1.3761 H   0  0  0  0  0  0  0  0  0  0  0  0
    6.3450   -7.7934    4.6690 H   0  0  0  0  0  0  0  0  0  0  0  0
    7.3304   -9.8374    5.5695 H   0  0  0  0  0  0  0  0  0  0  0  0
    7.8534  -12.7125    4.0019 H   0  0  0  0  0  0  0  0  0  0  0  0
    7.3944  -12.2497    5.6896 H   0  0  0  0  0  0  0  0  0  0  0  0
    6.2525  -13.2090    4.6827 H   0  0  0  0  0  0  0  0  0  0  0  0
    5.3447  -12.1512    2.5241 H   0  0  0  0  0  0  0  0  0  0  0  0
    4.3748  -10.1017    1.5980 H   0  0  0  0  0  0  0  0  0  0  0  0
    5.7334   -5.6777    4.1216 H   0  0  0  0  0  0  0  0  0  0  0  0
    7.1382   -3.8040    3.3962 H   0  0  0  0  0  0  0  0  0  0  0  0
    8.5322   -3.4708   -0.0303 H   0  0  0  0  0  0  0  0  0  0  0  0
    7.2622   -2.3350    0.5746 H   0  0  0  0  0  0  0  0  0  0  0  0
    8.6109   -2.8650    1.6607 H   0  0  0  0  0  0  0  0  0  0  0  0
    6.7579   -5.1204   -0.7012 H   0  0  0  0  0  0  0  0  0  0  0  0
    5.3591   -7.0064    0.0395 H   0  0  0  0  0  0  0  0  0  0  0  0
    0.8420   -5.3837    7.5111 H   0  0  0  0  0  0  0  0  0  0  0  0
    0.2973   -7.2170    9.0732 H   0  0  0  0  0  0  0  0  0  0  0  0
    1.5965   -9.3107    9.0509 H   0  0  0  0  0  0  0  0  0  0  0  0
    3.8256  -10.2810    6.3151 H   0  0  0  0  0  0  0  0  0  0  0  0
    3.1187  -10.7970    7.8780 H   0  0  0  0  0  0  0  0  0  0  0  0
    5.6414   -9.0469    7.5145 H   0  0  0  0  0  0  0  0  0  0  0  0
    5.5866  -10.7786    8.0131 H   0  0  0  0  0  0  0  0  0  0  0  0
    4.9092   -9.5097    9.1058 H   0  0  0  0  0  0  0  0  0  0  0  0
    4.0046   -7.7744    5.8335 H   0  0  0  0  0  0  0  0  0  0  0  0
   -0.1959    7.8126    2.1803 H   0  0  0  0  0  0  0  0  0  0  0  0
   -0.5477   10.1203    2.9694 H   0  0  0  0  0  0  0  0  0  0  0  0
   -2.3707   10.6315    4.5538 H   0  0  0  0  0  0  0  0  0  0  0  0
   -4.9862    8.1308    5.5860 H   0  0  0  0  0  0  0  0  0  0  0  0
   -4.6517    9.8808    5.3935 H   0  0  0  0  0  0  0  0  0  0  0  0
   -4.4327    9.1782    7.7689 H   0  0  0  0  0  0  0  0  0  0  0  0
   -3.1694    7.9663    7.3205 H   0  0  0  0  0  0  0  0  0  0  0  0
   -2.8428    9.7394    7.1305 H   0  0  0  0  0  0  0  0  0  0  0  0
   -3.5579    6.4798    4.5183 H   0  0  0  0  0  0  0  0  0  0  0  0
    3.0162   -1.5485    2.0566 H   0  0  0  0  0  0  0  0  0  0  0  0
    3.0847    0.2347    2.3034 H   0  0  0  0  0  0  0  0  0  0  0  0
    5.3457   -0.5640    1.9683 H   0  0  0  0  0  0  0  0  0  0  0  0
    5.1752   -1.7925    3.2711 H   0  0  0  0  0  0  0  0  0  0  0  0
    5.1632   -0.0329    3.6855 H   0  0  0  0  0  0  0  0  0  0  0  0
    0.9364   -0.2233    2.1780 H   0  0  0  0  0  0  0  0  0  0  0  0
    0.2463    1.1679    1.3392 H   0  0  0  0  0  0  0  0  0  0  0  0
   -0.9199   -0.3435    3.7730 H   0  0  0  0  0  0  0  0  0  0  0  0
   -1.5059   -0.4281    2.0652 H   0  0  0  0  0  0  0  0  0  0  0  0
   -1.6929    1.0957    3.0243 H   0  0  0  0  0  0  0  0  0  0  0  0
   -3.2208    1.8816   -2.4959 H   0  0  0  0  0  0  0  0  0  0  0  0
   -4.6063    1.2482   -4.4386 H   0  0  0  0  0  0  0  0  0  0  0  0
   -7.7084    1.5226   -4.8961 H   0  0  0  0  0  0  0  0  0  0  0  0
   -6.3729    1.9498   -6.0470 H   0  0  0  0  0  0  0  0  0  0  0  0
   -7.5801    3.1930   -5.5747 H   0  0  0  0  0  0  0  0  0  0  0  0
   -7.5448    4.1805   -3.2992 H   0  0  0  0  0  0  0  0  0  0  0  0
   -6.1620    4.8205   -1.3661 H   0  0  0  0  0  0  0  0  0  0  0  0
   -5.0227    4.8984    1.4603 H   0  0  0  0  0  0  0  0  0  0  0  0
   -5.6358    3.7614    3.5396 H   0  0  0  0  0  0  0  0  0  0  0  0
   -4.4246    0.4951    4.5538 H   0  0  0  0  0  0  0  0  0  0  0  0
   -6.1379    0.4731    3.9797 H   0  0  0  0  0  0  0  0  0  0  0  0
   -5.5360    1.8422    4.9864 H   0  0  0  0  0  0  0  0  0  0  0  0
   -4.0431    0.0742    1.9988 H   0  0  0  0  0  0  0  0  0  0  0  0
   -3.3460    1.2302   -0.0510 H   0  0  0  0  0  0  0  0  0  0  0  0
   -0.0193   10.2556   -4.7307 H   0  0  0  0  0  0  0  0  0  0  0  0
    1.8517   11.7396   -4.0876 H   0  0  0  0  0  0  0  0  0  0  0  0
    3.5578   11.9685   -1.5501 H   0  0  0  0  0  0  0  0  0  0  0  0
    2.4035   12.9484   -0.5684 H   0  0  0  0  0  0  0  0  0  0  0  0
    2.6657   13.3476   -2.3010 H   0  0  0  0  0  0  0  0  0  0  0  0
    0.8898   11.1455    0.0660 H   0  0  0  0  0  0  0  0  0  0  0  0
   -1.0120    9.7582   -0.5675 H   0  0  0  0  0  0  0  0  0  0  0  0
   -2.8675    9.4149   -5.5443 H   0  0  0  0  0  0  0  0  0  0  0  0
   -4.9870   10.5397   -6.1074 H   0  0  0  0  0  0  0  0  0  0  0  0
   -6.7835   12.0570   -5.4857 H   0  0  0  0  0  0  0  0  0  0  0  0
   -7.5475   11.0299   -4.2082 H   0  0  0  0  0  0  0  0  0  0  0  0
   -6.9080   12.6771   -3.8052 H   0  0  0  0  0  0  0  0  0  0  0  0
   -5.5561   11.5627   -1.9657 H   0  0  0  0  0  0  0  0  0  0  0  0
   -3.4270   10.4580   -1.4031 H   0  0  0  0  0  0  0  0  0  0  0  0
   -1.8132    7.2201   -6.1721 H   0  0  0  0  0  0  0  0  0  0  0  0
    2.1220    3.5553   -3.0864 H   0  0  0  0  0  0  0  0  0  0  0  0
    3.2336    1.3635   -3.3490 H   0  0  0  0  0  0  0  0  0  0  0  0
    4.7708    2.2110   -3.8036 H   0  0  0  0  0  0  0  0  0  0  0  0
    4.0575    0.9041   -4.8455 H   0  0  0  0  0  0  0  0  0  0  0  0
    4.1115    2.5725   -8.2170 H   0  0  0  0  0  0  0  0  0  0  0  0
    3.5302    1.1374   -7.2740 H   0  0  0  0  0  0  0  0  0  0  0  0
    5.0042    2.0727   -6.7540 H   0  0  0  0  0  0  0  0  0  0  0  0
    2.3378    4.1032   -8.0307 H   0  0  0  0  0  0  0  0  0  0  0  0
  1  2  2  3
  2  3  1  0
  3  4  2  0
  3  5  1  0
  5  6  2  0
  6  7  1  0
  7  8  1  0
  7  9  2  0
  9 10  1  0
  9 11  1  0
 11 12  2  0
 12 13  1  0
 13 14  2  3
 14 15  1  0
 15 16  3  0
 14 17  1  0
 17 18  3  0
  1 19  1  0
 19 20  2  0
 20 21  1  0
 21 22  1  0
 22 23  2  0
 23 24  1  0
 24 25  2  0
 25 26  1  0
 25 27  1  0
 27 28  2  0
 21 29  1  0
 29 30  2  0
 30 31  1  0
 31 32  2  0
 32 33  1  0
 32 34  1  0
 34 35  2  0
 20 36  1  0
 36 37  1  0
 37 38  1  0
 38 39  2  0
 39 40  1  0
 40 41  1  0
 41 42  2  0
 42 43  1  0
 43 44  2  0
 44 45  1  0
 44 46  1  0
 46 47  2  0
 40 48  1  0
 48 49  2  0
 49 50  1  0
 50 51  2  0
 51 52  1  0
 51 53  1  0
 53 54  2  0
 39 55  1  0
 55 56  1  0
 38 57  1  0
 57 58  2  0
 58 59  1  0
 59 60  2  0
 60 61  1  0
 61 62  2  0
 62 63  1  0
 63 64  1  0
 64 65  1  0
 63 66  2  0
 58 67  1  0
 67 68  1  0
 68 69  1  0
 69 70  1  0
 70 71  1  0
 71 72  1  0
 72 73  2  0
 73 74  1  0
 74 75  1  0
 72 76  1  0
 76 77  1  0
 77 78  1  0
 78 79  1  0
 79 80  1  0
 80 81  1  0
 81 82  2  0
 82 83  1  0
 83 84  2  0
 84 85  1  0
 85 86  1  0
 86 87  1  0
 85 88  2  0
 80 89  2  0
 89 90  1  0
 90 91  1  0
 91 92  1  0
 92 93  1  0
 93 94  1  0
 94 95  1  0
 95 96  1  0
 96 97  1  0
 97 98  1  0
 98 99  1  0
 96100  1  0
100101  1  0
 93102  1  0
102103  1  0
 89104  1  0
104105  2  0
105106  1  0
106107  1  0
107108  2  0
108109  1  0
109110  2  0
110111  1  0
110112  1  0
112113  2  0
106114  1  0
114115  2  0
115116  1  0
116117  2  0
117118  1  0
117119  1  0
119120  2  0
105121  1  0
121122  1  0
122123  1  0
123124  2  0
124125  1  0
125126  1  0
126127  2  0
127128  1  0
128129  2  0
129130  1  0
129131  1  0
131132  2  0
125133  1  0
133134  2  0
134135  1  0
135136  2  0
136137  1  0
136138  1  0
138139  2  0
124140  1  0
140141  1  0
123142  1  0
142143  2  3
143144  1  0
144145  2  0
144146  1  0
146147  2  0
147148  1  0
148149  1  0
148150  2  0
150151  1  0
150152  1  0
152153  2  0
153154  1  0
154155  2  3
155156  1  0
156157  3  0
155158  1  0
158159  3  0
 13  2  1  0
 56 19  1  0
 99 57  1  0
141104  1  0
154143  1  0
 12  5  1  0
 28 22  1  0
 35 29  1  0
 55 36  2  0
 66 59  1  0
 98 67  2  0
113107  1  0
120114  1  0
140121  2  0
153146  1  0
 47 41  1  0
 54 48  1  0
 97 69  2  0
132126  1  0
139133  1  0
 95 70  2  0
 75 71  2  0
 94 76  2  0
 92 77  2  0
 91 79  2  0
 88 81  1  0
  1160  1  0
  6161  1  0
  8162  1  0
  8163  1  0
  8164  1  0
 10165  1  0
 10166  1  0
 10167  1  0
 11168  1  0
 23169  1  0
 24170  1  0
 26171  1  0
 26172  1  0
 26173  1  0
 27174  1  0
 28175  1  0
 30176  1  0
 31177  1  0
 33178  1  0
 33179  1  0
 33180  1  0
 34181  1  0
 35182  1  0
 42183  1  0
 43184  1  0
 45185  1  0
 45186  1  0
 45187  1  0
 46188  1  0
 47189  1  0
 49190  1  0
 50191  1  0
 52192  1  0
 52193  1  0
 52194  1  0
 53195  1  0
 54196  1  0
 60197  1  0
 61198  1  0
 62199  1  0
 64200  1  0
 64201  1  0
 65202  1  0
 65203  1  0
 65204  1  0
 66205  1  0
 82206  1  0
 83207  1  0
 84208  1  0
 86209  1  0
 86210  1  0
 87211  1  0
 87212  1  0
 87213  1  0
 88214  1  0
100215  1  0
100216  1  0
101217  1  0
101218  1  0
101219  1  0
102220  1  0
102221  1  0
103222  1  0
103223  1  0
103224  1  0
108225  1  0
109226  1  0
111227  1  0
111228  1  0
111229  1  0
112230  1  0
113231  1  0
115232  1  0
116233  1  0
118234  1  0
118235  1  0
118236  1  0
119237  1  0
120238  1  0
127239  1  0
128240  1  0
130241  1  0
130242  1  0
130243  1  0
131244  1  0
132245  1  0
134246  1  0
135247  1  0
137248  1  0
137249  1  0
137250  1  0
138251  1  0
139252  1  0
142253  1  0
147254  1  0
149255  1  0
149256  1  0
149257  1  0
151258  1  0
151259  1  0
151260  1  0
152261  1  0
M  END

