
     RDKit          3D

211233  0  0  0  0  0  0  0  0999 V2000
    0.3570    5.4723   -3.1032 C   0  0  0  0  0  0  0  0  0  0  0  0
    0.0908    5.0994   -4.3731 C   0  0  0  0  0  0  0  0  0  0  0  0
    0.6574    5.7807   -5.5352 C   0  0  0  0  0  0  0  0  0  0  0  0
    1.6489    6.5570   -5.5245 O   0  0  0  0  0  0  0  0  0  0  0  0
   -0.1325    5.4321   -6.7012 C   0  0  0  0  0  0  0  0  0  0  0  0
    0.0566    5.8182   -8.0339 C   0  0  0  0  0  0  0  0  0  0  0  0
    1.1130    6.6480   -8.3945 O   0  0  0  0  0  0  0  0  0  0  0  0
   -0.8327    5.3183   -8.9992 C   0  0  0  0  0  0  0  0  0  0  0  0
   -1.8824    4.4686   -8.6242 C   0  0  0  0  0  0  0  0  0  0  0  0
   -2.0438    4.0805   -7.2854 C   0  0  0  0  0  0  0  0  0  0  0  0
   -1.1530    4.5783   -6.3209 C   0  0  0  0  0  0  0  0  0  0  0  0
   -1.0127    4.2346   -4.8791 C   0  0  0  0  0  0  0  0  0  0  0  0
   -1.4277    3.0689   -4.3461 C   0  0  0  0  0  0  0  0  0  0  0  0
   -0.5692    2.2686   -3.5107 C   0  0  0  0  0  0  0  0  0  0  0  0
    0.1218    1.5998   -2.8696 N   0  0  0  0  0  0  0  0  0  0  0  0
   -2.7121    2.5026   -4.6583 C   0  0  0  0  0  0  0  0  0  0  0  0
   -3.7551    2.0654   -4.8821 N   0  0  0  0  0  0  0  0  0  0  0  0
   -0.3546    4.9542   -1.9287 C   0  0  0  0  0  0  0  0  0  0  0  0
   -1.6807    5.2192   -1.5385 C   0  0  0  0  0  0  0  0  0  0  0  0
   -2.4089    6.3971   -1.9210 N   0  0  0  0  0  0  0  0  0  0  0  0
   -2.5922    7.4624   -0.9622 C   0  0  0  0  0  0  0  0  0  0  0  0
   -1.5712    7.7868   -0.0497 C   0  0  0  0  0  0  0  0  0  0  0  0
   -1.7321    8.8465    0.8465 C   0  0  0  0  0  0  0  0  0  0  0  0
   -2.9145    9.5988    0.8496 C   0  0  0  0  0  0  0  0  0  0  0  0
   -3.0650   10.7440    1.8076 C   0  0  0  0  0  0  0  0  0  0  0  0
   -3.9442    9.2679   -0.0445 C   0  0  0  0  0  0  0  0  0  0  0  0
   -3.7836    8.2089   -0.9437 C   0  0  0  0  0  0  0  0  0  0  0  0
   -2.7844    6.6049   -3.2878 C   0  0  0  0  0  0  0  0  0  0  0  0
   -3.6995    5.7445   -3.9081 C   0  0  0  0  0  0  0  0  0  0  0  0
   -4.0677    5.9550   -5.2397 C   0  0  0  0  0  0  0  0  0  0  0  0
   -3.5283    7.0322   -5.9633 C   0  0  0  0  0  0  0  0  0  0  0  0
   -3.8673    7.2342   -7.4059 C   0  0  0  0  0  0  0  0  0  0  0  0
   -2.6130    7.8926   -5.3366 C   0  0  0  0  0  0  0  0  0  0  0  0
   -2.2551    7.6890   -4.0048 C   0  0  0  0  0  0  0  0  0  0  0  0
   -2.0147    4.4643   -0.4166 C   0  0  0  0  0  0  0  0  0  0  0  0
   -3.4563    4.1293    0.3588 S   0  0  0  0  0  0  0  0  0  0  0  0
   -2.7816    2.9825    1.4279 C   0  0  0  0  0  0  0  0  0  0  0  0
   -1.3857    2.8851    1.1895 C   0  0  0  0  0  0  0  0  0  0  0  0
   -0.4367    2.0735    1.9338 N   0  0  0  0  0  0  0  0  0  0  0  0
   -0.8202    1.2561    3.0449 C   0  0  0  0  0  0  0  0  0  0  0  0
   -1.0039   -0.1197    2.8731 C   0  0  0  0  0  0  0  0  0  0  0  0
   -1.2496   -0.9421    3.9787 C   0  0  0  0  0  0  0  0  0  0  0  0
   -1.2683   -0.3990    5.2699 C   0  0  0  0  0  0  0  0  0  0  0  0
   -1.5450   -1.2645    6.4605 C   0  0  0  0  0  0  0  0  0  0  0  0
   -1.0565    0.9756    5.4432 C   0  0  0  0  0  0  0  0  0  0  0  0
   -0.8413    1.8001    4.3364 C   0  0  0  0  0  0  0  0  0  0  0  0
    0.9710    2.3323    1.8257 C   0  0  0  0  0  0  0  0  0  0  0  0
    1.8191    1.3854    1.2384 C   0  0  0  0  0  0  0  0  0  0  0  0
    3.1887    1.6493    1.1157 C   0  0  0  0  0  0  0  0  0  0  0  0
    3.7217    2.8601    1.5876 C   0  0  0  0  0  0  0  0  0  0  0  0
    5.1848    3.1606    1.4489 C   0  0  0  0  0  0  0  0  0  0  0  0
    2.8722    3.7988    2.1917 C   0  0  0  0  0  0  0  0  0  0  0  0
    1.5057    3.5359    2.3110 C   0  0  0  0  0  0  0  0  0  0  0  0
   -1.0217    3.7109    0.1170 C   0  0  0  0  0  0  0  0  0  0  0  0
    0.3681    3.9077   -0.8043 S   0  0  0  0  0  0  0  0  0  0  0  0
   -3.6159    1.9360    2.0375 C   0  0  0  0  0  0  0  0  0  0  0  0
   -4.1466    1.9187    3.3412 C   0  0  0  0  0  0  0  0  0  0  0  0
   -4.1781    3.0817    4.2555 C   0  0  0  0  0  0  0  0  0  0  0  0
   -3.8128    2.9630    5.6050 C   0  0  0  0  0  0  0  0  0  0  0  0
   -3.8666    4.0736    6.4517 C   0  0  0  0  0  0  0  0  0  0  0  0
   -4.3164    5.3043    5.9688 C   0  0  0  0  0  0  0  0  0  0  0  0
   -4.7340    5.4256    4.6364 C   0  0  0  0  0  0  0  0  0  0  0  0
   -5.2572    6.7344    4.1103 C   0  0  0  0  0  0  0  0  0  0  0  0
   -4.2058    7.4376    3.2598 C   0  0  0  0  0  0  0  0  0  0  0  0
   -4.6563    4.3145    3.7851 C   0  0  0  0  0  0  0  0  0  0  0  0
   -4.7174    0.6705    3.6182 C   0  0  0  0  0  0  0  0  0  0  0  0
   -5.1192   -0.1112    5.0704 S   0  0  0  0  0  0  0  0  0  0  0  0
   -5.3614   -1.5929    4.2757 C   0  0  0  0  0  0  0  0  0  0  0  0
   -5.1215   -2.8940    4.6301 C   0  0  0  0  0  0  0  0  0  0  0  0
   -4.6373   -3.3730    5.8592 C   0  0  0  0  0  0  0  0  0  0  0  0
   -3.8895   -4.5870    5.8771 C   0  0  0  0  0  0  0  0  0  0  0  0
   -3.3432   -4.9585    7.0608 N   0  0  0  0  0  0  0  0  0  0  0  0
   -3.8496   -3.6981    8.0096 S   0  0  0  0  0  0  0  0  0  0  0  0
   -4.7194   -2.6880    7.0280 N   0  0  0  0  0  0  0  0  0  0  0  0
   -3.7737   -5.3183    4.6934 C   0  0  0  0  0  0  0  0  0  0  0  0
   -3.0040   -6.4083    4.3767 C   0  0  0  0  0  0  0  0  0  0  0  0
   -1.4232   -6.8247    4.8441 S   0  0  0  0  0  0  0  0  0  0  0  0
   -1.0539   -7.4068    3.2876 C   0  0  0  0  0  0  0  0  0  0  0  0
    0.1656   -7.6489    2.6452 C   0  0  0  0  0  0  0  0  0  0  0  0
    1.4740   -7.6361    3.3232 C   0  0  0  0  0  0  0  0  0  0  0  0
    2.3322   -8.7356    3.2150 C   0  0  0  0  0  0  0  0  0  0  0  0
    3.6191   -8.6799    3.7550 C   0  0  0  0  0  0  0  0  0  0  0  0
    4.0694   -7.5105    4.3764 C   0  0  0  0  0  0  0  0  0  0  0  0
    3.2285   -6.3917    4.4677 C   0  0  0  0  0  0  0  0  0  0  0  0
    3.7374   -5.0942    5.0421 C   0  0  0  0  0  0  0  0  0  0  0  0
    3.0573   -4.7660    6.3689 C   0  0  0  0  0  0  0  0  0  0  0  0
    1.9245   -6.4657    3.9515 C   0  0  0  0  0  0  0  0  0  0  0  0
    0.0048   -7.6933    1.2446 C   0  0  0  0  0  0  0  0  0  0  0  0
   -1.6233   -7.3787    0.8542 S   0  0  0  0  0  0  0  0  0  0  0  0
   -2.1242   -7.2547    2.4457 C   0  0  0  0  0  0  0  0  0  0  0  0
   -3.2183   -6.6556    3.0475 C   0  0  0  0  0  0  0  0  0  0  0  0
   -4.0934   -5.7820    2.4950 N   0  0  0  0  0  0  0  0  0  0  0  0
   -4.3696   -4.9049    3.4993 C   0  0  0  0  0  0  0  0  0  0  0  0
   -4.9089   -3.5927    3.4243 C   0  0  0  0  0  0  0  0  0  0  0  0
   -4.8793   -2.7143    2.3659 N   0  0  0  0  0  0  0  0  0  0  0  0
   -5.1282   -1.5067    2.9370 C   0  0  0  0  0  0  0  0  0  0  0  0
   -4.7256   -0.2220    2.5739 C   0  0  0  0  0  0  0  0  0  0  0  0
   -3.9230    0.4512    1.2680 S   0  0  0  0  0  0  0  0  0  0  0  0
   -4.3430   -2.8906    1.0063 C   0  0  0  0  0  0  0  0  0  0  0  0
   -2.8266   -3.0681    1.0110 C   0  0  0  0  0  0  0  0  0  0  0  0
   -4.9630   -6.1012    1.3550 C   0  0  0  0  0  0  0  0  0  0  0  0
   -5.5561   -7.5046    1.4771 C   0  0  0  0  0  0  0  0  0  0  0  0
    1.0805   -7.6517    0.2349 C   0  0  0  0  0  0  0  0  0  0  0  0
    2.1415   -6.7264    0.3660 C   0  0  0  0  0  0  0  0  0  0  0  0
    3.0505   -6.6011   -0.6873 C   0  0  0  0  0  0  0  0  0  0  0  0
    4.0613   -5.7042   -0.8102 N   0  0  0  0  0  0  0  0  0  0  0  0
    4.5499   -4.7731    0.2121 C   0  0  0  0  0  0  0  0  0  0  0  0
    5.5752   -5.4676    1.1038 C   0  0  0  0  0  0  0  0  0  0  0  0
    4.5638   -5.9073   -2.0558 C   0  0  0  0  0  0  0  0  0  0  0  0
    3.8886   -6.9222   -2.7005 C   0  0  0  0  0  0  0  0  0  0  0  0
    2.9217   -7.3657   -1.8279 C   0  0  0  0  0  0  0  0  0  0  0  0
    1.8986   -8.2975   -1.9850 C   0  0  0  0  0  0  0  0  0  0  0  0
    0.9662   -8.4311   -0.9419 C   0  0  0  0  0  0  0  0  0  0  0  0
    4.1505   -7.2641   -4.0228 C   0  0  0  0  0  0  0  0  0  0  0  0
    5.1214   -6.5222   -4.7131 C   0  0  0  0  0  0  0  0  0  0  0  0
    5.8224   -5.4753   -4.0699 C   0  0  0  0  0  0  0  0  0  0  0  0
    5.5459   -5.1635   -2.7187 C   0  0  0  0  0  0  0  0  0  0  0  0
    6.6766   -4.5969   -4.8863 C   0  0  0  0  0  0  0  0  0  0  0  0
    7.9646   -4.3145   -4.6143 C   0  0  0  0  0  0  0  0  0  0  0  0
    8.7258   -4.7851   -3.4510 C   0  0  0  0  0  0  0  0  0  0  0  0
    8.4151   -5.7362   -2.6861 O   0  0  0  0  0  0  0  0  0  0  0  0
    9.9346   -3.9915   -3.3449 C   0  0  0  0  0  0  0  0  0  0  0  0
   10.9056   -4.0146   -2.3380 C   0  0  0  0  0  0  0  0  0  0  0  0
   10.8195   -4.9270   -1.2878 O   0  0  0  0  0  0  0  0  0  0  0  0
   11.9608   -3.0944   -2.4116 C   0  0  0  0  0  0  0  0  0  0  0  0
   12.0163   -2.1656   -3.4633 C   0  0  0  0  0  0  0  0  0  0  0  0
   11.0307   -2.1573   -4.4632 C   0  0  0  0  0  0  0  0  0  0  0  0
    9.9999   -3.1102   -4.4121 C   0  0  0  0  0  0  0  0  0  0  0  0
    8.8457   -3.3387   -5.3291 C   0  0  0  0  0  0  0  0  0  0  0  0
    8.7467   -2.9325   -6.6230 C   0  0  0  0  0  0  0  0  0  0  0  0
    7.7051   -3.3818   -7.5118 C   0  0  0  0  0  0  0  0  0  0  0  0
    6.8734   -3.7330   -8.2382 N   0  0  0  0  0  0  0  0  0  0  0  0
    9.7413   -2.1071   -7.2552 C   0  0  0  0  0  0  0  0  0  0  0  0
   10.5325   -1.4470   -7.7847 N   0  0  0  0  0  0  0  0  0  0  0  0
    1.1733    6.1559   -2.9133 H   0  0  0  0  0  0  0  0  0  0  0  0
    1.2714    6.9002   -9.3643 H   0  0  0  0  0  0  0  0  0  0  0  0
   -0.7183    5.5979  -10.0387 H   0  0  0  0  0  0  0  0  0  0  0  0
   -2.5746    4.1086   -9.3709 H   0  0  0  0  0  0  0  0  0  0  0  0
   -2.8563    3.4256   -7.0283 H   0  0  0  0  0  0  0  0  0  0  0  0
   -0.6370    7.2381   -0.0501 H   0  0  0  0  0  0  0  0  0  0  0  0
   -0.9313    9.0862    1.5334 H   0  0  0  0  0  0  0  0  0  0  0  0
   -4.0553   11.2327    1.6997 H   0  0  0  0  0  0  0  0  0  0  0  0
   -2.9629   10.3789    2.8514 H   0  0  0  0  0  0  0  0  0  0  0  0
   -2.2764   11.5001    1.6104 H   0  0  0  0  0  0  0  0  0  0  0  0
   -4.8696    9.8275   -0.0472 H   0  0  0  0  0  0  0  0  0  0  0  0
   -4.5875    7.9719   -1.6285 H   0  0  0  0  0  0  0  0  0  0  0  0
   -4.1211    4.9115   -3.3602 H   0  0  0  0  0  0  0  0  0  0  0  0
   -4.7596    5.2677   -5.7128 H   0  0  0  0  0  0  0  0  0  0  0  0
   -4.1448    8.2938   -7.5862 H   0  0  0  0  0  0  0  0  0  0  0  0
   -2.9854    6.9891   -8.0307 H   0  0  0  0  0  0  0  0  0  0  0  0
   -4.7170    6.5904   -7.7162 H   0  0  0  0  0  0  0  0  0  0  0  0
   -2.1734    8.7169   -5.8860 H   0  0  0  0  0  0  0  0  0  0  0  0
   -1.5452    8.3583   -3.5337 H   0  0  0  0  0  0  0  0  0  0  0  0
   -0.9394   -0.5502    1.8813 H   0  0  0  0  0  0  0  0  0  0  0  0
   -1.3986   -2.0043    3.8330 H   0  0  0  0  0  0  0  0  0  0  0  0
   -0.7940   -1.0707    7.2549 H   0  0  0  0  0  0  0  0  0  0  0  0
   -1.5034   -2.3424    6.1970 H   0  0  0  0  0  0  0  0  0  0  0  0
   -2.5532   -1.0266    6.8539 H   0  0  0  0  0  0  0  0  0  0  0  0
   -1.0635    1.4098    6.4346 H   0  0  0  0  0  0  0  0  0  0  0  0
   -0.6693    2.8595    4.4824 H   0  0  0  0  0  0  0  0  0  0  0  0
    1.4171    0.4549    0.8601 H   0  0  0  0  0  0  0  0  0  0  0  0
    3.8284    0.9095    0.6480 H   0  0  0  0  0  0  0  0  0  0  0  0
    5.3171    4.0860    0.8498 H   0  0  0  0  0  0  0  0  0  0  0  0
    5.7261    2.3354    0.9463 H   0  0  0  0  0  0  0  0  0  0  0  0
    5.6298    3.3162    2.4551 H   0  0  0  0  0  0  0  0  0  0  0  0
    3.2679    4.7380    2.5598 H   0  0  0  0  0  0  0  0  0  0  0  0
    0.8571    4.2709    2.7676 H   0  0  0  0  0  0  0  0  0  0  0  0
   -3.4783    2.0178    6.0065 H   0  0  0  0  0  0  0  0  0  0  0  0
   -3.5629    3.9786    7.4845 H   0  0  0  0  0  0  0  0  0  0  0  0
   -4.3553    6.1546    6.6378 H   0  0  0  0  0  0  0  0  0  0  0  0
   -6.1625    6.5498    3.4900 H   0  0  0  0  0  0  0  0  0  0  0  0
   -5.5537    7.4023    4.9469 H   0  0  0  0  0  0  0  0  0  0  0  0
   -3.9203    6.8071    2.3907 H   0  0  0  0  0  0  0  0  0  0  0  0
   -4.6276    8.3909    2.8820 H   0  0  0  0  0  0  0  0  0  0  0  0
   -3.3019    7.6599    3.8680 H   0  0  0  0  0  0  0  0  0  0  0  0
   -5.0050    4.4044    2.7635 H   0  0  0  0  0  0  0  0  0  0  0  0
    2.0063   -9.6377    2.7100 H   0  0  0  0  0  0  0  0  0  0  0  0
    4.2793   -9.5320    3.6683 H   0  0  0  0  0  0  0  0  0  0  0  0
    5.0798   -7.4737    4.7636 H   0  0  0  0  0  0  0  0  0  0  0  0
    4.8379   -5.1379    5.2023 H   0  0  0  0  0  0  0  0  0  0  0  0
    3.5408   -4.2731    4.3182 H   0  0  0  0  0  0  0  0  0  0  0  0
    3.2773   -5.5540    7.1201 H   0  0  0  0  0  0  0  0  0  0  0  0
    1.9566   -4.6787    6.2336 H   0  0  0  0  0  0  0  0  0  0  0  0
    3.4436   -3.7949    6.7486 H   0  0  0  0  0  0  0  0  0  0  0  0
    1.2837   -5.5927    3.9844 H   0  0  0  0  0  0  0  0  0  0  0  0
   -4.6009   -2.0083    0.3876 H   0  0  0  0  0  0  0  0  0  0  0  0
   -4.8292   -3.7169    0.4724 H   0  0  0  0  0  0  0  0  0  0  0  0
   -2.5487   -4.1157    1.2380 H   0  0  0  0  0  0  0  0  0  0  0  0
   -2.4132   -2.7960    0.0202 H   0  0  0  0  0  0  0  0  0  0  0  0
   -2.3715   -2.4093    1.7677 H   0  0  0  0  0  0  0  0  0  0  0  0
   -4.3860   -6.0286    0.4115 H   0  0  0  0  0  0  0  0  0  0  0  0
   -5.8252   -5.4012    1.3260 H   0  0  0  0  0  0  0  0  0  0  0  0
   -6.0707   -7.6166    2.4552 H   0  0  0  0  0  0  0  0  0  0  0  0
   -4.7573   -8.2751    1.3920 H   0  0  0  0  0  0  0  0  0  0  0  0
   -6.2928   -7.6716    0.6627 H   0  0  0  0  0  0  0  0  0  0  0  0
    2.2027   -6.0729    1.2238 H   0  0  0  0  0  0  0  0  0  0  0  0
    5.0160   -3.8809   -0.2554 H   0  0  0  0  0  0  0  0  0  0  0  0
    3.7088   -4.4005    0.8372 H   0  0  0  0  0  0  0  0  0  0  0  0
    5.1026   -6.3225    1.6314 H   0  0  0  0  0  0  0  0  0  0  0  0
    6.4187   -5.8472    0.4862 H   0  0  0  0  0  0  0  0  0  0  0  0
    5.9694   -4.7522    1.8591 H   0  0  0  0  0  0  0  0  0  0  0  0
    1.7983   -8.8672   -2.8985 H   0  0  0  0  0  0  0  0  0  0  0  0
    0.1436   -9.1239   -1.0609 H   0  0  0  0  0  0  0  0  0  0  0  0
    3.5915   -8.0433   -4.5230 H   0  0  0  0  0  0  0  0  0  0  0  0
    5.3070   -6.7403   -5.7565 H   0  0  0  0  0  0  0  0  0  0  0  0
    6.0333   -4.3248   -2.2405 H   0  0  0  0  0  0  0  0  0  0  0  0
    6.1796   -4.1358   -5.7236 H   0  0  0  0  0  0  0  0  0  0  0  0
   11.5148   -4.9512   -0.5503 H   0  0  0  0  0  0  0  0  0  0  0  0
   12.7262   -3.0818   -1.6476 H   0  0  0  0  0  0  0  0  0  0  0  0
   12.8175   -1.4378   -3.4983 H   0  0  0  0  0  0  0  0  0  0  0  0
   11.0812   -1.3983   -5.2260 H   0  0  0  0  0  0  0  0  0  0  0  0
  1  2  2  3
  2  3  1  0
  3  4  2  0
  3  5  1  0
  5  6  2  0
  6  7  1  0
  6  8  1  0
  8  9  2  0
  9 10  1  0
 10 11  2  0
 11 12  1  0
 12 13  2  3
 13 14  1  0
 14 15  3  0
 13 16  1  0
 16 17  3  0
  1 18  1  0
 18 19  2  0
 19 20  1  0
 20 21  1  0
 21 22  2  0
 22 23  1  0
 23 24  2  0
 24 25  1  0
 24 26  1  0
 26 27  2  0
 20 28  1  0
 28 29  2  0
 29 30  1  0
 30 31  2  0
 31 32  1  0
 31 33  1  0
 33 34  2  0
 19 35  1  0
 35 36  1  0
 36 37  1  0
 37 38  2  0
 38 39  1  0
 39 40  1  0
 40 41  2  0
 41 42  1  0
 42 43  2  0
 43 44  1  0
 43 45  1  0
 45 46  2  0
 39 47  1  0
 47 48  2  0
 48 49  1  0
 49 50  2  0
 50 51  1  0
 50 52  1  0
 52 53  2  0
 38 54  1  0
 54 55  1  0
 37 56  1  0
 56 57  2  0
 57 58  1  0
 58 59  2  0
 59 60  1  0
 60 61  2  0
 61 62  1  0
 62 63  1  0
 63 64  1  0
 62 65  2  0
 57 66  1  0
 66 67  1  0
 67 68  1  0
 68 69  1  0
 69 70  1  0
 70 71  1  0
 71 72  2  0
 72 73  1  0
 73 74  1  0
 71 75  1  0
 75 76  1  0
 76 77  1  0
 77 78  1  0
 78 79  1  0
 79 80  1  0
 80 81  2  0
 81 82  1  0
 82 83  2  0
 83 84  1  0
 84 85  1  0
 85 86  1  0
 84 87  2  0
 79 88  2  0
 88 89  1  0
 89 90  1  0
 90 91  1  0
 91 92  1  0
 92 93  1  0
 93 94  1  0
 94 95  1  0
 95 96  1  0
 96 97  1  0
 97 98  1  0
 95 99  1  0
 99100  1  0
 92101  1  0
101102  1  0
 88103  1  0
103104  2  0
104105  1  0
105106  1  0
106107  1  0
107108  1  0
106109  1  0
109110  2  0
110111  1  0
111112  1  0
112113  2  0
110114  1  0
114115  2  0
115116  1  0
116117  2  0
116118  1  0
118119  2  3
119120  1  0
120121  2  0
120122  1  0
122123  2  0
123124  1  0
123125  1  0
125126  2  0
126127  1  0
127128  2  0
128129  1  0
129130  2  3
130131  1  0
131132  3  0
130133  1  0
133134  3  0
 12  2  1  0
 55 18  1  0
 98 56  1  0
113103  1  0
129119  1  0
 11  5  1  0
 27 21  1  0
 34 28  1  0
 54 35  2  0
 65 58  1  0
 97 66  2  0
111105  2  0
128122  1  0
 46 40  1  0
 53 47  1  0
 96 68  2  0
117109  1  0
 94 69  2  0
 74 70  2  0
 93 75  2  0
 91 76  2  0
 90 78  2  0
 87 80  1  0
  1135  1  0
  7136  1  0
  8137  1  0
  9138  1  0
 10139  1  0
 22140  1  0
 23141  1  0
 25142  1  0
 25143  1  0
 25144  1  0
 26145  1  0
 27146  1  0
 29147  1  0
 30148  1  0
 32149  1  0
 32150  1  0
 32151  1  0
 33152  1  0
 34153  1  0
 41154  1  0
 42155  1  0
 44156  1  0
 44157  1  0
 44158  1  0
 45159  1  0
 46160  1  0
 48161  1  0
 49162  1  0
 51163  1  0
 51164  1  0
 51165  1  0
 52166  1  0
 53167  1  0
 59168  1  0
 60169  1  0
 61170  1  0
 63171  1  0
 63172  1  0
 64173  1  0
 64174  1  0
 64175  1  0
 65176  1  0
 81177  1  0
 82178  1  0
 83179  1  0
 85180  1  0
 85181  1  0
 86182  1  0
 86183  1  0
 86184  1  0
 87185  1  0
 99186  1  0
 99187  1  0
100188  1  0
100189  1  0
100190  1  0
101191  1  0
101192  1  0
102193  1  0
102194  1  0
102195  1  0
104196  1  0
107197  1  0
107198  1  0
108199  1  0
108200  1  0
108201  1  0
112202  1  0
113203  1  0
114204  1  0
115205  1  0
117206  1  0
118207  1  0
124208  1  0
125209  1  0
126210  1  0
127211  1  0
M  END

