
     RDKit          3D

205227  0  0  0  0  0  0  0  0999 V2000
    4.7873   -6.6329    2.1148 C   0  0  0  0  0  0  0  0  0  0  0  0
    5.7547   -6.1624    2.9333 C   0  0  0  0  0  0  0  0  0  0  0  0
    5.8792   -4.7621    3.3656 C   0  0  0  0  0  0  0  0  0  0  0  0
    5.0144   -3.8584    3.2286 O   0  0  0  0  0  0  0  0  0  0  0  0
    7.1679   -4.5883    3.9978 C   0  0  0  0  0  0  0  0  0  0  0  0
    7.7629   -3.4008    4.4390 C   0  0  0  0  0  0  0  0  0  0  0  0
    7.0731   -2.1895    4.3741 O   0  0  0  0  0  0  0  0  0  0  0  0
    9.0754   -3.4552    4.9357 C   0  0  0  0  0  0  0  0  0  0  0  0
    9.7771   -4.6693    4.9436 C   0  0  0  0  0  0  0  0  0  0  0  0
    9.1707   -5.8507    4.4762 C   0  0  0  0  0  0  0  0  0  0  0  0
    7.8358   -5.8035    4.0294 C   0  0  0  0  0  0  0  0  0  0  0  0
    6.9611   -6.8774    3.4640 C   0  0  0  0  0  0  0  0  0  0  0  0
    7.1751   -8.2185    3.5375 C   0  0  0  0  0  0  0  0  0  0  0  0
    8.3133   -8.7872    4.2152 C   0  0  0  0  0  0  0  0  0  0  0  0
    9.2246   -9.2592    4.7583 N   0  0  0  0  0  0  0  0  0  0  0  0
    6.2455   -9.1972    3.0352 C   0  0  0  0  0  0  0  0  0  0  0  0
    5.5151   -9.9990    2.6265 N   0  0  0  0  0  0  0  0  0  0  0  0
    3.7791   -5.7708    1.4877 C   0  0  0  0  0  0  0  0  0  0  0  0
    4.0338   -4.8517    0.4583 C   0  0  0  0  0  0  0  0  0  0  0  0
    5.2696   -4.7999   -0.2675 N   0  0  0  0  0  0  0  0  0  0  0  0
    6.2894   -3.8925    0.1778 C   0  0  0  0  0  0  0  0  0  0  0  0
    6.0249   -2.5176    0.2770 C   0  0  0  0  0  0  0  0  0  0  0  0
    6.9879   -1.6484    0.7742 C   0  0  0  0  0  0  0  0  0  0  0  0
    8.2400   -2.1425    1.1990 C   0  0  0  0  0  0  0  0  0  0  0  0
    9.2492   -1.2206    1.7971 C   0  0  0  0  0  0  0  0  0  0  0  0
    8.5201   -3.5093    1.0607 C   0  0  0  0  0  0  0  0  0  0  0  0
    7.5555   -4.3825    0.5506 C   0  0  0  0  0  0  0  0  0  0  0  0
    5.4080   -5.5512   -1.5015 C   0  0  0  0  0  0  0  0  0  0  0  0
    6.3302   -5.1581   -2.4932 C   0  0  0  0  0  0  0  0  0  0  0  0
    6.3972   -5.8358   -3.7175 C   0  0  0  0  0  0  0  0  0  0  0  0
    5.5314   -6.9109   -3.9767 C   0  0  0  0  0  0  0  0  0  0  0  0
    5.5443   -7.5999   -5.3094 C   0  0  0  0  0  0  0  0  0  0  0  0
    4.6171   -7.3172   -3.0008 C   0  0  0  0  0  0  0  0  0  0  0  0
    4.5648   -6.6583   -1.7689 C   0  0  0  0  0  0  0  0  0  0  0  0
    2.8494   -4.3313   -0.0483 C   0  0  0  0  0  0  0  0  0  0  0  0
    2.4982   -3.3611   -1.3605 S   0  0  0  0  0  0  0  0  0  0  0  0
    0.8180   -3.6055   -1.2484 C   0  0  0  0  0  0  0  0  0  0  0  0
    0.5385   -4.4910   -0.1950 C   0  0  0  0  0  0  0  0  0  0  0  0
   -0.6646   -5.2719   -0.1418 N   0  0  0  0  0  0  0  0  0  0  0  0
   -1.6474   -5.1045    0.9052 C   0  0  0  0  0  0  0  0  0  0  0  0
   -1.3103   -4.4903    2.1282 C   0  0  0  0  0  0  0  0  0  0  0  0
   -2.2609   -4.3636    3.1453 C   0  0  0  0  0  0  0  0  0  0  0  0
   -3.5668   -4.8295    2.9528 C   0  0  0  0  0  0  0  0  0  0  0  0
   -4.5816   -4.6709    4.0419 C   0  0  0  0  0  0  0  0  0  0  0  0
   -3.9199   -5.4005    1.7182 C   0  0  0  0  0  0  0  0  0  0  0  0
   -2.9695   -5.5472    0.7091 C   0  0  0  0  0  0  0  0  0  0  0  0
   -0.7531   -6.3579   -1.0796 C   0  0  0  0  0  0  0  0  0  0  0  0
   -1.2172   -6.1326   -2.3836 C   0  0  0  0  0  0  0  0  0  0  0  0
   -1.0904   -7.1236   -3.3590 C   0  0  0  0  0  0  0  0  0  0  0  0
   -0.4923   -8.3523   -3.0424 C   0  0  0  0  0  0  0  0  0  0  0  0
   -0.2151   -9.3617   -4.1169 C   0  0  0  0  0  0  0  0  0  0  0  0
   -0.0695   -8.5932   -1.7258 C   0  0  0  0  0  0  0  0  0  0  0  0
   -0.2077   -7.6049   -0.7479 C   0  0  0  0  0  0  0  0  0  0  0  0
    1.7114   -4.8594    0.4666 C   0  0  0  0  0  0  0  0  0  0  0  0
    2.1022   -6.0085    1.6272 S   0  0  0  0  0  0  0  0  0  0  0  0
   -0.1769   -2.9728   -2.1224 C   0  0  0  0  0  0  0  0  0  0  0  0
   -0.0766   -2.7658   -3.5151 C   0  0  0  0  0  0  0  0  0  0  0  0
    1.0236   -3.2302   -4.3697 C   0  0  0  0  0  0  0  0  0  0  0  0
    2.2075   -2.4855   -4.4714 C   0  0  0  0  0  0  0  0  0  0  0  0
    3.2469   -2.9353   -5.2844 C   0  0  0  0  0  0  0  0  0  0  0  0
    3.0997   -4.1107   -6.0290 C   0  0  0  0  0  0  0  0  0  0  0  0
    1.9100   -4.8558   -5.9514 C   0  0  0  0  0  0  0  0  0  0  0  0
    1.7290   -6.0949   -6.7891 C   0  0  0  0  0  0  0  0  0  0  0  0
    1.0514   -5.7630   -8.1129 C   0  0  0  0  0  0  0  0  0  0  0  0
    0.8694   -4.3991   -5.1274 C   0  0  0  0  0  0  0  0  0  0  0  0
   -1.1715   -2.0546   -3.9995 C   0  0  0  0  0  0  0  0  0  0  0  0
   -1.5014   -1.3262   -5.5096 S   0  0  0  0  0  0  0  0  0  0  0  0
   -2.8557   -0.5465   -4.8472 C   0  0  0  0  0  0  0  0  0  0  0  0
   -3.6937    0.4855   -5.1582 C   0  0  0  0  0  0  0  0  0  0  0  0
   -3.9219    1.1847   -6.3421 C   0  0  0  0  0  0  0  0  0  0  0  0
   -4.8023    2.3137   -6.3112 C   0  0  0  0  0  0  0  0  0  0  0  0
   -4.9834    2.9773   -7.4818 N   0  0  0  0  0  0  0  0  0  0  0  0
   -4.0199    2.0711   -8.4763 S   0  0  0  0  0  0  0  0  0  0  0  0
   -3.3566    0.8734   -7.5336 N   0  0  0  0  0  0  0  0  0  0  0  0
   -5.3558    2.7132   -5.0865 C   0  0  0  0  0  0  0  0  0  0  0  0
   -5.8745    3.9265   -4.7227 C   0  0  0  0  0  0  0  0  0  0  0  0
   -5.8085    5.4561   -5.4598 S   0  0  0  0  0  0  0  0  0  0  0  0
   -5.7209    6.2520   -3.9584 C   0  0  0  0  0  0  0  0  0  0  0  0
   -5.3892    7.5645   -3.5804 C   0  0  0  0  0  0  0  0  0  0  0  0
   -5.1224    8.6578   -4.5411 C   0  0  0  0  0  0  0  0  0  0  0  0
   -4.3078    8.4378   -5.6654 C   0  0  0  0  0  0  0  0  0  0  0  0
   -4.1126    9.4500   -6.6061 C   0  0  0  0  0  0  0  0  0  0  0  0
   -4.7171   10.6952   -6.4323 C   0  0  0  0  0  0  0  0  0  0  0  0
   -5.5276   10.9361   -5.3120 C   0  0  0  0  0  0  0  0  0  0  0  0
   -6.1743   12.2833   -5.1175 C   0  0  0  0  0  0  0  0  0  0  0  0
   -5.4891   13.0581   -3.9962 C   0  0  0  0  0  0  0  0  0  0  0  0
   -5.7174    9.9150   -4.3668 C   0  0  0  0  0  0  0  0  0  0  0  0
   -5.1864    7.6463   -2.1851 C   0  0  0  0  0  0  0  0  0  0  0  0
   -5.3746    6.1033   -1.4971 S   0  0  0  0  0  0  0  0  0  0  0  0
   -5.7327    5.3383   -2.9400 C   0  0  0  0  0  0  0  0  0  0  0  0
   -5.7549    4.0105   -3.3611 C   0  0  0  0  0  0  0  0  0  0  0  0
   -5.1380    2.9193   -2.8195 N   0  0  0  0  0  0  0  0  0  0  0  0
   -5.0221    2.0598   -3.8845 C   0  0  0  0  0  0  0  0  0  0  0  0
   -4.2864    0.8559   -3.9431 C   0  0  0  0  0  0  0  0  0  0  0  0
   -3.9258    0.0036   -2.9333 N   0  0  0  0  0  0  0  0  0  0  0  0
   -3.0317   -0.8161   -3.5295 C   0  0  0  0  0  0  0  0  0  0  0  0
   -2.0818   -1.6921   -3.0419 C   0  0  0  0  0  0  0  0  0  0  0  0
   -1.6004   -2.2351   -1.5303 S   0  0  0  0  0  0  0  0  0  0  0  0
   -4.6396   -0.2829   -1.6799 C   0  0  0  0  0  0  0  0  0  0  0  0
   -5.4723   -1.5577   -1.8091 C   0  0  0  0  0  0  0  0  0  0  0  0
   -4.1342    3.0404   -1.7436 C   0  0  0  0  0  0  0  0  0  0  0  0
   -2.8494    3.6940   -2.2653 C   0  0  0  0  0  0  0  0  0  0  0  0
   -4.5575    8.7161   -1.3979 C   0  0  0  0  0  0  0  0  0  0  0  0
   -3.2718    8.4484   -0.8958 C   0  0  0  0  0  0  0  0  0  0  0  0
   -2.9188    8.9504    0.3529 C   0  0  0  0  0  0  0  0  0  0  0  0
   -2.0047    8.3213    1.2982 C   0  0  0  0  0  0  0  0  0  0  0  0
   -1.1224    7.4638    1.0284 O   0  0  0  0  0  0  0  0  0  0  0  0
   -2.4290    8.7266    2.6355 C   0  0  0  0  0  0  0  0  0  0  0  0
   -3.4601    9.6492    2.4979 C   0  0  0  0  0  0  0  0  0  0  0  0
   -3.7816    9.7722    1.0649 C   0  0  0  0  0  0  0  0  0  0  0  0
   -4.9955   10.1840    0.5074 C   0  0  0  0  0  0  0  0  0  0  0  0
   -5.3863    9.6474   -0.7302 C   0  0  0  0  0  0  0  0  0  0  0  0
   -4.2667    9.9832    3.5924 C   0  0  0  0  0  0  0  0  0  0  0  0
   -4.0633    9.3154    4.8132 C   0  0  0  0  0  0  0  0  0  0  0  0
   -3.1177    8.2644    4.8965 C   0  0  0  0  0  0  0  0  0  0  0  0
   -2.2679    7.9954    3.8088 C   0  0  0  0  0  0  0  0  0  0  0  0
   -3.3189    7.2155    5.9066 C   0  0  0  0  0  0  0  0  0  0  0  0
   -3.2736    7.4017    7.2339 C   0  0  0  0  0  0  0  0  0  0  0  0
   -2.5275    8.4562    7.9281 C   0  0  0  0  0  0  0  0  0  0  0  0
   -2.1563    9.5479    7.4212 O   0  0  0  0  0  0  0  0  0  0  0  0
   -2.2042    7.9699    9.2734 C   0  0  0  0  0  0  0  0  0  0  0  0
   -1.3555    8.5104   10.2577 C   0  0  0  0  0  0  0  0  0  0  0  0
   -0.7617    9.7664   10.1361 O   0  0  0  0  0  0  0  0  0  0  0  0
   -1.0820    7.7491   11.4049 C   0  0  0  0  0  0  0  0  0  0  0  0
   -1.6281    6.4626   11.5492 C   0  0  0  0  0  0  0  0  0  0  0  0
   -2.4735    5.9327   10.5586 C   0  0  0  0  0  0  0  0  0  0  0  0
   -2.7860    6.7189    9.4419 C   0  0  0  0  0  0  0  0  0  0  0  0
   -3.5854    6.3647    8.2437 C   0  0  0  0  0  0  0  0  0  0  0  0
   -4.5992    5.4654    8.1732 C   0  0  0  0  0  0  0  0  0  0  0  0
   -5.4827    5.3926    7.0330 C   0  0  0  0  0  0  0  0  0  0  0  0
   -6.1913    5.3389    6.1214 N   0  0  0  0  0  0  0  0  0  0  0  0
   -4.9728    4.6316    9.2824 C   0  0  0  0  0  0  0  0  0  0  0  0
   -5.2781    3.9561   10.1713 N   0  0  0  0  0  0  0  0  0  0  0  0
    4.7543   -7.6649    1.8197 H   0  0  0  0  0  0  0  0  0  0  0  0
    7.4974   -1.3241    4.6754 H   0  0  0  0  0  0  0  0  0  0  0  0
    9.5571   -2.5557    5.2948 H   0  0  0  0  0  0  0  0  0  0  0  0
   10.7998   -4.6907    5.2984 H   0  0  0  0  0  0  0  0  0  0  0  0
    9.7655   -6.7460    4.4556 H   0  0  0  0  0  0  0  0  0  0  0  0
    5.0587   -2.1311   -0.0261 H   0  0  0  0  0  0  0  0  0  0  0  0
    6.7584   -0.5940    0.8601 H   0  0  0  0  0  0  0  0  0  0  0  0
   10.0901   -1.0818    1.0870 H   0  0  0  0  0  0  0  0  0  0  0  0
    8.8096   -0.2256    2.0301 H   0  0  0  0  0  0  0  0  0  0  0  0
    9.6427   -1.6506    2.7415 H   0  0  0  0  0  0  0  0  0  0  0  0
    9.4748   -3.9100    1.3857 H   0  0  0  0  0  0  0  0  0  0  0  0
    7.7624   -5.4423    0.4862 H   0  0  0  0  0  0  0  0  0  0  0  0
    6.9709   -4.3009   -2.3425 H   0  0  0  0  0  0  0  0  0  0  0  0
    7.0877   -5.4882   -4.4719 H   0  0  0  0  0  0  0  0  0  0  0  0
    4.6229   -7.3304   -5.8615 H   0  0  0  0  0  0  0  0  0  0  0  0
    5.5646   -8.7021   -5.1673 H   0  0  0  0  0  0  0  0  0  0  0  0
    6.4279   -7.3079   -5.9142 H   0  0  0  0  0  0  0  0  0  0  0  0
    3.9337   -8.1405   -3.1922 H   0  0  0  0  0  0  0  0  0  0  0  0
    3.8513   -7.0083   -1.0371 H   0  0  0  0  0  0  0  0  0  0  0  0
   -0.3076   -4.1248    2.3099 H   0  0  0  0  0  0  0  0  0  0  0  0
   -1.9754   -3.9106    4.0886 H   0  0  0  0  0  0  0  0  0  0  0  0
   -4.1708   -5.0750    4.9923 H   0  0  0  0  0  0  0  0  0  0  0  0
   -4.8160   -3.5939    4.1758 H   0  0  0  0  0  0  0  0  0  0  0  0
   -5.5192   -5.2185    3.8101 H   0  0  0  0  0  0  0  0  0  0  0  0
   -4.9377   -5.7430    1.5413 H   0  0  0  0  0  0  0  0  0  0  0  0
   -3.2707   -5.9889   -0.2345 H   0  0  0  0  0  0  0  0  0  0  0  0
   -1.6519   -5.1808   -2.6527 H   0  0  0  0  0  0  0  0  0  0  0  0
   -1.4191   -6.9193   -4.3727 H   0  0  0  0  0  0  0  0  0  0  0  0
    0.7993   -9.1814   -4.5326 H   0  0  0  0  0  0  0  0  0  0  0  0
   -0.2575  -10.3917   -3.7002 H   0  0  0  0  0  0  0  0  0  0  0  0
   -0.9629   -9.2873   -4.9264 H   0  0  0  0  0  0  0  0  0  0  0  0
    0.3973   -9.5337   -1.4624 H   0  0  0  0  0  0  0  0  0  0  0  0
    0.1503   -7.7935    0.2555 H   0  0  0  0  0  0  0  0  0  0  0  0
    2.3279   -1.5687   -3.9084 H   0  0  0  0  0  0  0  0  0  0  0  0
    4.1625   -2.3654   -5.3542 H   0  0  0  0  0  0  0  0  0  0  0  0
    3.9144   -4.4414   -6.6691 H   0  0  0  0  0  0  0  0  0  0  0  0
    2.7132   -6.5662   -7.0001 H   0  0  0  0  0  0  0  0  0  0  0  0
    1.1125   -6.8364   -6.2366 H   0  0  0  0  0  0  0  0  0  0  0  0
    0.0647   -5.2891   -7.9362 H   0  0  0  0  0  0  0  0  0  0  0  0
    1.6859   -5.0773   -8.7163 H   0  0  0  0  0  0  0  0  0  0  0  0
    0.8878   -6.6982   -8.6974 H   0  0  0  0  0  0  0  0  0  0  0  0
   -0.0636   -4.9457   -5.0871 H   0  0  0  0  0  0  0  0  0  0  0  0
   -3.8204    7.4804   -5.8131 H   0  0  0  0  0  0  0  0  0  0  0  0
   -3.4965    9.2617   -7.4742 H   0  0  0  0  0  0  0  0  0  0  0  0
   -4.5612   11.4673   -7.1798 H   0  0  0  0  0  0  0  0  0  0  0  0
   -7.2467   12.1443   -4.8636 H   0  0  0  0  0  0  0  0  0  0  0  0
   -6.1239   12.8826   -6.0506 H   0  0  0  0  0  0  0  0  0  0  0  0
   -4.4330   13.2639   -4.2701 H   0  0  0  0  0  0  0  0  0  0  0  0
   -5.5114   12.4774   -3.0507 H   0  0  0  0  0  0  0  0  0  0  0  0
   -6.0103   14.0215   -3.8357 H   0  0  0  0  0  0  0  0  0  0  0  0
   -6.3588   10.0934   -3.5088 H   0  0  0  0  0  0  0  0  0  0  0  0
   -3.9124   -0.3976   -0.8506 H   0  0  0  0  0  0  0  0  0  0  0  0
   -5.3499    0.5317   -1.4329 H   0  0  0  0  0  0  0  0  0  0  0  0
   -6.1915   -1.4593   -2.6502 H   0  0  0  0  0  0  0  0  0  0  0  0
   -6.0459   -1.7285   -0.8690 H   0  0  0  0  0  0  0  0  0  0  0  0
   -4.8250   -2.4423   -1.9794 H   0  0  0  0  0  0  0  0  0  0  0  0
   -3.8520    2.0705   -1.3165 H   0  0  0  0  0  0  0  0  0  0  0  0
   -4.5476    3.6274   -0.8945 H   0  0  0  0  0  0  0  0  0  0  0  0
   -2.1362    3.8365   -1.4217 H   0  0  0  0  0  0  0  0  0  0  0  0
   -3.0603    4.6776   -2.7241 H   0  0  0  0  0  0  0  0  0  0  0  0
   -2.3733    3.0402   -3.0316 H   0  0  0  0  0  0  0  0  0  0  0  0
   -2.6707    7.6616   -1.3371 H   0  0  0  0  0  0  0  0  0  0  0  0
   -5.6988   10.7721    1.0846 H   0  0  0  0  0  0  0  0  0  0  0  0
   -6.4068    9.8091   -1.0640 H   0  0  0  0  0  0  0  0  0  0  0  0
   -5.1080   10.6499    3.4783 H   0  0  0  0  0  0  0  0  0  0  0  0
   -4.7466    9.4982    5.6339 H   0  0  0  0  0  0  0  0  0  0  0  0
   -1.6101    7.1312    3.8168 H   0  0  0  0  0  0  0  0  0  0  0  0
   -3.5911    6.2443    5.5191 H   0  0  0  0  0  0  0  0  0  0  0  0
   -0.8688   10.3477    9.3165 H   0  0  0  0  0  0  0  0  0  0  0  0
   -0.4173    8.1321   12.1716 H   0  0  0  0  0  0  0  0  0  0  0  0
   -1.3603    5.8640   12.4129 H   0  0  0  0  0  0  0  0  0  0  0  0
   -2.8339    4.9271   10.6678 H   0  0  0  0  0  0  0  0  0  0  0  0
  1  2  2  3
  2  3  1  0
  3  4  2  0
  3  5  1  0
  5  6  2  0
  6  7  1  0
  6  8  1  0
  8  9  2  0
  9 10  1  0
 10 11  2  0
 11 12  1  0
 12 13  2  3
 13 14  1  0
 14 15  3  0
 13 16  1  0
 16 17  3  0
  1 18  1  0
 18 19  2  0
 19 20  1  0
 20 21  1  0
 21 22  2  0
 22 23  1  0
 23 24  2  0
 24 25  1  0
 24 26  1  0
 26 27  2  0
 20 28  1  0
 28 29  2  0
 29 30  1  0
 30 31  2  0
 31 32  1  0
 31 33  1  0
 33 34  2  0
 19 35  1  0
 35 36  1  0
 36 37  1  0
 37 38  2  0
 38 39  1  0
 39 40  1  0
 40 41  2  0
 41 42  1  0
 42 43  2  0
 43 44  1  0
 43 45  1  0
 45 46  2  0
 39 47  1  0
 47 48  2  0
 48 49  1  0
 49 50  2  0
 50 51  1  0
 50 52  1  0
 52 53  2  0
 38 54  1  0
 54 55  1  0
 37 56  1  0
 56 57  2  0
 57 58  1  0
 58 59  2  0
 59 60  1  0
 60 61  2  0
 61 62  1  0
 62 63  1  0
 63 64  1  0
 62 65  2  0
 57 66  1  0
 66 67  1  0
 67 68  1  0
 68 69  1  0
 69 70  1  0
 70 71  1  0
 71 72  2  0
 72 73  1  0
 73 74  1  0
 71 75  1  0
 75 76  1  0
 76 77  1  0
 77 78  1  0
 78 79  1  0
 79 80  1  0
 80 81  2  0
 81 82  1  0
 82 83  2  0
 83 84  1  0
 84 85  1  0
 85 86  1  0
 84 87  2  0
 79 88  2  0
 88 89  1  0
 89 90  1  0
 90 91  1  0
 91 92  1  0
 92 93  1  0
 93 94  1  0
 94 95  1  0
 95 96  1  0
 96 97  1  0
 97 98  1  0
 95 99  1  0
 99100  1  0
 92101  1  0
101102  1  0
 88103  1  0
103104  2  0
104105  1  0
105106  1  0
106107  2  0
106108  1  0
108109  2  0
109110  1  0
110111  1  0
111112  2  0
109113  1  0
113114  2  0
114115  1  0
115116  2  0
115117  1  0
117118  2  3
118119  1  0
119120  2  0
119121  1  0
121122  2  0
122123  1  0
122124  1  0
124125  2  0
125126  1  0
126127  2  0
127128  1  0
128129  2  3
129130  1  0
130131  3  0
129132  1  0
132133  3  0
 12  2  1  0
 55 18  1  0
 98 56  1  0
112103  1  0
128118  1  0
 11  5  1  0
 27 21  1  0
 34 28  1  0
 54 35  2  0
 65 58  1  0
 97 66  2  0
110105  2  0
127121  1  0
 46 40  1  0
 53 47  1  0
 96 68  2  0
116108  1  0
 94 69  2  0
 74 70  2  0
 93 75  2  0
 91 76  2  0
 90 78  2  0
 87 80  1  0
  1134  1  0
  7135  1  0
  8136  1  0
  9137  1  0
 10138  1  0
 22139  1  0
 23140  1  0
 25141  1  0
 25142  1  0
 25143  1  0
 26144  1  0
 27145  1  0
 29146  1  0
 30147  1  0
 32148  1  0
 32149  1  0
 32150  1  0
 33151  1  0
 34152  1  0
 41153  1  0
 42154  1  0
 44155  1  0
 44156  1  0
 44157  1  0
 45158  1  0
 46159  1  0
 48160  1  0
 49161  1  0
 51162  1  0
 51163  1  0
 51164  1  0
 52165  1  0
 53166  1  0
 59167  1  0
 60168  1  0
 61169  1  0
 63170  1  0
 63171  1  0
 64172  1  0
 64173  1  0
 64174  1  0
 65175  1  0
 81176  1  0
 82177  1  0
 83178  1  0
 85179  1  0
 85180  1  0
 86181  1  0
 86182  1  0
 86183  1  0
 87184  1  0
 99185  1  0
 99186  1  0
100187  1  0
100188  1  0
100189  1  0
101190  1  0
101191  1  0
102192  1  0
102193  1  0
102194  1  0
104195  1  0
111196  1  0
112197  1  0
113198  1  0
114199  1  0
116200  1  0
117201  1  0
123202  1  0
124203  1  0
125204  1  0
126205  1  0
M  END

