
     RDKit          3D

146161  0  0  0  0  0  0  0  0999 V2000
   -4.4313    5.3531   -6.3838 C   0  0  0  0  0  0  0  0  0  0  0  0
   -3.2929    4.7110   -6.7326 C   0  0  0  0  0  0  0  0  0  0  0  0
   -2.3307    4.0581   -7.3090 C   0  0  0  0  0  0  0  0  0  0  0  0
   -1.1086    4.7884   -7.2651 O   0  0  0  0  0  0  0  0  0  0  0  0
   -2.2559    2.8538   -7.9317 C   0  0  0  0  0  0  0  0  0  0  0  0
   -1.1695    2.1023   -8.4628 C   0  0  0  0  0  0  0  0  0  0  0  0
    0.0986    2.6017   -8.5210 O   0  0  0  0  0  0  0  0  0  0  0  0
   -1.3926    0.8291   -8.9177 C   0  0  0  0  0  0  0  0  0  0  0  0
   -2.6458    0.3009   -8.8634 C   0  0  0  0  0  0  0  0  0  0  0  0
   -3.6732    1.1041   -8.3246 C   0  0  0  0  0  0  0  0  0  0  0  0
   -3.4863    2.3760   -7.8603 C   0  0  0  0  0  0  0  0  0  0  0  0
   -4.5302    3.3306   -7.1130 C   0  0  0  0  0  0  0  0  0  0  0  0
   -5.4001    2.9461   -6.7743 C   0  0  0  0  0  0  0  0  0  0  0  0
   -6.4047    3.0888   -5.7288 C   0  0  0  0  0  0  0  0  0  0  0  0
   -7.2993    3.2115   -4.8099 N   0  0  0  0  0  0  0  0  0  0  0  0
   -6.1743    2.0325   -7.7422 C   0  0  0  0  0  0  0  0  0  0  0  0
   -6.8204    1.2442   -8.5767 N   0  0  0  0  0  0  0  0  0  0  0  0
   -4.2890    5.8031   -4.8936 C   0  0  0  0  0  0  0  0  0  0  0  0
   -5.3378    5.6276   -4.0229 C   0  0  0  0  0  0  0  0  0  0  0  0
   -5.0230    5.6336   -2.6809 C   0  0  0  0  0  0  0  0  0  0  0  0
   -6.1996    5.0294   -1.4843 S   0  0  0  0  0  0  0  0  0  0  0  0
   -7.5016    5.9460   -0.8298 C   0  0  0  0  0  0  0  0  0  0  0  0
   -8.3599    5.0114    0.0401 C   0  0  0  0  0  0  0  0  0  0  0  0
   -3.7028    5.8263   -2.3931 C   0  0  0  0  0  0  0  0  0  0  0  0
   -2.9539    6.0003   -3.9207 S   0  0  0  0  0  0  0  0  0  0  0  0
   -3.0322    5.5701   -1.1367 C   0  0  0  0  0  0  0  0  0  0  0  0
   -2.0371    6.1378   -0.4148 C   0  0  0  0  0  0  0  0  0  0  0  0
   -1.5580    7.4180   -1.0193 C   0  0  0  0  0  0  0  0  0  0  0  0
   -0.2939    7.4670   -1.5250 C   0  0  0  0  0  0  0  0  0  0  0  0
    0.0992    8.6131   -2.2585 C   0  0  0  0  0  0  0  0  0  0  0  0
   -0.8122    9.6566   -2.4417 C   0  0  0  0  0  0  0  0  0  0  0  0
   -2.0735    9.5733   -1.9172 C   0  0  0  0  0  0  0  0  0  0  0  0
   -3.1071   10.6622   -2.0280 C   0  0  0  0  0  0  0  0  0  0  0  0
   -3.0818   11.5463   -0.8094 C   0  0  0  0  0  0  0  0  0  0  0  0
   -2.4390    8.4492   -1.2054 C   0  0  0  0  0  0  0  0  0  0  0  0
   -1.5846    5.4571    0.6596 C   0  0  0  0  0  0  0  0  0  0  0  0
   -0.2854    5.4869    1.8584 S   0  0  0  0  0  0  0  0  0  0  0  0
   -0.5656    3.9511    2.6232 C   0  0  0  0  0  0  0  0  0  0  0  0
   -0.0583    2.9745    3.4718 C   0  0  0  0  0  0  0  0  0  0  0  0
    1.0851    2.9131    4.2749 C   0  0  0  0  0  0  0  0  0  0  0  0
    1.4090    1.7292    4.8537 C   0  0  0  0  0  0  0  0  0  0  0  0
    2.4944    1.7621    5.6375 N   0  0  0  0  0  0  0  0  0  0  0  0
    3.0350    3.3301    5.5812 S   0  0  0  0  0  0  0  0  0  0  0  0
    1.8796    3.9474    4.5541 N   0  0  0  0  0  0  0  0  0  0  0  0
    0.5761    0.6135    4.6051 C   0  0  0  0  0  0  0  0  0  0  0  0
    0.9338   -0.7237    4.7479 C   0  0  0  0  0  0  0  0  0  0  0  0
    2.1878   -1.7797    5.2689 S   0  0  0  0  0  0  0  0  0  0  0  0
    1.5570   -3.2657    4.5864 C   0  0  0  0  0  0  0  0  0  0  0  0
    2.0488   -4.5264    4.3257 C   0  0  0  0  0  0  0  0  0  0  0  0
    3.3206   -5.0441    4.9081 C   0  0  0  0  0  0  0  0  0  0  0  0
    4.5432   -4.6583    4.4866 C   0  0  0  0  0  0  0  0  0  0  0  0
    5.7041   -5.1688    5.0774 C   0  0  0  0  0  0  0  0  0  0  0  0
    5.6339   -6.0802    6.1011 C   0  0  0  0  0  0  0  0  0  0  0  0
    4.3650   -6.4992    6.5432 C   0  0  0  0  0  0  0  0  0  0  0  0
    4.2541   -7.4437    7.7221 C   0  0  0  0  0  0  0  0  0  0  0  0
    3.9329   -6.5984    8.9600 C   0  0  0  0  0  0  0  0  0  0  0  0
    3.2629   -5.9855    5.9514 C   0  0  0  0  0  0  0  0  0  0  0  0
    1.3275   -5.2992    3.4957 C   0  0  0  0  0  0  0  0  0  0  0  0
   -0.0203   -4.3017    3.1067 S   0  0  0  0  0  0  0  0  0  0  0  0
    0.4399   -2.8625    4.0403 C   0  0  0  0  0  0  0  0  0  0  0  0
    0.0629   -1.5317    4.0955 C   0  0  0  0  0  0  0  0  0  0  0  0
   -0.8896   -0.6967    3.5107 N   0  0  0  0  0  0  0  0  0  0  0  0
   -0.5450    0.6016    3.8462 C   0  0  0  0  0  0  0  0  0  0  0  0
   -0.8575    1.8640    3.2904 C   0  0  0  0  0  0  0  0  0  0  0  0
   -1.7866    2.2053    2.4124 N   0  0  0  0  0  0  0  0  0  0  0  0
   -1.6280    3.5009    1.9444 C   0  0  0  0  0  0  0  0  0  0  0  0
   -2.1277    4.2769    0.9515 C   0  0  0  0  0  0  0  0  0  0  0  0
   -3.3205    4.0901   -0.2836 S   0  0  0  0  0  0  0  0  0  0  0  0
   -3.0864    1.5032    2.3301 C   0  0  0  0  0  0  0  0  0  0  0  0
   -4.0629    2.5875    3.0173 C   0  0  0  0  0  0  0  0  0  0  0  0
   -1.8324   -1.1553    2.5579 C   0  0  0  0  0  0  0  0  0  0  0  0
   -1.3890   -1.0465    1.1190 C   0  0  0  0  0  0  0  0  0  0  0  0
    1.7555   -6.4651    2.7316 C   0  0  0  0  0  0  0  0  0  0  0  0
    1.5911   -7.6318    2.2819 C   0  0  0  0  0  0  0  0  0  0  0  0
    2.3904   -8.2787    1.3733 C   0  0  0  0  0  0  0  0  0  0  0  0
    1.9858   -9.6729    0.8867 C   0  0  0  0  0  0  0  0  0  0  0  0
    1.2068   -9.5599   -0.4104 C   0  0  0  0  0  0  0  0  0  0  0  0
    3.4497   -7.7149    0.8714 C   0  0  0  0  0  0  0  0  0  0  0  0
    3.5162   -5.9661    1.7010 Se  0  0  0  0  0  2  0  0  0  0  0  0
    4.5688   -7.9809   -0.0775 C   0  0  0  0  0  0  0  0  0  0  0  0
    4.6924   -6.9828   -0.9835 C   0  0  0  0  0  0  0  0  0  0  0  0
    3.8545   -5.7844   -1.1199 C   0  0  0  0  0  0  0  0  0  0  0  0
    2.7269   -5.5516   -0.5877 O   0  0  0  0  0  0  0  0  0  0  0  0
    4.4641   -4.8017   -1.9806 C   0  0  0  0  0  0  0  0  0  0  0  0
    4.0440   -3.5498   -2.3728 C   0  0  0  0  0  0  0  0  0  0  0  0
    2.8409   -2.9712   -1.9508 O   0  0  0  0  0  0  0  0  0  0  0  0
    4.8167   -2.7498   -3.2208 C   0  0  0  0  0  0  0  0  0  0  0  0
    5.9947   -3.2563   -3.6459 C   0  0  0  0  0  0  0  0  0  0  0  0
    6.3976   -4.5377   -3.2285 C   0  0  0  0  0  0  0  0  0  0  0  0
    5.6786   -5.3359   -2.4115 C   0  0  0  0  0  0  0  0  0  0  0  0
    5.8554   -6.6779   -1.8271 C   0  0  0  0  0  0  0  0  0  0  0  0
    6.8639   -7.5285   -2.0545 C   0  0  0  0  0  0  0  0  0  0  0  0
    8.0163   -7.0790   -2.9213 C   0  0  0  0  0  0  0  0  0  0  0  0
    8.8597   -6.7443   -3.5345 N   0  0  0  0  0  0  0  0  0  0  0  0
    6.9244   -8.7328   -1.6061 C   0  0  0  0  0  0  0  0  0  0  0  0
    6.9894   -9.9989   -1.1381 N   0  0  0  0  0  0  0  0  0  0  0  0
   -5.2444    5.5989   -6.9010 H   0  0  0  0  0  0  0  0  0  0  0  0
    0.4341    3.4645   -8.2119 H   0  0  0  0  0  0  0  0  0  0  0  0
   -0.5491    0.2526   -9.3252 H   0  0  0  0  0  0  0  0  0  0  0  0
   -2.8626   -0.6911   -9.2113 H   0  0  0  0  0  0  0  0  0  0  0  0
   -4.6084    0.6030   -8.2600 H   0  0  0  0  0  0  0  0  0  0  0  0
   -6.3594    5.5465   -4.3688 H   0  0  0  0  0  0  0  0  0  0  0  0
   -8.2122    6.3234   -1.5786 H   0  0  0  0  0  0  0  0  0  0  0  0
   -7.1833    6.7734   -0.1500 H   0  0  0  0  0  0  0  0  0  0  0  0
   -8.1863    5.1782    1.1242 H   0  0  0  0  0  0  0  0  0  0  0  0
   -9.4326    5.2934   -0.1103 H   0  0  0  0  0  0  0  0  0  0  0  0
   -8.2533    3.9452   -0.2287 H   0  0  0  0  0  0  0  0  0  0  0  0
    0.4467    6.7041   -1.4419 H   0  0  0  0  0  0  0  0  0  0  0  0
    1.0773    8.6825   -2.7067 H   0  0  0  0  0  0  0  0  0  0  0  0
   -0.5295   10.5239   -3.0189 H   0  0  0  0  0  0  0  0  0  0  0  0
   -2.8857   11.2802   -2.9316 H   0  0  0  0  0  0  0  0  0  0  0  0
   -4.0932   10.1395   -2.1176 H   0  0  0  0  0  0  0  0  0  0  0  0
   -2.0290   11.7117   -0.5451 H   0  0  0  0  0  0  0  0  0  0  0  0
   -3.7064   12.4211   -1.0185 H   0  0  0  0  0  0  0  0  0  0  0  0
   -3.5329   11.0010    0.0526 H   0  0  0  0  0  0  0  0  0  0  0  0
   -3.4172    8.3683   -0.7880 H   0  0  0  0  0  0  0  0  0  0  0  0
    4.6540   -3.9318    3.6829 H   0  0  0  0  0  0  0  0  0  0  0  0
    6.6540   -4.8408    4.7111 H   0  0  0  0  0  0  0  0  0  0  0  0
    6.4635   -6.5446    6.6025 H   0  0  0  0  0  0  0  0  0  0  0  0
    5.2944   -7.9002    7.8583 H   0  0  0  0  0  0  0  0  0  0  0  0
    3.4691   -8.1602    7.5675 H   0  0  0  0  0  0  0  0  0  0  0  0
    2.8259   -6.5401    9.1272 H   0  0  0  0  0  0  0  0  0  0  0  0
    4.2250   -5.5285    8.7282 H   0  0  0  0  0  0  0  0  0  0  0  0
    4.5218   -6.9137    9.8275 H   0  0  0  0  0  0  0  0  0  0  0  0
    2.2954   -6.2987    6.2592 H   0  0  0  0  0  0  0  0  0  0  0  0
   -3.1547    0.7897    3.1626 H   0  0  0  0  0  0  0  0  0  0  0  0
   -3.4617    1.3336    1.3652 H   0  0  0  0  0  0  0  0  0  0  0  0
   -3.4406    3.2013    3.6999 H   0  0  0  0  0  0  0  0  0  0  0  0
   -4.8644    2.0102    3.4804 H   0  0  0  0  0  0  0  0  0  0  0  0
   -4.5019    3.1700    2.2077 H   0  0  0  0  0  0  0  0  0  0  0  0
   -1.8378   -2.3282    2.6857 H   0  0  0  0  0  0  0  0  0  0  0  0
   -2.8755   -0.8871    2.5873 H   0  0  0  0  0  0  0  0  0  0  0  0
   -2.2352   -0.5800    0.5571 H   0  0  0  0  0  0  0  0  0  0  0  0
   -1.1543   -1.9833    0.6188 H   0  0  0  0  0  0  0  0  0  0  0  0
   -0.5555   -0.3112    1.1090 H   0  0  0  0  0  0  0  0  0  0  0  0
    0.6552   -8.1825    2.7045 H   0  0  0  0  0  0  0  0  0  0  0  0
    2.8724  -10.2695    0.6603 H   0  0  0  0  0  0  0  0  0  0  0  0
    1.4365  -10.2348    1.6451 H   0  0  0  0  0  0  0  0  0  0  0  0
    1.3627  -10.4149   -1.0919 H   0  0  0  0  0  0  0  0  0  0  0  0
    0.1029   -9.3954   -0.2342 H   0  0  0  0  0  0  0  0  0  0  0  0
    1.6273   -8.6739   -0.9327 H   0  0  0  0  0  0  0  0  0  0  0  0
    5.1166   -8.8169    0.0508 H   0  0  0  0  0  0  0  0  0  0  0  0
    2.1628   -3.4049   -1.3538 H   0  0  0  0  0  0  0  0  0  0  0  0
    4.4442   -1.7731   -3.4892 H   0  0  0  0  0  0  0  0  0  0  0  0
    6.5999   -2.6850   -4.3020 H   0  0  0  0  0  0  0  0  0  0  0  0
    7.3423   -4.8410   -3.6516 H   0  0  0  0  0  0  0  0  0  0  0  0
  1  2  2  3
  2  3  1  0
  3  4  2  0
  3  5  1  0
  5  6  2  0
  6  7  1  0
  6  8  1  0
  8  9  2  0
  9 10  1  0
 10 11  2  0
 11 12  1  0
 12 13  2  3
 13 14  1  0
 14 15  3  0
 13 16  1  0
 16 17  3  0
  1 18  1  0
 18 19  2  0
 19 20  1  0
 20 21  1  0
 21 22  1  0
 22 23  1  0
 20 24  2  0
 24 25  1  0
 24 26  1  0
 26 27  2  0
 27 28  1  0
 28 29  2  0
 29 30  1  0
 30 31  2  0
 31 32  1  0
 32 33  1  0
 33 34  1  0
 32 35  2  0
 27 36  1  0
 36 37  1  0
 37 38  1  0
 38 39  1  0
 39 40  1  0
 40 41  1  0
 41 42  2  0
 42 43  1  0
 43 44  1  0
 41 45  1  0
 45 46  1  0
 46 47  1  0
 47 48  1  0
 48 49  1  0
 49 50  1  0
 50 51  2  0
 51 52  1  0
 52 53  2  0
 53 54  1  0
 54 55  1  0
 55 56  1  0
 54 57  2  0
 49 58  2  0
 58 59  1  0
 59 60  1  0
 60 61  1  0
 61 62  1  0
 62 63  1  0
 63 64  1  0
 64 65  1  0
 65 66  1  0
 66 67  1  0
 67 68  1  0
 65 69  1  0
 69 70  1  0
 62 71  1  0
 71 72  1  0
 58 73  1  0
 73 74  2  0
 74 75  1  0
 75 76  1  0
 76 77  1  0
 75 78  2  0
 78 79  1  0
 78 80  1  0
 80 81  2  3
 81 82  1  0
 82 83  2  0
 82 84  1  0
 84 85  2  0
 85 86  1  0
 85 87  1  0
 87 88  2  0
 88 89  1  0
 89 90  2  0
 90 91  1  0
 91 92  2  3
 92 93  1  0
 93 94  3  0
 92 95  1  0
 95 96  3  0
 12  2  1  0
 25 18  1  0
 68 26  1  0
 79 73  1  0
 91 81  1  0
 11  5  1  0
 35 28  1  0
 67 36  2  0
 90 84  1  0
 66 38  2  0
 64 39  2  0
 44 40  2  0
 63 45  2  0
 61 46  2  0
 60 48  2  0
 57 50  1  0
  1 97  1  0
  7 98  1  0
  8 99  1  0
  9100  1  0
 10101  1  0
 19102  1  0
 22103  1  0
 22104  1  0
 23105  1  0
 23106  1  0
 23107  1  0
 29108  1  0
 30109  1  0
 31110  1  0
 33111  1  0
 33112  1  0
 34113  1  0
 34114  1  0
 34115  1  0
 35116  1  0
 51117  1  0
 52118  1  0
 53119  1  0
 55120  1  0
 55121  1  0
 56122  1  0
 56123  1  0
 56124  1  0
 57125  1  0
 69126  1  0
 69127  1  0
 70128  1  0
 70129  1  0
 70130  1  0
 71131  1  0
 71132  1  0
 72133  1  0
 72134  1  0
 72135  1  0
 74136  1  0
 76137  1  0
 76138  1  0
 77139  1  0
 77140  1  0
 77141  1  0
 80142  1  0
 86143  1  0
 87144  1  0
 88145  1  0
 89146  1  0
M  END

