
     RDKit          3D

243267  0  0  0  0  0  0  0  0999 V2000
    5.2153  -10.6198   -1.4573 C   0  0  0  0  0  0  0  0  0  0  0  0
    4.4509  -10.6291   -0.3211 C   0  0  0  0  0  0  0  0  0  0  0  0
    4.2191   -9.7575    0.6984 C   0  0  0  0  0  0  0  0  0  0  0  0
    5.0320   -8.9325    1.2207 O   0  0  0  0  0  0  0  0  0  0  0  0
    2.8859   -9.8432    1.1798 C   0  0  0  0  0  0  0  0  0  0  0  0
    1.9700   -9.3580    2.0660 C   0  0  0  0  0  0  0  0  0  0  0  0
    0.8592   -9.3920    2.4963 C   0  0  0  0  0  0  0  0  0  0  0  0
   -0.0011   -8.9330    3.2833 O   0  0  0  0  0  0  0  0  0  0  0  0
   -0.7754   -8.2666    4.1329 C   0  0  0  0  0  0  0  0  0  0  0  0
   -0.0086  -10.6327    1.5428 C   0  0  0  0  0  0  0  0  0  0  0  0
   -1.1881  -10.5127    2.1155 O   0  0  0  0  0  0  0  0  0  0  0  0
   -2.3478  -10.5277    2.4879 C   0  0  0  0  0  0  0  0  0  0  0  0
    0.9560  -10.9821    0.7873 C   0  0  0  0  0  0  0  0  0  0  0  0
    2.1687  -10.9119    0.3693 C   0  0  0  0  0  0  0  0  0  0  0  0
    3.1765  -11.3641   -0.5230 C   0  0  0  0  0  0  0  0  0  0  0  0
    3.0999  -12.6673   -1.1252 C   0  0  0  0  0  0  0  0  0  0  0  0
    4.3387  -13.1059   -1.3758 C   0  0  0  0  0  0  0  0  0  0  0  0
    5.6774  -13.5948   -1.6698 N   0  0  0  0  0  0  0  0  0  0  0  0
    2.0656  -13.3515   -1.4469 C   0  0  0  0  0  0  0  0  0  0  0  0
    0.9831  -14.0603   -1.8060 N   0  0  0  0  0  0  0  0  0  0  0  0
    5.9750   -9.2537   -1.5562 C   0  0  0  0  0  0  0  0  0  0  0  0
    5.3754   -8.5016   -2.5882 C   0  0  0  0  0  0  0  0  0  0  0  0
    5.7973   -7.2639   -2.7758 C   0  0  0  0  0  0  0  0  0  0  0  0
    5.2180   -6.3855   -3.6640 C   0  0  0  0  0  0  0  0  0  0  0  0
    4.0444   -6.5957   -4.4911 C   0  0  0  0  0  0  0  0  0  0  0  0
    2.8569   -7.2449   -4.4628 C   0  0  0  0  0  0  0  0  0  0  0  0
    2.0773   -7.3004   -5.5497 C   0  0  0  0  0  0  0  0  0  0  0  0
    2.2856   -6.7911   -6.7475 C   0  0  0  0  0  0  0  0  0  0  0  0
    1.5845   -6.6960   -8.3186 S   0  0  0  0  0  0  0  0  0  0  0  0
    1.8224   -5.0369   -9.0281 C   0  0  0  0  0  0  0  0  0  0  0  0
    1.0030   -4.0336   -8.2308 C   0  0  0  0  0  0  0  0  0  0  0  0
    4.1046   -5.9450   -6.3214 Se  0  0  0  0  0  2  0  0  0  0  0  0
    5.6935   -5.0759   -3.6865 C   0  0  0  0  0  0  0  0  0  0  0  0
    6.6859   -4.5398   -2.9438 C   0  0  0  0  0  0  0  0  0  0  0  0
    7.2797   -5.4840   -2.0376 C   0  0  0  0  0  0  0  0  0  0  0  0
    8.4205   -5.1530   -1.2116 C   0  0  0  0  0  0  0  0  0  0  0  0
    8.9865   -4.0174   -0.7359 C   0  0  0  0  0  0  0  0  0  0  0  0
   10.1811   -4.0012   -0.1624 C   0  0  0  0  0  0  0  0  0  0  0  0
   10.9558   -5.0813    0.0201 C   0  0  0  0  0  0  0  0  0  0  0  0
   12.5641   -5.2954    0.6795 S   0  0  0  0  0  0  0  0  0  0  0  0
   13.8535   -5.2895   -0.5844 C   0  0  0  0  0  0  0  0  0  0  0  0
   13.8971   -6.5403   -1.4059 C   0  0  0  0  0  0  0  0  0  0  0  0
    9.7915   -6.4258   -0.7794 Se  0  0  0  0  0  2  0  0  0  0  0  0
    6.8029   -6.7933   -1.9820 C   0  0  0  0  0  0  0  0  0  0  0  0
    7.0605   -8.1998   -0.9830 S   0  0  0  0  0  0  0  0  0  0  0  0
    6.8068   -3.1955   -3.0642 C   0  0  0  0  0  0  0  0  0  0  0  0
    5.9588   -2.4995   -3.8413 C   0  0  0  0  0  0  0  0  0  0  0  0
    4.9637   -3.7502   -4.4874 S   0  0  0  0  0  0  0  0  0  0  0  0
    5.5095   -1.1046   -3.9701 C   0  0  0  0  0  0  0  0  0  0  0  0
    5.9731    0.1160   -3.9233 C   0  0  0  0  0  0  0  0  0  0  0  0
    7.4267    0.4000   -3.6925 C   0  0  0  0  0  0  0  0  0  0  0  0
    8.0366    0.1203   -2.5148 C   0  0  0  0  0  0  0  0  0  0  0  0
    9.3994    0.4568   -2.4044 C   0  0  0  0  0  0  0  0  0  0  0  0
   10.0744    1.0532   -3.4284 C   0  0  0  0  0  0  0  0  0  0  0  0
    9.4444    1.3383   -4.6037 C   0  0  0  0  0  0  0  0  0  0  0  0
   10.1473    2.0678   -5.6837 C   0  0  0  0  0  0  0  0  0  0  0  0
   10.0743    3.5635   -5.2649 C   0  0  0  0  0  0  0  0  0  0  0  0
    8.1014    0.9947   -4.7234 C   0  0  0  0  0  0  0  0  0  0  0  0
    5.0844    1.1854   -4.0111 C   0  0  0  0  0  0  0  0  0  0  0  0
    5.1348    2.9224   -3.8897 S   0  0  0  0  0  0  0  0  0  0  0  0
    3.4676    3.2195   -3.9282 C   0  0  0  0  0  0  0  0  0  0  0  0
    2.5132    4.2109   -3.7602 C   0  0  0  0  0  0  0  0  0  0  0  0
    2.6794    5.5575   -3.3978 C   0  0  0  0  0  0  0  0  0  0  0  0
    1.5756    6.2576   -2.9968 C   0  0  0  0  0  0  0  0  0  0  0  0
    1.8091    7.5193   -2.6164 N   0  0  0  0  0  0  0  0  0  0  0  0
    3.4393    7.7514   -2.8171 S   0  0  0  0  0  0  0  0  0  0  0  0
    3.8173    6.2276   -3.3806 N   0  0  0  0  0  0  0  0  0  0  0  0
    0.3571    5.6127   -3.0124 C   0  0  0  0  0  0  0  0  0  0  0  0
   -0.8757    6.0019   -2.4768 C   0  0  0  0  0  0  0  0  0  0  0  0
   -1.5692    7.1741   -1.4522 S   0  0  0  0  0  0  0  0  0  0  0  0
   -3.0347    6.3072   -1.0997 C   0  0  0  0  0  0  0  0  0  0  0  0
   -3.9802    6.4462   -0.0734 C   0  0  0  0  0  0  0  0  0  0  0  0
   -3.9994    7.6787    0.7394 C   0  0  0  0  0  0  0  0  0  0  0  0
   -3.3602    7.6136    1.9536 C   0  0  0  0  0  0  0  0  0  0  0  0
   -3.1986    8.7482    2.7368 C   0  0  0  0  0  0  0  0  0  0  0  0
   -3.6639    9.9447    2.3177 C   0  0  0  0  0  0  0  0  0  0  0  0
   -4.3102   10.0084    1.0776 C   0  0  0  0  0  0  0  0  0  0  0  0
   -4.7716   11.3706    0.6934 C   0  0  0  0  0  0  0  0  0  0  0  0
   -6.1618   11.6465    1.1881 C   0  0  0  0  0  0  0  0  0  0  0  0
   -4.4655    8.8939    0.3151 C   0  0  0  0  0  0  0  0  0  0  0  0
   -4.7334    5.3492    0.1274 C   0  0  0  0  0  0  0  0  0  0  0  0
   -4.1505    4.2508   -1.1028 S   0  0  0  0  0  0  0  0  0  0  0  0
   -2.8970    5.2310   -1.7886 C   0  0  0  0  0  0  0  0  0  0  0  0
   -1.7626    4.9931   -2.5476 C   0  0  0  0  0  0  0  0  0  0  0  0
   -1.0695    3.9427   -3.1725 N   0  0  0  0  0  0  0  0  0  0  0  0
    0.1806    4.2809   -3.4180 C   0  0  0  0  0  0  0  0  0  0  0  0
    1.3228    3.5484   -3.7751 C   0  0  0  0  0  0  0  0  0  0  0  0
    1.5359    2.2065   -3.9394 N   0  0  0  0  0  0  0  0  0  0  0  0
    2.9203    2.0426   -4.0335 C   0  0  0  0  0  0  0  0  0  0  0  0
    3.7760    0.9249   -4.0971 C   0  0  0  0  0  0  0  0  0  0  0  0
    3.7861   -0.7887   -4.1282 S   0  0  0  0  0  0  0  0  0  0  0  0
    0.6446    1.0998   -3.9436 C   0  0  0  0  0  0  0  0  0  0  0  0
    0.2024    0.8406   -5.3528 C   0  0  0  0  0  0  0  0  0  0  0  0
   -1.7930    2.7916   -3.6642 C   0  0  0  0  0  0  0  0  0  0  0  0
   -2.2006    2.9939   -5.1189 C   0  0  0  0  0  0  0  0  0  0  0  0
   -5.3120    4.8008    1.3920 C   0  0  0  0  0  0  0  0  0  0  0  0
   -6.2891    4.4494    2.1603 C   0  0  0  0  0  0  0  0  0  0  0  0
   -7.5765    4.4363    1.4321 N   0  0  0  0  0  0  0  0  0  0  0  0
   -7.4678    3.5500    0.2365 C   0  0  0  0  0  0  0  0  0  0  0  0
   -6.8947    2.3012    0.5089 C   0  0  0  0  0  0  0  0  0  0  0  0
   -6.6637    1.4727   -0.5844 C   0  0  0  0  0  0  0  0  0  0  0  0
   -6.9764    1.8347   -1.8597 C   0  0  0  0  0  0  0  0  0  0  0  0
   -6.7937    0.8760   -3.0132 C   0  0  0  0  0  0  0  0  0  0  0  0
   -7.5375    3.0682   -2.0809 C   0  0  0  0  0  0  0  0  0  0  0  0
   -7.7776    3.9195   -0.9848 C   0  0  0  0  0  0  0  0  0  0  0  0
   -8.8080    4.8852    1.7693 C   0  0  0  0  0  0  0  0  0  0  0  0
   -9.4929    5.7812    0.9246 C   0  0  0  0  0  0  0  0  0  0  0  0
  -10.8104    6.0984    1.0542 C   0  0  0  0  0  0  0  0  0  0  0  0
  -11.5420    5.5134    2.0930 C   0  0  0  0  0  0  0  0  0  0  0  0
  -12.9904    5.8580    2.1943 C   0  0  0  0  0  0  0  0  0  0  0  0
  -10.9060    4.6337    2.9468 C   0  0  0  0  0  0  0  0  0  0  0  0
   -9.5395    4.3235    2.7731 C   0  0  0  0  0  0  0  0  0  0  0  0
   -6.0929    3.8475    3.4196 C   0  0  0  0  0  0  0  0  0  0  0  0
   -6.7342    3.2815    4.9532 S   0  0  0  0  0  0  0  0  0  0  0  0
   -5.3685    2.8135    5.7835 C   0  0  0  0  0  0  0  0  0  0  0  0
   -4.3745    3.0576    4.9083 C   0  0  0  0  0  0  0  0  0  0  0  0
   -2.9524    2.7558    4.7315 N   0  0  0  0  0  0  0  0  0  0  0  0
   -1.9165    3.5493    5.1579 C   0  0  0  0  0  0  0  0  0  0  0  0
   -2.0449    4.9381    5.1924 C   0  0  0  0  0  0  0  0  0  0  0  0
   -0.9688    5.7447    5.3182 C   0  0  0  0  0  0  0  0  0  0  0  0
    0.3130    5.2294    5.4254 C   0  0  0  0  0  0  0  0  0  0  0  0
    1.4842    6.1668    5.4974 C   0  0  0  0  0  0  0  0  0  0  0  0
    0.4792    3.8829    5.4115 C   0  0  0  0  0  0  0  0  0  0  0  0
   -0.6059    3.0366    5.2764 C   0  0  0  0  0  0  0  0  0  0  0  0
   -2.7489    1.6408    3.8327 C   0  0  0  0  0  0  0  0  0  0  0  0
   -1.7734    1.7281    2.8445 C   0  0  0  0  0  0  0  0  0  0  0  0
   -1.7381    0.6931    1.9561 C   0  0  0  0  0  0  0  0  0  0  0  0
   -2.5413   -0.3735    1.9511 C   0  0  0  0  0  0  0  0  0  0  0  0
   -2.4700   -1.5016    1.0039 C   0  0  0  0  0  0  0  0  0  0  0  0
   -3.5516   -0.4803    2.9575 C   0  0  0  0  0  0  0  0  0  0  0  0
   -3.5820    0.5627    3.8468 C   0  0  0  0  0  0  0  0  0  0  0  0
   -4.8362    3.6285    3.6889 C   0  0  0  0  0  0  0  0  0  0  0  0
   -3.9265    4.2448    2.4050 S   0  0  0  0  0  0  0  0  0  0  0  0
   -4.7824    2.4818    7.1505 C   0  0  0  0  0  0  0  0  0  0  0  0
   -4.2728    1.4096    7.5084 C   0  0  0  0  0  0  0  0  0  0  0  0
   -3.9666    0.0425    7.1479 C   0  0  0  0  0  0  0  0  0  0  0  0
   -5.1059   -0.6548    6.8007 O   0  0  0  0  0  0  0  0  0  0  0  0
   -2.7909   -0.4240    7.1668 C   0  0  0  0  0  0  0  0  0  0  0  0
   -2.0302   -1.7104    6.5304 C   0  0  0  0  0  0  0  0  0  0  0  0
   -0.9736   -1.4689    6.5846 C   0  0  0  0  0  0  0  0  0  0  0  0
   -0.1255   -2.6521    5.7543 O   0  0  0  0  0  0  0  0  0  0  0  0
   -0.9673   -3.5295    5.1508 C   0  0  0  0  0  0  0  0  0  0  0  0
    0.2342   -0.7005    6.8762 C   0  0  0  0  0  0  0  0  0  0  0  0
    1.3150   -1.0370    6.5481 O   0  0  0  0  0  0  0  0  0  0  0  0
    2.5106   -1.4090    6.1853 C   0  0  0  0  0  0  0  0  0  0  0  0
   -0.5321    0.4881    7.4845 C   0  0  0  0  0  0  0  0  0  0  0  0
   -1.8708    0.5337    7.5616 C   0  0  0  0  0  0  0  0  0  0  0  0
   -2.7031    1.7569    7.8189 C   0  0  0  0  0  0  0  0  0  0  0  0
   -2.2335    2.8971    8.1889 C   0  0  0  0  0  0  0  0  0  0  0  0
   -3.3488    3.9985    8.3750 C   0  0  0  0  0  0  0  0  0  0  0  0
   -4.2002    4.8691    8.5237 N   0  0  0  0  0  0  0  0  0  0  0  0
   -0.9315    3.1684    8.5297 C   0  0  0  0  0  0  0  0  0  0  0  0
    0.3138    3.4181    8.8740 N   0  0  0  0  0  0  0  0  0  0  0  0
    5.3364  -11.2493   -2.2306 H   0  0  0  0  0  0  0  0  0  0  0  0
    2.6424   -8.5222    2.7502 H   0  0  0  0  0  0  0  0  0  0  0  0
   -0.2123   -7.6068    4.8605 H   0  0  0  0  0  0  0  0  0  0  0  0
   -1.6427   -7.6577    3.7991 H   0  0  0  0  0  0  0  0  0  0  0  0
   -1.2844   -9.0163    4.8715 H   0  0  0  0  0  0  0  0  0  0  0  0
   -2.5832  -10.6460    3.6233 H   0  0  0  0  0  0  0  0  0  0  0  0
   -2.9266   -9.4926    2.3130 H   0  0  0  0  0  0  0  0  0  0  0  0
   -3.1282  -11.2475    2.0745 H   0  0  0  0  0  0  0  0  0  0  0  0
    0.4185  -11.8561    0.0329 H   0  0  0  0  0  0  0  0  0  0  0  0
    4.5949   -9.0104   -3.2077 H   0  0  0  0  0  0  0  0  0  0  0  0
    2.5684   -7.6865   -3.4665 H   0  0  0  0  0  0  0  0  0  0  0  0
    1.0424   -7.8213   -5.3879 H   0  0  0  0  0  0  0  0  0  0  0  0
    1.5357   -5.0215  -10.1015 H   0  0  0  0  0  0  0  0  0  0  0  0
    2.8785   -4.7223   -8.9718 H   0  0  0  0  0  0  0  0  0  0  0  0
    0.8905   -3.0947   -8.8197 H   0  0  0  0  0  0  0  0  0  0  0  0
    0.0414   -4.4786   -7.9729 H   0  0  0  0  0  0  0  0  0  0  0  0
    1.5326   -3.7687   -7.2976 H   0  0  0  0  0  0  0  0  0  0  0  0
    8.3403   -3.0881   -0.7503 H   0  0  0  0  0  0  0  0  0  0  0  0
   10.6405   -3.0008    0.1568 H   0  0  0  0  0  0  0  0  0  0  0  0
   13.6256   -4.4599   -1.3128 H   0  0  0  0  0  0  0  0  0  0  0  0
   14.8157   -5.0539   -0.1456 H   0  0  0  0  0  0  0  0  0  0  0  0
   13.9282   -7.3856   -0.6721 H   0  0  0  0  0  0  0  0  0  0  0  0
   14.8936   -6.5761   -1.9202 H   0  0  0  0  0  0  0  0  0  0  0  0
   13.1278   -6.6527   -2.1570 H   0  0  0  0  0  0  0  0  0  0  0  0
    7.6505   -2.6445   -2.6049 H   0  0  0  0  0  0  0  0  0  0  0  0
    7.5305   -0.3118   -1.6737 H   0  0  0  0  0  0  0  0  0  0  0  0
    9.8666    0.2131   -1.4605 H   0  0  0  0  0  0  0  0  0  0  0  0
   11.1172    1.3219   -3.3441 H   0  0  0  0  0  0  0  0  0  0  0  0
    9.5313    2.0569   -6.6330 H   0  0  0  0  0  0  0  0  0  0  0  0
   11.1801    1.8058   -5.8452 H   0  0  0  0  0  0  0  0  0  0  0  0
    9.1021    3.9989   -5.5272 H   0  0  0  0  0  0  0  0  0  0  0  0
   10.8713    4.1491   -5.7201 H   0  0  0  0  0  0  0  0  0  0  0  0
   10.1511    3.5861   -4.1507 H   0  0  0  0  0  0  0  0  0  0  0  0
    7.6172    1.1996   -5.6544 H   0  0  0  0  0  0  0  0  0  0  0  0
   -2.8856    6.7322    2.3431 H   0  0  0  0  0  0  0  0  0  0  0  0
   -2.7142    8.6582    3.6955 H   0  0  0  0  0  0  0  0  0  0  0  0
   -3.5643   10.8497    2.9136 H   0  0  0  0  0  0  0  0  0  0  0  0
   -4.0950   12.1232    1.2065 H   0  0  0  0  0  0  0  0  0  0  0  0
   -4.6392   11.5839   -0.3801 H   0  0  0  0  0  0  0  0  0  0  0  0
   -6.1391   12.3833    2.0286 H   0  0  0  0  0  0  0  0  0  0  0  0
   -6.7889   12.0693    0.3849 H   0  0  0  0  0  0  0  0  0  0  0  0
   -6.6184   10.7100    1.5678 H   0  0  0  0  0  0  0  0  0  0  0  0
   -4.9442    8.9777   -0.6698 H   0  0  0  0  0  0  0  0  0  0  0  0
    1.2732    0.1096   -3.7413 H   0  0  0  0  0  0  0  0  0  0  0  0
   -0.0176    0.9501   -3.1068 H   0  0  0  0  0  0  0  0  0  0  0  0
    0.3163    1.7839   -5.9781 H   0  0  0  0  0  0  0  0  0  0  0  0
    0.8341    0.1038   -5.9140 H   0  0  0  0  0  0  0  0  0  0  0  0
   -0.8166    0.4241   -5.3933 H   0  0  0  0  0  0  0  0  0  0  0  0
   -2.8579    2.9200   -3.1635 H   0  0  0  0  0  0  0  0  0  0  0  0
   -1.6355    1.8148   -3.3228 H   0  0  0  0  0  0  0  0  0  0  0  0
   -2.5091    2.0700   -5.6201 H   0  0  0  0  0  0  0  0  0  0  0  0
   -1.3742    3.4420   -5.7005 H   0  0  0  0  0  0  0  0  0  0  0  0
   -3.1066    3.6464   -5.1221 H   0  0  0  0  0  0  0  0  0  0  0  0
   -6.6352    2.0211    1.4894 H   0  0  0  0  0  0  0  0  0  0  0  0
   -6.2099    0.5058   -0.3440 H   0  0  0  0  0  0  0  0  0  0  0  0
   -5.9487    0.2037   -2.7978 H   0  0  0  0  0  0  0  0  0  0  0  0
   -7.7389    0.2748   -3.1111 H   0  0  0  0  0  0  0  0  0  0  0  0
   -6.6362    1.4493   -3.9512 H   0  0  0  0  0  0  0  0  0  0  0  0
   -7.7863    3.4000   -3.0720 H   0  0  0  0  0  0  0  0  0  0  0  0
   -8.1669    4.8687   -1.2244 H   0  0  0  0  0  0  0  0  0  0  0  0
   -8.9606    6.3024    0.1263 H   0  0  0  0  0  0  0  0  0  0  0  0
  -11.3339    6.7447    0.3758 H   0  0  0  0  0  0  0  0  0  0  0  0
  -13.1899    6.6383    2.9334 H   0  0  0  0  0  0  0  0  0  0  0  0
  -13.5685    4.9418    2.4145 H   0  0  0  0  0  0  0  0  0  0  0  0
  -13.3671    6.2053    1.1927 H   0  0  0  0  0  0  0  0  0  0  0  0
  -11.4832    4.1904    3.7559 H   0  0  0  0  0  0  0  0  0  0  0  0
   -9.1357    3.5783    3.4330 H   0  0  0  0  0  0  0  0  0  0  0  0
   -3.0822    5.3126    5.1610 H   0  0  0  0  0  0  0  0  0  0  0  0
   -1.1455    6.8281    5.3813 H   0  0  0  0  0  0  0  0  0  0  0  0
    1.3018    7.0639    4.9088 H   0  0  0  0  0  0  0  0  0  0  0  0
    2.3650    5.6487    5.0098 H   0  0  0  0  0  0  0  0  0  0  0  0
    1.8010    6.3313    6.5394 H   0  0  0  0  0  0  0  0  0  0  0  0
    1.5012    3.4817    5.5083 H   0  0  0  0  0  0  0  0  0  0  0  0
   -0.4202    1.9892    5.2224 H   0  0  0  0  0  0  0  0  0  0  0  0
   -1.0955    2.5659    2.7480 H   0  0  0  0  0  0  0  0  0  0  0  0
   -0.9897    0.7967    1.1517 H   0  0  0  0  0  0  0  0  0  0  0  0
   -3.2859   -2.2375    1.1670 H   0  0  0  0  0  0  0  0  0  0  0  0
   -1.5126   -2.0721    1.0944 H   0  0  0  0  0  0  0  0  0  0  0  0
   -2.5621   -1.1311   -0.0296 H   0  0  0  0  0  0  0  0  0  0  0  0
   -4.1951   -1.2936    2.9279 H   0  0  0  0  0  0  0  0  0  0  0  0
   -4.4096    0.5066    4.5733 H   0  0  0  0  0  0  0  0  0  0  0  0
   -5.1324    3.2046    7.8765 H   0  0  0  0  0  0  0  0  0  0  0  0
   -2.8580   -2.3614    6.2876 H   0  0  0  0  0  0  0  0  0  0  0  0
   -1.5516   -2.9697    4.3190 H   0  0  0  0  0  0  0  0  0  0  0  0
   -0.3139   -4.2251    4.5134 H   0  0  0  0  0  0  0  0  0  0  0  0
   -1.6699   -4.0961    5.7380 H   0  0  0  0  0  0  0  0  0  0  0  0
    3.0524   -2.1088    6.9459 H   0  0  0  0  0  0  0  0  0  0  0  0
    2.4541   -2.1047    5.2866 H   0  0  0  0  0  0  0  0  0  0  0  0
    3.2639   -0.6130    5.9543 H   0  0  0  0  0  0  0  0  0  0  0  0
    0.2010    1.1796    7.7998 H   0  0  0  0  0  0  0  0  0  0  0  0
  1  2  2  3
  2  3  1  0
  3  4  2  0
  3  5  1  0
  5  6  2  0
  6  7  1  0
  7  8  1  0
  8  9  1  0
  7 10  2  0
 10 11  1  0
 11 12  1  0
 10 13  1  0
 13 14  2  0
 14 15  1  0
 15 16  2  3
 16 17  1  0
 17 18  3  0
 16 19  1  0
 19 20  3  0
  1 21  1  0
 21 22  2  0
 22 23  1  0
 23 24  2  0
 24 25  1  0
 25 26  2  0
 26 27  1  0
 27 28  2  0
 28 29  1  0
 29 30  1  0
 30 31  1  0
 28 32  1  0
 24 33  1  0
 33 34  2  0
 34 35  1  0
 35 36  1  0
 36 37  2  0
 37 38  1  0
 38 39  2  0
 39 40  1  0
 40 41  1  0
 41 42  1  0
 39 43  1  0
 35 44  2  0
 44 45  1  0
 34 46  1  0
 46 47  2  0
 47 48  1  0
 47 49  1  0
 49 50  2  0
 50 51  1  0
 51 52  2  0
 52 53  1  0
 53 54  2  0
 54 55  1  0
 55 56  1  0
 56 57  1  0
 55 58  2  0
 50 59  1  0
 59 60  1  0
 60 61  1  0
 61 62  1  0
 62 63  1  0
 63 64  1  0
 64 65  2  0
 65 66  1  0
 66 67  1  0
 64 68  1  0
 68 69  1  0
 69 70  1  0
 70 71  1  0
 71 72  1  0
 72 73  1  0
 73 74  2  0
 74 75  1  0
 75 76  2  0
 76 77  1  0
 77 78  1  0
 78 79  1  0
 77 80  2  0
 72 81  2  0
 81 82  1  0
 82 83  1  0
 83 84  1  0
 84 85  1  0
 85 86  1  0
 86 87  1  0
 87 88  1  0
 88 89  1  0
 89 90  1  0
 90 91  1  0
 88 92  1  0
 92 93  1  0
 85 94  1  0
 94 95  1  0
 81 96  1  0
 96 97  2  0
 97 98  1  0
 98 99  1  0
 99100  2  0
100101  1  0
101102  2  0
102103  1  0
102104  1  0
104105  2  0
 98106  1  0
106107  2  0
107108  1  0
108109  2  0
109110  1  0
109111  1  0
111112  2  0
 97113  1  0
113114  1  0
114115  1  0
115116  2  0
116117  1  0
117118  1  0
118119  2  0
119120  1  0
120121  2  0
121122  1  0
121123  1  0
123124  2  0
117125  1  0
125126  2  0
126127  1  0
127128  2  0
128129  1  0
128130  1  0
130131  2  0
116132  1  0
132133  1  0
115134  1  0
134135  2  3
135136  1  0
136137  2  0
136138  1  0
138139  2  0
139140  1  0
140141  1  0
141142  1  0
140143  2  0
143144  1  0
144145  1  0
143146  1  0
146147  2  0
147148  1  0
148149  2  3
149150  1  0
150151  3  0
149152  1  0
152153  3  0
 15  2  1  0
 45 21  1  0
 91 49  1  0
133 96  1  0
148135  1  0
 14  5  1  0
 44 23  1  0
 58 51  1  0
 90 59  2  0
105 99  1  0
112106  1  0
132113  2  0
147138  1  0
 32 25  1  0
 48 33  1  0
 89 61  2  0
124118  1  0
131125  1  0
 43 36  1  0
 87 62  2  0
 67 63  2  0
 86 68  2  0
 84 69  2  0
 83 71  2  0
 80 73  1  0
  1154  1  0
  6155  1  0
  9156  1  0
  9157  1  0
  9158  1  0
 12159  1  0
 12160  1  0
 12161  1  0
 13162  1  0
 22163  1  0
 26164  1  0
 27165  1  0
 30166  1  0
 30167  1  0
 31168  1  0
 31169  1  0
 31170  1  0
 37171  1  0
 38172  1  0
 41173  1  0
 41174  1  0
 42175  1  0
 42176  1  0
 42177  1  0
 46178  1  0
 52179  1  0
 53180  1  0
 54181  1  0
 56182  1  0
 56183  1  0
 57184  1  0
 57185  1  0
 57186  1  0
 58187  1  0
 74188  1  0
 75189  1  0
 76190  1  0
 78191  1  0
 78192  1  0
 79193  1  0
 79194  1  0
 79195  1  0
 80196  1  0
 92197  1  0
 92198  1  0
 93199  1  0
 93200  1  0
 93201  1  0
 94202  1  0
 94203  1  0
 95204  1  0
 95205  1  0
 95206  1  0
100207  1  0
101208  1  0
103209  1  0
103210  1  0
103211  1  0
104212  1  0
105213  1  0
107214  1  0
108215  1  0
110216  1  0
110217  1  0
110218  1  0
111219  1  0
112220  1  0
119221  1  0
120222  1  0
122223  1  0
122224  1  0
122225  1  0
123226  1  0
124227  1  0
126228  1  0
127229  1  0
129230  1  0
129231  1  0
129232  1  0
130233  1  0
131234  1  0
134235  1  0
139236  1  0
142237  1  0
142238  1  0
142239  1  0
145240  1  0
145241  1  0
145242  1  0
146243  1  0
M  END

