
     RDKit          3D

257282  0  0  0  0  0  0  0  0999 V2000
    2.0733   10.8443   -5.2353 C   0  0  0  0  0  0  0  0  0  0  0  0
    0.8886   10.6733   -5.8543 C   0  0  0  0  0  0  0  0  0  0  0  0
    0.4817   11.4269   -7.0444 C   0  0  0  0  0  0  0  0  0  0  0  0
    1.0594   12.4625   -7.4971 O   0  0  0  0  0  0  0  0  0  0  0  0
   -0.6102   10.7196   -7.6893 C   0  0  0  0  0  0  0  0  0  0  0  0
   -1.2879   11.0556   -8.8611 C   0  0  0  0  0  0  0  0  0  0  0  0
   -2.2735   10.1784   -9.3399 C   0  0  0  0  0  0  0  0  0  0  0  0
   -2.9387   10.4719  -10.5304 O   0  0  0  0  0  0  0  0  0  0  0  0
   -3.8618   11.5514  -10.6290 C   0  0  0  0  0  0  0  0  0  0  0  0
   -2.5368    8.9700   -8.6541 C   0  0  0  0  0  0  0  0  0  0  0  0
   -3.4416    8.0328   -9.1724 O   0  0  0  0  0  0  0  0  0  0  0  0
   -4.8468    8.2513   -9.2479 C   0  0  0  0  0  0  0  0  0  0  0  0
   -1.8401    8.6571   -7.4742 C   0  0  0  0  0  0  0  0  0  0  0  0
   -0.9019    9.5690   -6.9730 C   0  0  0  0  0  0  0  0  0  0  0  0
   -0.1062    9.5550   -5.7098 C   0  0  0  0  0  0  0  0  0  0  0  0
   -0.5193    9.0027   -4.5432 C   0  0  0  0  0  0  0  0  0  0  0  0
   -0.1672    9.5633   -3.2649 C   0  0  0  0  0  0  0  0  0  0  0  0
    0.0863   10.0020   -2.2256 N   0  0  0  0  0  0  0  0  0  0  0  0
   -1.4844    7.9431   -4.4823 C   0  0  0  0  0  0  0  0  0  0  0  0
   -2.2611    7.0863   -4.4215 N   0  0  0  0  0  0  0  0  0  0  0  0
    2.6770    9.8223   -4.3704 C   0  0  0  0  0  0  0  0  0  0  0  0
    3.0964   10.0279   -3.0432 C   0  0  0  0  0  0  0  0  0  0  0  0
    3.4251   11.3059   -2.4714 N   0  0  0  0  0  0  0  0  0  0  0  0
    2.4581   11.9075   -1.5979 C   0  0  0  0  0  0  0  0  0  0  0  0
    2.4958   11.6378   -0.2208 C   0  0  0  0  0  0  0  0  0  0  0  0
    1.6043   12.2628    0.6483 C   0  0  0  0  0  0  0  0  0  0  0  0
    0.6715   13.1857    0.1500 C   0  0  0  0  0  0  0  0  0  0  0  0
   -0.2255   13.9142    1.1072 C   0  0  0  0  0  0  0  0  0  0  0  0
    0.6725   13.4961   -1.2202 C   0  0  0  0  0  0  0  0  0  0  0  0
    1.5497   12.8476   -2.0937 C   0  0  0  0  0  0  0  0  0  0  0  0
    4.8147   11.7206   -2.4119 C   0  0  0  0  0  0  0  0  0  0  0  0
    5.2231   12.7816   -1.5713 C   0  0  0  0  0  0  0  0  0  0  0  0
    6.5765   13.0985   -1.4329 C   0  0  0  0  0  0  0  0  0  0  0  0
    7.5485   12.3971   -2.1544 C   0  0  0  0  0  0  0  0  0  0  0  0
    9.0068   12.6791   -1.9446 C   0  0  0  0  0  0  0  0  0  0  0  0
    7.1542   11.3818   -3.0344 C   0  0  0  0  0  0  0  0  0  0  0  0
    5.8017   11.0551   -3.1717 C   0  0  0  0  0  0  0  0  0  0  0  0
    3.3045    8.8140   -2.3940 C   0  0  0  0  0  0  0  0  0  0  0  0
    3.2825    8.3884   -0.7806 S   0  0  0  0  0  0  0  0  0  0  0  0
    3.0892    6.7195   -1.0629 C   0  0  0  0  0  0  0  0  0  0  0  0
    3.1094    6.5018   -2.4558 C   0  0  0  0  0  0  0  0  0  0  0  0
    3.3441    5.2171   -3.0628 N   0  0  0  0  0  0  0  0  0  0  0  0
    4.4822    4.4568   -2.5974 C   0  0  0  0  0  0  0  0  0  0  0  0
    5.6502    5.1167   -2.1671 C   0  0  0  0  0  0  0  0  0  0  0  0
    6.7171    4.4024   -1.6224 C   0  0  0  0  0  0  0  0  0  0  0  0
    6.6352    3.0089   -1.4906 C   0  0  0  0  0  0  0  0  0  0  0  0
    7.7768    2.2438   -0.8853 C   0  0  0  0  0  0  0  0  0  0  0  0
    5.4978    2.3408   -1.9747 C   0  0  0  0  0  0  0  0  0  0  0  0
    4.4273    3.0575   -2.5214 C   0  0  0  0  0  0  0  0  0  0  0  0
    2.5973    4.8443   -4.2354 C   0  0  0  0  0  0  0  0  0  0  0  0
    3.2459    4.3319   -5.3729 C   0  0  0  0  0  0  0  0  0  0  0  0
    2.5394    4.1288   -6.5628 C   0  0  0  0  0  0  0  0  0  0  0  0
    1.1715    4.4254   -6.6322 C   0  0  0  0  0  0  0  0  0  0  0  0
    0.4208    4.2559   -7.9214 C   0  0  0  0  0  0  0  0  0  0  0  0
    0.5054    4.8632   -5.4785 C   0  0  0  0  0  0  0  0  0  0  0  0
    1.2110    5.0840   -4.2936 C   0  0  0  0  0  0  0  0  0  0  0  0
    3.1676    7.7034   -3.1594 C   0  0  0  0  0  0  0  0  0  0  0  0
    2.7057    8.1435   -4.7124 S   0  0  0  0  0  0  0  0  0  0  0  0
    2.3579    5.8301   -0.1265 C   0  0  0  0  0  0  0  0  0  0  0  0
    1.9045    6.2061    1.1541 C   0  0  0  0  0  0  0  0  0  0  0  0
    2.5325    7.1978    2.0470 C   0  0  0  0  0  0  0  0  0  0  0  0
    1.8133    8.3213    2.4760 C   0  0  0  0  0  0  0  0  0  0  0  0
    2.3541    9.1727    3.4436 C   0  0  0  0  0  0  0  0  0  0  0  0
    3.5977    8.8842    4.0104 C   0  0  0  0  0  0  0  0  0  0  0  0
    4.3272    7.7637    3.5899 C   0  0  0  0  0  0  0  0  0  0  0  0
    5.6124    7.3899    4.2796 C   0  0  0  0  0  0  0  0  0  0  0  0
    5.3439    6.4446    5.4475 C   0  0  0  0  0  0  0  0  0  0  0  0
    3.7938    6.9258    2.5997 C   0  0  0  0  0  0  0  0  0  0  0  0
    0.8298    5.4205    1.5655 C   0  0  0  0  0  0  0  0  0  0  0  0
   -0.0921    5.3762    2.9885 S   0  0  0  0  0  0  0  0  0  0  0  0
   -1.0084    4.0821    2.3893 C   0  0  0  0  0  0  0  0  0  0  0  0
   -1.6680    3.0490    2.9759 C   0  0  0  0  0  0  0  0  0  0  0  0
   -1.8591    2.8052    4.3458 C   0  0  0  0  0  0  0  0  0  0  0  0
   -2.0902    1.4646    4.7791 C   0  0  0  0  0  0  0  0  0  0  0  0
   -2.1953    1.2536    6.1157 N   0  0  0  0  0  0  0  0  0  0  0  0
   -1.9646    2.8064    6.6536 S   0  0  0  0  0  0  0  0  0  0  0  0
   -1.7328    3.7512    5.3092 N   0  0  0  0  0  0  0  0  0  0  0  0
   -2.1879    0.4679    3.8102 C   0  0  0  0  0  0  0  0  0  0  0  0
   -2.3089   -0.8845    3.9106 C   0  0  0  0  0  0  0  0  0  0  0  0
   -2.0992   -2.0840    5.0816 S   0  0  0  0  0  0  0  0  0  0  0  0
   -2.2140   -3.2813    3.8691 C   0  0  0  0  0  0  0  0  0  0  0  0
   -2.0565   -4.6659    3.8975 C   0  0  0  0  0  0  0  0  0  0  0  0
   -1.5494   -5.3512    5.0992 C   0  0  0  0  0  0  0  0  0  0  0  0
   -0.3542   -4.8967    5.6712 C   0  0  0  0  0  0  0  0  0  0  0  0
    0.0703   -5.3773    6.9059 C   0  0  0  0  0  0  0  0  0  0  0  0
   -0.6918   -6.3307    7.5786 C   0  0  0  0  0  0  0  0  0  0  0  0
   -1.8756   -6.8235    7.0116 C   0  0  0  0  0  0  0  0  0  0  0  0
   -2.7195   -7.7916    7.8083 C   0  0  0  0  0  0  0  0  0  0  0  0
   -3.5002   -7.0314    8.8792 C   0  0  0  0  0  0  0  0  0  0  0  0
   -2.3064   -6.3370    5.7619 C   0  0  0  0  0  0  0  0  0  0  0  0
   -2.2629   -5.2184    2.6212 C   0  0  0  0  0  0  0  0  0  0  0  0
   -2.5389   -3.9656    1.4888 S   0  0  0  0  0  0  0  0  0  0  0  0
   -2.4321   -2.7486    2.6308 C   0  0  0  0  0  0  0  0  0  0  0  0
   -2.4346   -1.3716    2.6553 C   0  0  0  0  0  0  0  0  0  0  0  0
   -2.3505   -0.4071    1.7058 N   0  0  0  0  0  0  0  0  0  0  0  0
   -2.1111    0.7280    2.4363 C   0  0  0  0  0  0  0  0  0  0  0  0
   -1.6880    2.0127    2.0196 C   0  0  0  0  0  0  0  0  0  0  0  0
   -0.9100    2.3410    0.9380 N   0  0  0  0  0  0  0  0  0  0  0  0
   -0.5769    3.6405    1.1789 C   0  0  0  0  0  0  0  0  0  0  0  0
    0.4756    4.4171    0.7072 C   0  0  0  0  0  0  0  0  0  0  0  0
    1.4438    4.4798   -0.6566 S   0  0  0  0  0  0  0  0  0  0  0  0
   -0.0056    1.4191    0.2236 C   0  0  0  0  0  0  0  0  0  0  0  0
    1.1724    1.0110    1.1065 C   0  0  0  0  0  0  0  0  0  0  0  0
   -2.7897   -0.5252    0.3104 C   0  0  0  0  0  0  0  0  0  0  0  0
   -4.2609   -0.9380    0.2119 C   0  0  0  0  0  0  0  0  0  0  0  0
   -2.4350   -6.6383    2.2911 C   0  0  0  0  0  0  0  0  0  0  0  0
   -1.4439   -7.6347    2.2746 C   0  0  0  0  0  0  0  0  0  0  0  0
   -0.0467   -7.4315    2.5556 N   0  0  0  0  0  0  0  0  0  0  0  0
    0.4726   -7.7665    3.8677 C   0  0  0  0  0  0  0  0  0  0  0  0
   -0.1632   -8.7330    4.6699 C   0  0  0  0  0  0  0  0  0  0  0  0
    0.3745   -9.0872    5.9120 C   0  0  0  0  0  0  0  0  0  0  0  0
    1.5713   -8.5198    6.3600 C   0  0  0  0  0  0  0  0  0  0  0  0
    2.0999   -8.8615    7.7197 C   0  0  0  0  0  0  0  0  0  0  0  0
    2.1988   -7.5428    5.5782 C   0  0  0  0  0  0  0  0  0  0  0  0
    1.6493   -7.1669    4.3458 C   0  0  0  0  0  0  0  0  0  0  0  0
    0.8328   -7.1828    1.4337 C   0  0  0  0  0  0  0  0  0  0  0  0
    2.0955   -7.7917    1.3559 C   0  0  0  0  0  0  0  0  0  0  0  0
    2.9523   -7.5475    0.2858 C   0  0  0  0  0  0  0  0  0  0  0  0
    2.5466   -6.7252   -0.7740 C   0  0  0  0  0  0  0  0  0  0  0  0
    3.4475   -6.4828   -1.9475 C   0  0  0  0  0  0  0  0  0  0  0  0
    1.2594   -6.1682   -0.7421 C   0  0  0  0  0  0  0  0  0  0  0  0
    0.4064   -6.3937    0.3447 C   0  0  0  0  0  0  0  0  0  0  0  0
   -1.9263   -8.8085    1.6966 C   0  0  0  0  0  0  0  0  0  0  0  0
   -1.2374  -10.2856    1.3066 S   0  0  0  0  0  0  0  0  0  0  0  0
   -2.6594  -10.8833    0.5793 C   0  0  0  0  0  0  0  0  0  0  0  0
   -3.6710   -9.9079    0.6256 C   0  0  0  0  0  0  0  0  0  0  0  0
   -5.0044  -10.0656    0.1082 N   0  0  0  0  0  0  0  0  0  0  0  0
   -6.0210  -10.4465    1.0459 C   0  0  0  0  0  0  0  0  0  0  0  0
   -6.1972  -11.7930    1.3918 C   0  0  0  0  0  0  0  0  0  0  0  0
   -7.2206  -12.1633    2.2690 C   0  0  0  0  0  0  0  0  0  0  0  0
   -8.0929  -11.1967    2.7896 C   0  0  0  0  0  0  0  0  0  0  0  0
   -9.1889  -11.6062    3.7253 C   0  0  0  0  0  0  0  0  0  0  0  0
   -7.9076   -9.8485    2.4483 C   0  0  0  0  0  0  0  0  0  0  0  0
   -6.8777   -9.4765    1.5830 C   0  0  0  0  0  0  0  0  0  0  0  0
   -5.3648   -9.5759   -1.2063 C   0  0  0  0  0  0  0  0  0  0  0  0
   -6.6084   -9.9128   -1.7736 C   0  0  0  0  0  0  0  0  0  0  0  0
   -6.9848   -9.4152   -3.0219 C   0  0  0  0  0  0  0  0  0  0  0  0
   -6.1189   -8.5850   -3.7411 C   0  0  0  0  0  0  0  0  0  0  0  0
   -6.5569   -8.0162   -5.0585 C   0  0  0  0  0  0  0  0  0  0  0  0
   -4.8763   -8.2456   -3.1868 C   0  0  0  0  0  0  0  0  0  0  0  0
   -4.4973   -8.7388   -1.9355 C   0  0  0  0  0  0  0  0  0  0  0  0
   -3.2191   -8.7668    1.2765 C   0  0  0  0  0  0  0  0  0  0  0  0
   -3.8572   -7.2487    1.5710 S   0  0  0  0  0  0  0  0  0  0  0  0
   -2.7653  -12.2445    0.0394 C   0  0  0  0  0  0  0  0  0  0  0  0
   -2.6691  -13.3220    0.8457 C   0  0  0  0  0  0  0  0  0  0  0  0
   -2.7943  -13.2584    2.3066 C   0  0  0  0  0  0  0  0  0  0  0  0
   -3.3647  -12.3320    2.9502 O   0  0  0  0  0  0  0  0  0  0  0  0
   -2.3114  -14.4935    2.8747 C   0  0  0  0  0  0  0  0  0  0  0  0
   -1.9563  -15.3568    1.8470 C   0  0  0  0  0  0  0  0  0  0  0  0
   -1.5257  -16.6600    2.1585 C   0  0  0  0  0  0  0  0  0  0  0  0
   -1.3997  -17.0393    3.5012 C   0  0  0  0  0  0  0  0  0  0  0  0
   -1.7211  -16.1439    4.5353 C   0  0  0  0  0  0  0  0  0  0  0  0
   -1.5015  -16.7179    6.3436 Br  0  0  0  0  0  0  0  0  0  0  0  0
   -2.2033  -14.8552    4.2246 C   0  0  0  0  0  0  0  0  0  0  0  0
   -2.6731  -13.7343    5.5070 Cl  0  0  0  0  0  0  0  0  0  0  0  0
   -2.1778  -14.7013    0.5218 C   0  0  0  0  0  0  0  0  0  0  0  0
   -1.8900  -15.2113   -0.7046 C   0  0  0  0  0  0  0  0  0  0  0  0
   -1.0436  -16.3678   -0.8713 C   0  0  0  0  0  0  0  0  0  0  0  0
   -0.3364  -17.2779   -1.0105 N   0  0  0  0  0  0  0  0  0  0  0  0
   -2.2878  -14.5845   -1.9309 C   0  0  0  0  0  0  0  0  0  0  0  0
   -2.6030  -14.0941   -2.9374 N   0  0  0  0  0  0  0  0  0  0  0  0
    2.6564   11.7265   -5.4438 H   0  0  0  0  0  0  0  0  0  0  0  0
   -1.0376   11.9499   -9.4115 H   0  0  0  0  0  0  0  0  0  0  0  0
   -3.4338   12.4815  -10.2047 H   0  0  0  0  0  0  0  0  0  0  0  0
   -4.7787   11.2796  -10.0689 H   0  0  0  0  0  0  0  0  0  0  0  0
   -4.1339   11.7123  -11.6917 H   0  0  0  0  0  0  0  0  0  0  0  0
   -5.1636    8.2602  -10.3127 H   0  0  0  0  0  0  0  0  0  0  0  0
   -5.3868    7.4087   -8.7657 H   0  0  0  0  0  0  0  0  0  0  0  0
   -5.1459    9.2061   -8.7574 H   0  0  0  0  0  0  0  0  0  0  0  0
   -2.0160    7.7093   -6.9941 H   0  0  0  0  0  0  0  0  0  0  0  0
    3.2595   10.9845    0.1877 H   0  0  0  0  0  0  0  0  0  0  0  0
    1.6694   12.0592    1.7146 H   0  0  0  0  0  0  0  0  0  0  0  0
   -0.6399   13.2048    1.8537 H   0  0  0  0  0  0  0  0  0  0  0  0
   -1.0683   14.3921    0.5741 H   0  0  0  0  0  0  0  0  0  0  0  0
    0.3664   14.6884    1.6396 H   0  0  0  0  0  0  0  0  0  0  0  0
    0.0122   14.2581   -1.6088 H   0  0  0  0  0  0  0  0  0  0  0  0
    1.5598   13.1055   -3.1458 H   0  0  0  0  0  0  0  0  0  0  0  0
    4.5111   13.3602   -0.9964 H   0  0  0  0  0  0  0  0  0  0  0  0
    6.8649   13.8925   -0.7554 H   0  0  0  0  0  0  0  0  0  0  0  0
    9.5372   12.6994   -2.9173 H   0  0  0  0  0  0  0  0  0  0  0  0
    9.4436   11.8848   -1.3029 H   0  0  0  0  0  0  0  0  0  0  0  0
    9.1588   13.6595   -1.4444 H   0  0  0  0  0  0  0  0  0  0  0  0
    7.8910   10.8298   -3.6039 H   0  0  0  0  0  0  0  0  0  0  0  0
    5.5345   10.2648   -3.8594 H   0  0  0  0  0  0  0  0  0  0  0  0
    5.7365    6.1932   -2.2447 H   0  0  0  0  0  0  0  0  0  0  0  0
    7.5949    4.9421   -1.2874 H   0  0  0  0  0  0  0  0  0  0  0  0
    7.4018    1.3431   -0.3526 H   0  0  0  0  0  0  0  0  0  0  0  0
    8.4774    1.9268   -1.6854 H   0  0  0  0  0  0  0  0  0  0  0  0
    8.3262    2.8709   -0.1505 H   0  0  0  0  0  0  0  0  0  0  0  0
    5.4312    1.2627   -1.9060 H   0  0  0  0  0  0  0  0  0  0  0  0
    3.5479    2.5296   -2.8597 H   0  0  0  0  0  0  0  0  0  0  0  0
    4.3132    4.1532   -5.3605 H   0  0  0  0  0  0  0  0  0  0  0  0
    3.0685    3.7753   -7.4387 H   0  0  0  0  0  0  0  0  0  0  0  0
    1.0816    4.4789   -8.7858 H   0  0  0  0  0  0  0  0  0  0  0  0
   -0.4396    4.9594   -7.9659 H   0  0  0  0  0  0  0  0  0  0  0  0
    0.0415    3.2167   -8.0051 H   0  0  0  0  0  0  0  0  0  0  0  0
   -0.5548    5.0681   -5.5050 H   0  0  0  0  0  0  0  0  0  0  0  0
    0.6881    5.4809   -3.4331 H   0  0  0  0  0  0  0  0  0  0  0  0
    0.8243    8.5277    2.0721 H   0  0  0  0  0  0  0  0  0  0  0  0
    1.7879   10.0343    3.7769 H   0  0  0  0  0  0  0  0  0  0  0  0
    3.9742    9.5202    4.8019 H   0  0  0  0  0  0  0  0  0  0  0  0
    6.1220    8.3018    4.6591 H   0  0  0  0  0  0  0  0  0  0  0  0
    6.2991    6.8972    3.5584 H   0  0  0  0  0  0  0  0  0  0  0  0
    6.3056    6.1434    5.9080 H   0  0  0  0  0  0  0  0  0  0  0  0
    4.8166    5.5302    5.0956 H   0  0  0  0  0  0  0  0  0  0  0  0
    4.7198    6.9475    6.2179 H   0  0  0  0  0  0  0  0  0  0  0  0
    4.3297    6.0336    2.2956 H   0  0  0  0  0  0  0  0  0  0  0  0
    0.2415   -4.1494    5.1724 H   0  0  0  0  0  0  0  0  0  0  0  0
    0.9817   -5.0115    7.3498 H   0  0  0  0  0  0  0  0  0  0  0  0
   -0.3623   -6.6765    8.5522 H   0  0  0  0  0  0  0  0  0  0  0  0
   -2.0651   -8.5478    8.2825 H   0  0  0  0  0  0  0  0  0  0  0  0
   -3.4270   -8.3366    7.1441 H   0  0  0  0  0  0  0  0  0  0  0  0
   -2.8127   -6.3805    9.4617 H   0  0  0  0  0  0  0  0  0  0  0  0
   -4.0033   -7.7412    9.5666 H   0  0  0  0  0  0  0  0  0  0  0  0
   -4.2672   -6.3904    8.3930 H   0  0  0  0  0  0  0  0  0  0  0  0
   -3.2426   -6.6908    5.3352 H   0  0  0  0  0  0  0  0  0  0  0  0
    0.3675    1.8960   -0.7038 H   0  0  0  0  0  0  0  0  0  0  0  0
   -0.5102    0.4995   -0.1025 H   0  0  0  0  0  0  0  0  0  0  0  0
    0.8171    0.4017    1.9644 H   0  0  0  0  0  0  0  0  0  0  0  0
    1.6985    1.9141    1.4932 H   0  0  0  0  0  0  0  0  0  0  0  0
    1.8971    0.4111    0.5159 H   0  0  0  0  0  0  0  0  0  0  0  0
   -2.1496   -1.2778   -0.2012 H   0  0  0  0  0  0  0  0  0  0  0  0
   -2.6774    0.4519   -0.2116 H   0  0  0  0  0  0  0  0  0  0  0  0
   -4.6809   -1.2341    1.1974 H   0  0  0  0  0  0  0  0  0  0  0  0
   -4.8715   -0.0963   -0.1732 H   0  0  0  0  0  0  0  0  0  0  0  0
   -4.3599   -1.7892   -0.4964 H   0  0  0  0  0  0  0  0  0  0  0  0
   -1.0816   -9.2081    4.3603 H   0  0  0  0  0  0  0  0  0  0  0  0
   -0.1681   -9.7856    6.5297 H   0  0  0  0  0  0  0  0  0  0  0  0
    3.1995   -8.7080    7.7588 H   0  0  0  0  0  0  0  0  0  0  0  0
    1.8924   -9.9266    7.9648 H   0  0  0  0  0  0  0  0  0  0  0  0
    1.6201   -8.2141    8.4864 H   0  0  0  0  0  0  0  0  0  0  0  0
    3.0972   -7.0558    5.9251 H   0  0  0  0  0  0  0  0  0  0  0  0
    2.1389   -6.3944    3.7687 H   0  0  0  0  0  0  0  0  0  0  0  0
    2.4425   -8.4554    2.1346 H   0  0  0  0  0  0  0  0  0  0  0  0
    3.9335   -8.0047    0.2874 H   0  0  0  0  0  0  0  0  0  0  0  0
    4.4937   -6.7873   -1.7251 H   0  0  0  0  0  0  0  0  0  0  0  0
    3.4479   -5.4046   -2.2105 H   0  0  0  0  0  0  0  0  0  0  0  0
    3.0847   -7.0700   -2.8167 H   0  0  0  0  0  0  0  0  0  0  0  0
    0.9194   -5.5484   -1.5518 H   0  0  0  0  0  0  0  0  0  0  0  0
   -0.5757   -5.9416    0.3336 H   0  0  0  0  0  0  0  0  0  0  0  0
   -5.5629  -12.5532    0.9513 H   0  0  0  0  0  0  0  0  0  0  0  0
   -7.3500  -13.2124    2.5158 H   0  0  0  0  0  0  0  0  0  0  0  0
   -8.7594  -11.8026    4.7298 H   0  0  0  0  0  0  0  0  0  0  0  0
   -9.6932  -12.5295    3.3526 H   0  0  0  0  0  0  0  0  0  0  0  0
   -9.9602  -10.8120    3.8127 H   0  0  0  0  0  0  0  0  0  0  0  0
   -8.5769   -9.0898    2.8389 H   0  0  0  0  0  0  0  0  0  0  0  0
   -6.7593   -8.4359    1.3093 H   0  0  0  0  0  0  0  0  0  0  0  0
   -7.2915  -10.5786   -1.2581 H   0  0  0  0  0  0  0  0  0  0  0  0
   -7.9514   -9.6898   -3.4375 H   0  0  0  0  0  0  0  0  0  0  0  0
   -7.3678   -7.2755   -4.8865 H   0  0  0  0  0  0  0  0  0  0  0  0
   -6.9430   -8.8302   -5.7113 H   0  0  0  0  0  0  0  0  0  0  0  0
   -5.7163   -7.5196   -5.5857 H   0  0  0  0  0  0  0  0  0  0  0  0
   -4.2027   -7.5862   -3.7205 H   0  0  0  0  0  0  0  0  0  0  0  0
   -3.5345   -8.4524   -1.5420 H   0  0  0  0  0  0  0  0  0  0  0  0
   -2.6582  -12.3168   -1.0286 H   0  0  0  0  0  0  0  0  0  0  0  0
   -1.2920  -17.3887    1.4022 H   0  0  0  0  0  0  0  0  0  0  0  0
   -1.0502  -18.0367    3.7406 H   0  0  0  0  0  0  0  0  0  0  0  0
  1  2  2  3
  2  3  1  0
  3  4  2  0
  3  5  1  0
  5  6  2  0
  6  7  1  0
  7  8  1  0
  8  9  1  0
  7 10  2  0
 10 11  1  0
 11 12  1  0
 10 13  1  0
 13 14  2  0
 14 15  1  0
 15 16  2  3
 16 17  1  0
 17 18  3  0
 16 19  1  0
 19 20  3  0
  1 21  1  0
 21 22  2  0
 22 23  1  0
 23 24  1  0
 24 25  2  0
 25 26  1  0
 26 27  2  0
 27 28  1  0
 27 29  1  0
 29 30  2  0
 23 31  1  0
 31 32  2  0
 32 33  1  0
 33 34  2  0
 34 35  1  0
 34 36  1  0
 36 37  2  0
 22 38  1  0
 38 39  1  0
 39 40  1  0
 40 41  2  0
 41 42  1  0
 42 43  1  0
 43 44  2  0
 44 45  1  0
 45 46  2  0
 46 47  1  0
 46 48  1  0
 48 49  2  0
 42 50  1  0
 50 51  2  0
 51 52  1  0
 52 53  2  0
 53 54  1  0
 53 55  1  0
 55 56  2  0
 41 57  1  0
 57 58  1  0
 40 59  1  0
 59 60  2  0
 60 61  1  0
 61 62  2  0
 62 63  1  0
 63 64  2  0
 64 65  1  0
 65 66  1  0
 66 67  1  0
 65 68  2  0
 60 69  1  0
 69 70  1  0
 70 71  1  0
 71 72  1  0
 72 73  1  0
 73 74  1  0
 74 75  2  0
 75 76  1  0
 76 77  1  0
 74 78  1  0
 78 79  1  0
 79 80  1  0
 80 81  1  0
 81 82  1  0
 82 83  1  0
 83 84  2  0
 84 85  1  0
 85 86  2  0
 86 87  1  0
 87 88  1  0
 88 89  1  0
 87 90  2  0
 82 91  2  0
 91 92  1  0
 92 93  1  0
 93 94  1  0
 94 95  1  0
 95 96  1  0
 96 97  1  0
 97 98  1  0
 98 99  1  0
 99100  1  0
100101  1  0
 98102  1  0
102103  1  0
 95104  1  0
104105  1  0
 91106  1  0
106107  2  0
107108  1  0
108109  1  0
109110  2  0
110111  1  0
111112  2  0
112113  1  0
112114  1  0
114115  2  0
108116  1  0
116117  2  0
117118  1  0
118119  2  0
119120  1  0
119121  1  0
121122  2  0
107123  1  0
123124  1  0
124125  1  0
125126  2  0
126127  1  0
127128  1  0
128129  2  0
129130  1  0
130131  2  0
131132  1  0
131133  1  0
133134  2  0
127135  1  0
135136  2  0
136137  1  0
137138  2  0
138139  1  0
138140  1  0
140141  2  0
126142  1  0
142143  1  0
125144  1  0
144145  2  3
145146  1  0
146147  2  0
146148  1  0
148149  2  0
149150  1  0
150151  2  0
151152  1  0
152153  1  0
152154  2  0
154155  1  0
149156  1  0
156157  2  3
157158  1  0
158159  3  0
157160  1  0
160161  3  0
 15  2  1  0
 58 21  1  0
101 59  1  0
143106  1  0
156145  1  0
 14  5  1  0
 30 24  1  0
 37 31  1  0
 57 38  2  0
 68 61  1  0
100 69  2  0
115109  1  0
122116  1  0
142123  2  0
154148  1  0
 49 43  1  0
 56 50  1  0
 99 71  2  0
134128  1  0
141135  1  0
 97 72  2  0
 77 73  2  0
 96 78  2  0
 94 79  2  0
 93 81  2  0
 90 83  1  0
  1162  1  0
  6163  1  0
  9164  1  0
  9165  1  0
  9166  1  0
 12167  1  0
 12168  1  0
 12169  1  0
 13170  1  0
 25171  1  0
 26172  1  0
 28173  1  0
 28174  1  0
 28175  1  0
 29176  1  0
 30177  1  0
 32178  1  0
 33179  1  0
 35180  1  0
 35181  1  0
 35182  1  0
 36183  1  0
 37184  1  0
 44185  1  0
 45186  1  0
 47187  1  0
 47188  1  0
 47189  1  0
 48190  1  0
 49191  1  0
 51192  1  0
 52193  1  0
 54194  1  0
 54195  1  0
 54196  1  0
 55197  1  0
 56198  1  0
 62199  1  0
 63200  1  0
 64201  1  0
 66202  1  0
 66203  1  0
 67204  1  0
 67205  1  0
 67206  1  0
 68207  1  0
 84208  1  0
 85209  1  0
 86210  1  0
 88211  1  0
 88212  1  0
 89213  1  0
 89214  1  0
 89215  1  0
 90216  1  0
102217  1  0
102218  1  0
103219  1  0
103220  1  0
103221  1  0
104222  1  0
104223  1  0
105224  1  0
105225  1  0
105226  1  0
110227  1  0
111228  1  0
113229  1  0
113230  1  0
113231  1  0
114232  1  0
115233  1  0
117234  1  0
118235  1  0
120236  1  0
120237  1  0
120238  1  0
121239  1  0
122240  1  0
129241  1  0
130242  1  0
132243  1  0
132244  1  0
132245  1  0
133246  1  0
134247  1  0
136248  1  0
137249  1  0
139250  1  0
139251  1  0
139252  1  0
140253  1  0
141254  1  0
144255  1  0
150256  1  0
151257  1  0
M  END

