
     RDKit          3D

249273  0  0  0  0  0  0  0  0999 V2000
   -4.8521    8.6947    0.4151 C   0  0  0  0  0  0  0  0  0  0  0  0
   -5.0929    8.7725   -0.9022 C   0  0  0  0  0  0  0  0  0  0  0  0
   -6.3291    8.2631   -1.4923 C   0  0  0  0  0  0  0  0  0  0  0  0
   -7.4571    8.2343   -0.9370 O   0  0  0  0  0  0  0  0  0  0  0  0
   -5.9947    7.6587   -2.7773 C   0  0  0  0  0  0  0  0  0  0  0  0
   -6.7789    6.8240   -3.5755 C   0  0  0  0  0  0  0  0  0  0  0  0
   -6.2090    6.2238   -4.7118 C   0  0  0  0  0  0  0  0  0  0  0  0
   -7.0680    5.4453   -5.5094 O   0  0  0  0  0  0  0  0  0  0  0  0
   -6.7989    4.9804   -6.8243 C   0  0  0  0  0  0  0  0  0  0  0  0
   -4.8220    6.4223   -4.9961 C   0  0  0  0  0  0  0  0  0  0  0  0
   -4.2239    5.7824   -6.0988 O   0  0  0  0  0  0  0  0  0  0  0  0
   -2.9046    6.0360   -6.5684 C   0  0  0  0  0  0  0  0  0  0  0  0
   -4.0525    7.2453   -4.1489 C   0  0  0  0  0  0  0  0  0  0  0  0
   -4.6624    7.8752   -3.0563 C   0  0  0  0  0  0  0  0  0  0  0  0
   -4.0602    8.6914   -1.9778 C   0  0  0  0  0  0  0  0  0  0  0  0
   -2.9178    9.4159   -2.0221 C   0  0  0  0  0  0  0  0  0  0  0  0
   -2.0277    9.3954   -3.1491 C   0  0  0  0  0  0  0  0  0  0  0  0
   -1.2791    9.3672   -4.0362 N   0  0  0  0  0  0  0  0  0  0  0  0
   -2.5819   10.3553   -0.9828 C   0  0  0  0  0  0  0  0  0  0  0  0
   -2.3119   11.1165   -0.1510 N   0  0  0  0  0  0  0  0  0  0  0  0
   -3.6009    8.0878    0.9001 C   0  0  0  0  0  0  0  0  0  0  0  0
   -2.7868    8.5475    1.9295 C   0  0  0  0  0  0  0  0  0  0  0  0
   -1.6179    7.7764    2.0833 C   0  0  0  0  0  0  0  0  0  0  0  0
   -0.5871    7.9706    3.0264 C   0  0  0  0  0  0  0  0  0  0  0  0
   -0.7503    8.9001    4.1628 C   0  0  0  0  0  0  0  0  0  0  0  0
   -0.8820   10.2805    3.9556 C   0  0  0  0  0  0  0  0  0  0  0  0
   -1.1768   11.1296    5.0304 C   0  0  0  0  0  0  0  0  0  0  0  0
   -1.3417   10.6050    6.3183 C   0  0  0  0  0  0  0  0  0  0  0  0
   -1.7793   11.6992    7.6834 S   0  0  0  0  0  0  0  0  0  0  0  0
   -3.5878   11.6213    7.4109 C   0  0  0  0  0  0  0  0  0  0  0  0
   -4.1822   10.3371    7.9799 C   0  0  0  0  0  0  0  0  0  0  0  0
   -1.1575    9.2329    6.5387 C   0  0  0  0  0  0  0  0  0  0  0  0
   -1.2866    8.7130    7.7863 F   0  0  0  0  0  0  0  0  0  0  0  0
   -0.8714    8.3844    5.4646 C   0  0  0  0  0  0  0  0  0  0  0  0
    0.5090    7.0888    2.9526 C   0  0  0  0  0  0  0  0  0  0  0  0
    0.5382    5.9954    2.0790 C   0  0  0  0  0  0  0  0  0  0  0  0
   -0.5603    5.7147    1.2456 C   0  0  0  0  0  0  0  0  0  0  0  0
   -0.7957    4.3639    0.6871 C   0  0  0  0  0  0  0  0  0  0  0  0
   -1.0676    4.1769   -0.6787 C   0  0  0  0  0  0  0  0  0  0  0  0
   -1.4752    2.9216   -1.1480 C   0  0  0  0  0  0  0  0  0  0  0  0
   -1.6399    1.8515   -0.2589 C   0  0  0  0  0  0  0  0  0  0  0  0
   -2.1922    0.2517   -0.8713 S   0  0  0  0  0  0  0  0  0  0  0  0
   -3.9779    0.6419   -0.7999 C   0  0  0  0  0  0  0  0  0  0  0  0
   -4.5130    0.5682    0.6271 C   0  0  0  0  0  0  0  0  0  0  0  0
   -1.3432    2.0281    1.1012 C   0  0  0  0  0  0  0  0  0  0  0  0
   -0.9228    3.2765    1.5700 C   0  0  0  0  0  0  0  0  0  0  0  0
   -1.4932    1.0015    1.9748 F   0  0  0  0  0  0  0  0  0  0  0  0
   -1.5774    6.6767    1.2154 C   0  0  0  0  0  0  0  0  0  0  0  0
   -2.9577    6.6666    0.2631 S   0  0  0  0  0  0  0  0  0  0  0  0
    1.6671    5.1860    2.2341 C   0  0  0  0  0  0  0  0  0  0  0  0
    2.5273    5.6345    3.2346 C   0  0  0  0  0  0  0  0  0  0  0  0
    1.8602    7.0101    3.9562 S   0  0  0  0  0  0  0  0  0  0  0  0
    3.4028    4.7070    3.9428 C   0  0  0  0  0  0  0  0  0  0  0  0
    4.7072    4.3158    3.5686 C   0  0  0  0  0  0  0  0  0  0  0  0
    5.4638    4.9146    2.4589 C   0  0  0  0  0  0  0  0  0  0  0  0
    5.0946    4.6481    1.1321 C   0  0  0  0  0  0  0  0  0  0  0  0
    5.8175    5.2069    0.0789 C   0  0  0  0  0  0  0  0  0  0  0  0
    6.9083    6.0448    0.3390 C   0  0  0  0  0  0  0  0  0  0  0  0
    7.2705    6.3402    1.6631 C   0  0  0  0  0  0  0  0  0  0  0  0
    8.4373    7.2513    1.9406 C   0  0  0  0  0  0  0  0  0  0  0  0
    9.7514    6.4833    1.9149 C   0  0  0  0  0  0  0  0  0  0  0  0
    6.5566    5.7533    2.7212 C   0  0  0  0  0  0  0  0  0  0  0  0
    5.0743    3.1274    4.2164 C   0  0  0  0  0  0  0  0  0  0  0  0
    6.3200    1.9953    3.9372 S   0  0  0  0  0  0  0  0  0  0  0  0
    5.5391    0.8192    4.8874 C   0  0  0  0  0  0  0  0  0  0  0  0
    5.4939   -0.5476    4.8519 C   0  0  0  0  0  0  0  0  0  0  0  0
    6.4158   -1.4452    4.3096 C   0  0  0  0  0  0  0  0  0  0  0  0
    6.0551   -2.8152    4.1949 C   0  0  0  0  0  0  0  0  0  0  0  0
    6.9677   -3.6491    3.6378 N   0  0  0  0  0  0  0  0  0  0  0  0
    8.1859   -2.5657    3.3379 S   0  0  0  0  0  0  0  0  0  0  0  0
    7.6457   -1.0926    3.8584 N   0  0  0  0  0  0  0  0  0  0  0  0
    4.7856   -3.2145    4.6107 C   0  0  0  0  0  0  0  0  0  0  0  0
    4.1496   -4.4118    4.4403 C   0  0  0  0  0  0  0  0  0  0  0  0
    4.3571   -5.7903    3.4721 S   0  0  0  0  0  0  0  0  0  0  0  0
    2.6847   -6.1309    3.4959 C   0  0  0  0  0  0  0  0  0  0  0  0
    1.9327   -6.7535    2.4982 C   0  0  0  0  0  0  0  0  0  0  0  0
    2.1011   -8.1831    2.1796 C   0  0  0  0  0  0  0  0  0  0  0  0
    1.2986   -9.1278    2.8452 C   0  0  0  0  0  0  0  0  0  0  0  0
    1.4099  -10.4847    2.5469 C   0  0  0  0  0  0  0  0  0  0  0  0
    2.3076  -10.9153    1.5689 C   0  0  0  0  0  0  0  0  0  0  0  0
    3.1200   -9.9822    0.8997 C   0  0  0  0  0  0  0  0  0  0  0  0
    3.9961  -10.4323   -0.2372 C   0  0  0  0  0  0  0  0  0  0  0  0
    3.1829  -10.5412   -1.5193 C   0  0  0  0  0  0  0  0  0  0  0  0
    3.0239   -8.6177    1.2245 C   0  0  0  0  0  0  0  0  0  0  0  0
    0.6918   -6.1252    2.3290 C   0  0  0  0  0  0  0  0  0  0  0  0
    0.5314   -4.8583    3.4386 S   0  0  0  0  0  0  0  0  0  0  0  0
    2.0116   -5.1253    4.1647 C   0  0  0  0  0  0  0  0  0  0  0  0
    2.8562   -4.2087    4.7635 C   0  0  0  0  0  0  0  0  0  0  0  0
    2.6065   -2.9661    5.2351 N   0  0  0  0  0  0  0  0  0  0  0  0
    3.8199   -2.3108    5.1192 C   0  0  0  0  0  0  0  0  0  0  0  0
    4.1931   -0.9257    5.2632 C   0  0  0  0  0  0  0  0  0  0  0  0
    3.4623    0.2111    5.5464 N   0  0  0  0  0  0  0  0  0  0  0  0
    4.3239    1.2396    5.3233 C   0  0  0  0  0  0  0  0  0  0  0  0
    4.0904    2.5709    4.9979 C   0  0  0  0  0  0  0  0  0  0  0  0
    2.7334    3.5413    4.9622 S   0  0  0  0  0  0  0  0  0  0  0  0
    2.0258    0.4083    5.7250 C   0  0  0  0  0  0  0  0  0  0  0  0
    1.2834    0.2882    4.3924 C   0  0  0  0  0  0  0  0  0  0  0  0
    1.4538   -2.7433    6.1180 C   0  0  0  0  0  0  0  0  0  0  0  0
    1.9023   -2.6175    7.5753 C   0  0  0  0  0  0  0  0  0  0  0  0
   -0.0305   -6.1300    1.0580 C   0  0  0  0  0  0  0  0  0  0  0  0
    0.3840   -5.4465   -0.1019 C   0  0  0  0  0  0  0  0  0  0  0  0
    1.6349   -4.7456   -0.2543 N   0  0  0  0  0  0  0  0  0  0  0  0
    2.8235   -5.4856   -0.6014 C   0  0  0  0  0  0  0  0  0  0  0  0
    4.0523   -5.1395   -0.0182 C   0  0  0  0  0  0  0  0  0  0  0  0
    5.2335   -5.7666   -0.4312 C   0  0  0  0  0  0  0  0  0  0  0  0
    5.2047   -6.7182   -1.4595 C   0  0  0  0  0  0  0  0  0  0  0  0
    6.4682   -7.4046   -1.8819 C   0  0  0  0  0  0  0  0  0  0  0  0
    3.9760   -7.0667   -2.0448 C   0  0  0  0  0  0  0  0  0  0  0  0
    2.7931   -6.4562   -1.6167 C   0  0  0  0  0  0  0  0  0  0  0  0
    1.6325   -3.3091   -0.3933 C   0  0  0  0  0  0  0  0  0  0  0  0
    2.3710   -2.6931   -1.4191 C   0  0  0  0  0  0  0  0  0  0  0  0
    2.4093   -1.3015   -1.5294 C   0  0  0  0  0  0  0  0  0  0  0  0
    1.7256   -0.5018   -0.6069 C   0  0  0  0  0  0  0  0  0  0  0  0
    1.7696    0.9924   -0.7394 C   0  0  0  0  0  0  0  0  0  0  0  0
    0.9565   -1.1106    0.3967 C   0  0  0  0  0  0  0  0  0  0  0  0
    0.9014   -2.5059    0.4985 C   0  0  0  0  0  0  0  0  0  0  0  0
   -0.6160   -5.4497   -1.0617 C   0  0  0  0  0  0  0  0  0  0  0  0
   -0.7552   -4.7995   -2.6005 S   0  0  0  0  0  0  0  0  0  0  0  0
   -2.3466   -5.3773   -2.8343 C   0  0  0  0  0  0  0  0  0  0  0  0
   -2.7629   -6.0520   -1.6742 C   0  0  0  0  0  0  0  0  0  0  0  0
   -4.0601   -6.6356   -1.5030 N   0  0  0  0  0  0  0  0  0  0  0  0
   -5.0915   -5.9595   -0.7387 C   0  0  0  0  0  0  0  0  0  0  0  0
   -6.3263   -6.5900   -0.4639 C   0  0  0  0  0  0  0  0  0  0  0  0
   -7.3234   -5.9243    0.2522 C   0  0  0  0  0  0  0  0  0  0  0  0
   -7.1098   -4.6207    0.7247 C   0  0  0  0  0  0  0  0  0  0  0  0
   -8.1854   -3.8878    1.4617 C   0  0  0  0  0  0  0  0  0  0  0  0
   -5.8871   -3.9877    0.4625 C   0  0  0  0  0  0  0  0  0  0  0  0
   -4.8905   -4.6457   -0.2574 C   0  0  0  0  0  0  0  0  0  0  0  0
   -4.3124   -7.8736   -2.1770 C   0  0  0  0  0  0  0  0  0  0  0  0
   -5.1256   -7.9046   -3.3233 C   0  0  0  0  0  0  0  0  0  0  0  0
   -5.3304   -9.1040   -4.0047 C   0  0  0  0  0  0  0  0  0  0  0  0
   -4.7347  -10.2917   -3.5495 C   0  0  0  0  0  0  0  0  0  0  0  0
   -4.9123  -11.5723   -4.3066 C   0  0  0  0  0  0  0  0  0  0  0  0
   -3.9120  -10.2576   -2.4115 C   0  0  0  0  0  0  0  0  0  0  0  0
   -3.7004   -9.0543   -1.7290 C   0  0  0  0  0  0  0  0  0  0  0  0
   -1.7642   -6.0768   -0.7116 C   0  0  0  0  0  0  0  0  0  0  0  0
   -1.6361   -6.6672    0.8617 S   0  0  0  0  0  0  0  0  0  0  0  0
   -3.2139   -5.0373   -3.9741 C   0  0  0  0  0  0  0  0  0  0  0  0
   -2.7635   -4.8258   -5.2230 C   0  0  0  0  0  0  0  0  0  0  0  0
   -3.4249   -3.9258   -6.1696 C   0  0  0  0  0  0  0  0  0  0  0  0
   -4.6073   -3.4878   -6.0754 O   0  0  0  0  0  0  0  0  0  0  0  0
   -2.4393   -3.4889   -7.1400 C   0  0  0  0  0  0  0  0  0  0  0  0
   -2.5673   -2.5035   -8.1094 C   0  0  0  0  0  0  0  0  0  0  0  0
   -1.4365   -2.1109   -8.8421 C   0  0  0  0  0  0  0  0  0  0  0  0
   -1.6346   -1.1008   -9.8035 O   0  0  0  0  0  0  0  0  0  0  0  0
   -0.6319   -0.4556  -10.5871 C   0  0  0  0  0  0  0  0  0  0  0  0
   -0.1741   -2.7152   -8.5663 C   0  0  0  0  0  0  0  0  0  0  0  0
    0.9662   -2.3147   -9.2821 O   0  0  0  0  0  0  0  0  0  0  0  0
    2.2827   -2.8088   -9.0565 C   0  0  0  0  0  0  0  0  0  0  0  0
   -0.0813   -3.7082   -7.5573 C   0  0  0  0  0  0  0  0  0  0  0  0
   -1.2345   -4.1109   -6.8818 C   0  0  0  0  0  0  0  0  0  0  0  0
   -1.4037   -5.0918   -5.7805 C   0  0  0  0  0  0  0  0  0  0  0  0
   -0.6910   -6.2331   -5.6109 C   0  0  0  0  0  0  0  0  0  0  0  0
   -1.1863   -7.3347   -4.8288 C   0  0  0  0  0  0  0  0  0  0  0  0
   -1.5766   -8.2302   -4.2054 N   0  0  0  0  0  0  0  0  0  0  0  0
    0.5510   -6.4700   -6.2923 C   0  0  0  0  0  0  0  0  0  0  0  0
    1.5539   -6.6629   -6.8378 N   0  0  0  0  0  0  0  0  0  0  0  0
   -5.6792    8.7491    1.1134 H   0  0  0  0  0  0  0  0  0  0  0  0
   -7.8150    6.6431   -3.3180 H   0  0  0  0  0  0  0  0  0  0  0  0
   -6.5526    5.8463   -7.4744 H   0  0  0  0  0  0  0  0  0  0  0  0
   -7.7146    4.4980   -7.2167 H   0  0  0  0  0  0  0  0  0  0  0  0
   -5.9803    4.2361   -6.8197 H   0  0  0  0  0  0  0  0  0  0  0  0
   -2.1534    5.7137   -5.8138 H   0  0  0  0  0  0  0  0  0  0  0  0
   -2.7821    7.1202   -6.7885 H   0  0  0  0  0  0  0  0  0  0  0  0
   -2.7372    5.4594   -7.5015 H   0  0  0  0  0  0  0  0  0  0  0  0
   -2.9915    7.3523   -4.3063 H   0  0  0  0  0  0  0  0  0  0  0  0
   -3.0256    9.4215    2.5139 H   0  0  0  0  0  0  0  0  0  0  0  0
   -0.7808   10.6980    2.9591 H   0  0  0  0  0  0  0  0  0  0  0  0
   -1.3068   12.1874    4.8533 H   0  0  0  0  0  0  0  0  0  0  0  0
   -3.8279   11.7041    6.3283 H   0  0  0  0  0  0  0  0  0  0  0  0
   -4.0487   12.4881    7.9302 H   0  0  0  0  0  0  0  0  0  0  0  0
   -3.8803   10.2122    9.0417 H   0  0  0  0  0  0  0  0  0  0  0  0
   -3.8452    9.4611    7.3868 H   0  0  0  0  0  0  0  0  0  0  0  0
   -5.2917   10.3876    7.9295 H   0  0  0  0  0  0  0  0  0  0  0  0
   -0.7771    7.3176    5.6431 H   0  0  0  0  0  0  0  0  0  0  0  0
   -0.9933    5.0108   -1.3688 H   0  0  0  0  0  0  0  0  0  0  0  0
   -1.6857    2.7931   -2.2021 H   0  0  0  0  0  0  0  0  0  0  0  0
   -4.1779    1.6481   -1.2302 H   0  0  0  0  0  0  0  0  0  0  0  0
   -4.5150   -0.1072   -1.4194 H   0  0  0  0  0  0  0  0  0  0  0  0
   -4.0977    1.3931    1.2424 H   0  0  0  0  0  0  0  0  0  0  0  0
   -5.6199    0.6674    0.6098 H   0  0  0  0  0  0  0  0  0  0  0  0
   -4.2486   -0.4094    1.0861 H   0  0  0  0  0  0  0  0  0  0  0  0
   -0.7391    3.4051    2.6328 H   0  0  0  0  0  0  0  0  0  0  0  0
    1.8075    4.2415    1.7201 H   0  0  0  0  0  0  0  0  0  0  0  0
    4.2549    3.9947    0.9205 H   0  0  0  0  0  0  0  0  0  0  0  0
    5.5364    4.9888   -0.9426 H   0  0  0  0  0  0  0  0  0  0  0  0
    7.4578    6.4670   -0.4905 H   0  0  0  0  0  0  0  0  0  0  0  0
    8.3151    7.7372    2.9352 H   0  0  0  0  0  0  0  0  0  0  0  0
    8.4707    8.0637    1.1802 H   0  0  0  0  0  0  0  0  0  0  0  0
    9.9319    6.0649    0.9004 H   0  0  0  0  0  0  0  0  0  0  0  0
    9.7372    5.6569    2.6596 H   0  0  0  0  0  0  0  0  0  0  0  0
   10.5872    7.1713    2.1598 H   0  0  0  0  0  0  0  0  0  0  0  0
    6.8401    5.9626    3.7488 H   0  0  0  0  0  0  0  0  0  0  0  0
    0.5829   -8.8067    3.5963 H   0  0  0  0  0  0  0  0  0  0  0  0
    0.7900  -11.2055    3.0668 H   0  0  0  0  0  0  0  0  0  0  0  0
    2.3594  -11.9640    1.3192 H   0  0  0  0  0  0  0  0  0  0  0  0
    4.8273   -9.7082   -0.3893 H   0  0  0  0  0  0  0  0  0  0  0  0
    4.4507  -11.4174    0.0007 H   0  0  0  0  0  0  0  0  0  0  0  0
    2.4418  -11.3670   -1.4326 H   0  0  0  0  0  0  0  0  0  0  0  0
    3.8559  -10.7572   -2.3776 H   0  0  0  0  0  0  0  0  0  0  0  0
    2.6360   -9.5934   -1.7197 H   0  0  0  0  0  0  0  0  0  0  0  0
    3.6468   -7.8958    0.7144 H   0  0  0  0  0  0  0  0  0  0  0  0
    1.6381   -0.2202    6.5224 H   0  0  0  0  0  0  0  0  0  0  0  0
    1.8215    1.4077    6.1518 H   0  0  0  0  0  0  0  0  0  0  0  0
    1.5065   -0.6848    3.9028 H   0  0  0  0  0  0  0  0  0  0  0  0
    1.5997    1.1003    3.7010 H   0  0  0  0  0  0  0  0  0  0  0  0
    0.1894    0.3733    4.5594 H   0  0  0  0  0  0  0  0  0  0  0  0
    0.7988   -1.9416    5.7620 H   0  0  0  0  0  0  0  0  0  0  0  0
    0.7763   -3.6262    6.0842 H   0  0  0  0  0  0  0  0  0  0  0  0
    2.3472   -3.5776    7.9122 H   0  0  0  0  0  0  0  0  0  0  0  0
    1.0268   -2.3820    8.2200 H   0  0  0  0  0  0  0  0  0  0  0  0
    2.6699   -1.8259    7.6913 H   0  0  0  0  0  0  0  0  0  0  0  0
    4.0934   -4.3816    0.7539 H   0  0  0  0  0  0  0  0  0  0  0  0
    6.1697   -5.4971    0.0438 H   0  0  0  0  0  0  0  0  0  0  0  0
    6.7209   -8.1996   -1.1498 H   0  0  0  0  0  0  0  0  0  0  0  0
    7.3030   -6.6737   -1.9277 H   0  0  0  0  0  0  0  0  0  0  0  0
    6.3543   -7.8617   -2.8875 H   0  0  0  0  0  0  0  0  0  0  0  0
    3.9364   -7.8004   -2.8395 H   0  0  0  0  0  0  0  0  0  0  0  0
    1.8609   -6.7200   -2.0976 H   0  0  0  0  0  0  0  0  0  0  0  0
    2.9142   -3.2891   -2.1429 H   0  0  0  0  0  0  0  0  0  0  0  0
    2.9817   -0.8480   -2.3314 H   0  0  0  0  0  0  0  0  0  0  0  0
    1.4940    1.4883    0.2170 H   0  0  0  0  0  0  0  0  0  0  0  0
    2.7963    1.3196   -1.0160 H   0  0  0  0  0  0  0  0  0  0  0  0
    1.0646    1.3109   -1.5357 H   0  0  0  0  0  0  0  0  0  0  0  0
    0.4053   -0.5071    1.1037 H   0  0  0  0  0  0  0  0  0  0  0  0
    0.3072   -2.9532    1.2826 H   0  0  0  0  0  0  0  0  0  0  0  0
   -6.5152   -7.6020   -0.7973 H   0  0  0  0  0  0  0  0  0  0  0  0
   -8.2574   -6.4329    0.4425 H   0  0  0  0  0  0  0  0  0  0  0  0
   -8.5146   -3.0036    0.8754 H   0  0  0  0  0  0  0  0  0  0  0  0
   -9.0698   -4.5356    1.6468 H   0  0  0  0  0  0  0  0  0  0  0  0
   -7.7955   -3.5422    2.4461 H   0  0  0  0  0  0  0  0  0  0  0  0
   -5.7138   -2.9735    0.8060 H   0  0  0  0  0  0  0  0  0  0  0  0
   -3.9671   -4.1145   -0.4569 H   0  0  0  0  0  0  0  0  0  0  0  0
   -5.5858   -6.9912   -3.6830 H   0  0  0  0  0  0  0  0  0  0  0  0
   -5.9444   -9.1056   -4.8981 H   0  0  0  0  0  0  0  0  0  0  0  0
   -4.0767  -11.7072   -5.0283 H   0  0  0  0  0  0  0  0  0  0  0  0
   -4.9249  -12.4389   -3.6114 H   0  0  0  0  0  0  0  0  0  0  0  0
   -5.8711  -11.5737   -4.8678 H   0  0  0  0  0  0  0  0  0  0  0  0
   -3.4377  -11.1594   -2.0533 H   0  0  0  0  0  0  0  0  0  0  0  0
   -3.0701   -9.0433   -0.8490 H   0  0  0  0  0  0  0  0  0  0  0  0
   -4.2475   -4.8013   -3.7385 H   0  0  0  0  0  0  0  0  0  0  0  0
   -3.5278   -2.0440   -8.2972 H   0  0  0  0  0  0  0  0  0  0  0  0
   -0.2694   -1.1518  -11.3693 H   0  0  0  0  0  0  0  0  0  0  0  0
    0.1921   -0.0814   -9.9472 H   0  0  0  0  0  0  0  0  0  0  0  0
   -1.0910    0.4174  -11.0928 H   0  0  0  0  0  0  0  0  0  0  0  0
    2.3223   -3.9005   -9.2625 H   0  0  0  0  0  0  0  0  0  0  0  0
    2.9820   -2.2900   -9.7454 H   0  0  0  0  0  0  0  0  0  0  0  0
    2.5924   -2.5951   -8.0117 H   0  0  0  0  0  0  0  0  0  0  0  0
    0.8682   -4.1370   -7.2990 H   0  0  0  0  0  0  0  0  0  0  0  0
  1  2  2  3
  2  3  1  0
  3  4  2  0
  3  5  1  0
  5  6  2  0
  6  7  1  0
  7  8  1  0
  8  9  1  0
  7 10  2  0
 10 11  1  0
 11 12  1  0
 10 13  1  0
 13 14  2  0
 14 15  1  0
 15 16  2  3
 16 17  1  0
 17 18  3  0
 16 19  1  0
 19 20  3  0
  1 21  1  0
 21 22  2  0
 22 23  1  0
 23 24  2  0
 24 25  1  0
 25 26  2  0
 26 27  1  0
 27 28  2  0
 28 29  1  0
 29 30  1  0
 30 31  1  0
 28 32  1  0
 32 33  1  0
 32 34  2  0
 24 35  1  0
 35 36  2  0
 36 37  1  0
 37 38  1  0
 38 39  2  0
 39 40  1  0
 40 41  2  0
 41 42  1  0
 42 43  1  0
 43 44  1  0
 41 45  1  0
 45 46  2  0
 45 47  1  0
 37 48  2  0
 48 49  1  0
 36 50  1  0
 50 51  2  0
 51 52  1  0
 51 53  1  0
 53 54  2  0
 54 55  1  0
 55 56  2  0
 56 57  1  0
 57 58  2  0
 58 59  1  0
 59 60  1  0
 60 61  1  0
 59 62  2  0
 54 63  1  0
 63 64  1  0
 64 65  1  0
 65 66  1  0
 66 67  1  0
 67 68  1  0
 68 69  2  0
 69 70  1  0
 70 71  1  0
 68 72  1  0
 72 73  1  0
 73 74  1  0
 74 75  1  0
 75 76  1  0
 76 77  1  0
 77 78  2  0
 78 79  1  0
 79 80  2  0
 80 81  1  0
 81 82  1  0
 82 83  1  0
 81 84  2  0
 76 85  2  0
 85 86  1  0
 86 87  1  0
 87 88  1  0
 88 89  1  0
 89 90  1  0
 90 91  1  0
 91 92  1  0
 92 93  1  0
 93 94  1  0
 94 95  1  0
 92 96  1  0
 96 97  1  0
 89 98  1  0
 98 99  1  0
 85100  1  0
100101  2  0
101102  1  0
102103  1  0
103104  2  0
104105  1  0
105106  2  0
106107  1  0
106108  1  0
108109  2  0
102110  1  0
110111  2  0
111112  1  0
112113  2  0
113114  1  0
113115  1  0
115116  2  0
101117  1  0
117118  1  0
118119  1  0
119120  2  0
120121  1  0
121122  1  0
122123  2  0
123124  1  0
124125  2  0
125126  1  0
125127  1  0
127128  2  0
121129  1  0
129130  2  0
130131  1  0
131132  2  0
132133  1  0
132134  1  0
134135  2  0
120136  1  0
136137  1  0
119138  1  0
138139  2  3
139140  1  0
140141  2  0
140142  1  0
142143  2  0
143144  1  0
144145  1  0
145146  1  0
144147  2  0
147148  1  0
148149  1  0
147150  1  0
150151  2  0
151152  1  0
152153  2  3
153154  1  0
154155  3  0
153156  1  0
156157  3  0
 15  2  1  0
 49 21  1  0
 95 53  1  0
137100  1  0
152139  1  0
 14  5  1  0
 48 23  1  0
 62 55  1  0
 94 63  2  0
109103  1  0
116110  1  0
136117  2  0
151142  1  0
 34 25  1  0
 52 35  1  0
 93 65  2  0
128122  1  0
135129  1  0
 46 38  1  0
 91 66  2  0
 71 67  2  0
 90 72  2  0
 88 73  2  0
 87 75  2  0
 84 77  1  0
  1158  1  0
  6159  1  0
  9160  1  0
  9161  1  0
  9162  1  0
 12163  1  0
 12164  1  0
 12165  1  0
 13166  1  0
 22167  1  0
 26168  1  0
 27169  1  0
 30170  1  0
 30171  1  0
 31172  1  0
 31173  1  0
 31174  1  0
 34175  1  0
 39176  1  0
 40177  1  0
 43178  1  0
 43179  1  0
 44180  1  0
 44181  1  0
 44182  1  0
 46183  1  0
 50184  1  0
 56185  1  0
 57186  1  0
 58187  1  0
 60188  1  0
 60189  1  0
 61190  1  0
 61191  1  0
 61192  1  0
 62193  1  0
 78194  1  0
 79195  1  0
 80196  1  0
 82197  1  0
 82198  1  0
 83199  1  0
 83200  1  0
 83201  1  0
 84202  1  0
 96203  1  0
 96204  1  0
 97205  1  0
 97206  1  0
 97207  1  0
 98208  1  0
 98209  1  0
 99210  1  0
 99211  1  0
 99212  1  0
104213  1  0
105214  1  0
107215  1  0
107216  1  0
107217  1  0
108218  1  0
109219  1  0
111220  1  0
112221  1  0
114222  1  0
114223  1  0
114224  1  0
115225  1  0
116226  1  0
123227  1  0
124228  1  0
126229  1  0
126230  1  0
126231  1  0
127232  1  0
128233  1  0
130234  1  0
131235  1  0
133236  1  0
133237  1  0
133238  1  0
134239  1  0
135240  1  0
138241  1  0
143242  1  0
146243  1  0
146244  1  0
146245  1  0
149246  1  0
149247  1  0
149248  1  0
150249  1  0
M  END

