
     RDKit          3D

226250  0  0  0  0  0  0  0  0999 V2000
  -10.6315   -6.9329    5.7338 C   0  0  0  0  0  0  0  0  0  0  0  0
   -9.6865   -7.3424    6.6051 C   0  0  0  0  0  0  0  0  0  0  0  0
   -8.2578   -6.9852    6.5664 C   0  0  0  0  0  0  0  0  0  0  0  0
   -7.7300   -6.0413    5.9230 O   0  0  0  0  0  0  0  0  0  0  0  0
   -7.5178   -7.9686    7.3260 C   0  0  0  0  0  0  0  0  0  0  0  0
   -6.1355   -8.0680    7.4865 C   0  0  0  0  0  0  0  0  0  0  0  0
   -5.6156   -9.1749    8.1736 C   0  0  0  0  0  0  0  0  0  0  0  0
   -3.8779   -9.3158    8.3740 Cl  0  0  0  0  0  0  0  0  0  0  0  0
   -6.4896  -10.1666    8.6745 C   0  0  0  0  0  0  0  0  0  0  0  0
   -5.8629  -11.5867    9.5005 Cl  0  0  0  0  0  0  0  0  0  0  0  0
   -7.8790  -10.0357    8.5099 C   0  0  0  0  0  0  0  0  0  0  0  0
   -8.3889   -8.9059    7.8483 C   0  0  0  0  0  0  0  0  0  0  0  0
   -9.7910   -8.5099    7.5337 C   0  0  0  0  0  0  0  0  0  0  0  0
  -10.9179   -8.9452    8.1532 C   0  0  0  0  0  0  0  0  0  0  0  0
  -12.1760   -8.2534    8.0041 C   0  0  0  0  0  0  0  0  0  0  0  0
  -13.1756   -7.6833    7.8976 N   0  0  0  0  0  0  0  0  0  0  0  0
  -10.9130  -10.0180    9.1129 C   0  0  0  0  0  0  0  0  0  0  0  0
  -10.9245  -10.8792    9.8874 N   0  0  0  0  0  0  0  0  0  0  0  0
  -10.3981   -5.9022    4.7045 C   0  0  0  0  0  0  0  0  0  0  0  0
  -10.6422   -6.1787    3.3566 C   0  0  0  0  0  0  0  0  0  0  0  0
  -10.2378   -5.2656    2.3876 C   0  0  0  0  0  0  0  0  0  0  0  0
   -9.6613   -4.0588    2.7925 C   0  0  0  0  0  0  0  0  0  0  0  0
   -9.5334   -3.7965    4.1189 N   0  0  0  0  0  0  0  0  0  0  0  0
   -9.9016   -4.6833    5.0472 N   0  0  0  0  0  0  0  0  0  0  0  0
   -8.8642   -3.2753    1.8480 C   0  0  0  0  0  0  0  0  0  0  0  0
   -7.5984   -3.7134    1.4653 C   0  0  0  0  0  0  0  0  0  0  0  0
   -6.7533   -2.6546    1.1321 C   0  0  0  0  0  0  0  0  0  0  0  0
   -5.2517   -2.5505    1.3545 C   0  0  0  0  0  0  0  0  0  0  0  0
   -4.7066   -3.2926    2.5836 C   0  0  0  0  0  0  0  0  0  0  0  0
   -3.3510   -3.6860    2.6250 C   0  0  0  0  0  0  0  0  0  0  0  0
   -2.8262   -4.3322    3.7426 C   0  0  0  0  0  0  0  0  0  0  0  0
   -3.6327   -4.5822    4.8606 C   0  0  0  0  0  0  0  0  0  0  0  0
   -3.0737   -5.3186    6.0498 C   0  0  0  0  0  0  0  0  0  0  0  0
   -2.8333   -6.7920    5.7227 C   0  0  0  0  0  0  0  0  0  0  0  0
   -4.9614   -4.1351    4.8619 C   0  0  0  0  0  0  0  0  0  0  0  0
   -5.4862   -3.4741    3.7474 C   0  0  0  0  0  0  0  0  0  0  0  0
   -4.5925   -2.9767    0.0288 C   0  0  0  0  0  0  0  0  0  0  0  0
   -4.2619   -2.0496   -0.9847 C   0  0  0  0  0  0  0  0  0  0  0  0
   -3.7151   -2.4742   -2.1979 C   0  0  0  0  0  0  0  0  0  0  0  0
   -3.5112   -3.8387   -2.4423 C   0  0  0  0  0  0  0  0  0  0  0  0
   -2.8948   -4.2888   -3.7444 C   0  0  0  0  0  0  0  0  0  0  0  0
   -1.3908   -4.0252   -3.7470 C   0  0  0  0  0  0  0  0  0  0  0  0
   -3.8845   -4.7743   -1.4696 C   0  0  0  0  0  0  0  0  0  0  0  0
   -4.4329   -4.3493   -0.2539 C   0  0  0  0  0  0  0  0  0  0  0  0
   -5.1763   -1.0657    1.6264 C   0  0  0  0  0  0  0  0  0  0  0  0
   -6.3610   -0.4306    1.3654 C   0  0  0  0  0  0  0  0  0  0  0  0
   -7.3671   -1.4218    1.0703 C   0  0  0  0  0  0  0  0  0  0  0  0
   -8.9045   -1.5791    1.7329 S   0  0  0  0  0  0  0  0  0  0  0  0
   -6.0881    1.1708    0.8536 S   0  0  0  0  0  0  0  0  0  0  0  0
   -4.4235    1.0749    1.2107 C   0  0  0  0  0  0  0  0  0  0  0  0
   -4.1133   -0.1837    1.6570 C   0  0  0  0  0  0  0  0  0  0  0  0
   -2.4749   -0.3482    1.9668 S   0  0  0  0  0  0  0  0  0  0  0  0
   -2.1365    1.2477    1.4844 C   0  0  0  0  0  0  0  0  0  0  0  0
   -0.8774    1.8575    1.4450 C   0  0  0  0  0  0  0  0  0  0  0  0
    0.2669    1.2703    2.1567 C   0  0  0  0  0  0  0  0  0  0  0  0
    0.8299    1.7956    3.3108 C   0  0  0  0  0  0  0  0  0  0  0  0
    1.8597    1.0027    3.8272 C   0  0  0  0  0  0  0  0  0  0  0  0
    2.1146   -0.1346    3.0676 C   0  0  0  0  0  0  0  0  0  0  0  0
    3.1155   -1.1978    3.3998 C   0  0  0  0  0  0  0  0  0  0  0  0
    2.4181   -2.4444    3.9318 C   0  0  0  0  0  0  0  0  0  0  0  0
    1.0382   -0.1737    1.7717 S   0  0  0  0  0  0  0  0  0  0  0  0
   -0.7787    3.0712    0.7355 C   0  0  0  0  0  0  0  0  0  0  0  0
   -1.9170    3.6346    0.1238 C   0  0  0  0  0  0  0  0  0  0  0  0
   -3.2095    3.1098    0.3085 C   0  0  0  0  0  0  0  0  0  0  0  0
   -4.3841    3.7646   -0.2837 C   0  0  0  0  0  0  0  0  0  0  0  0
   -5.3712    4.4312    0.4270 C   0  0  0  0  0  0  0  0  0  0  0  0
   -6.3492    5.0009   -0.3937 C   0  0  0  0  0  0  0  0  0  0  0  0
   -6.1250    4.7795   -1.7475 C   0  0  0  0  0  0  0  0  0  0  0  0
   -6.9528    5.3333   -2.8655 C   0  0  0  0  0  0  0  0  0  0  0  0
   -6.5115    6.7535   -3.2043 C   0  0  0  0  0  0  0  0  0  0  0  0
   -4.7072    3.8918   -1.9302 S   0  0  0  0  0  0  0  0  0  0  0  0
   -3.3042    1.8926    1.0218 C   0  0  0  0  0  0  0  0  0  0  0  0
   -1.4373    4.8387   -0.9847 S   0  0  0  0  0  0  0  0  0  0  0  0
    0.2081    4.6800   -0.6364 C   0  0  0  0  0  0  0  0  0  0  0  0
    1.3745    5.0007   -1.3466 C   0  0  0  0  0  0  0  0  0  0  0  0
    2.4891    4.3993   -0.7792 C   0  0  0  0  0  0  0  0  0  0  0  0
    2.0216    3.3023    0.4210 S   0  0  0  0  0  0  0  0  0  0  0  0
    0.3926    3.7234    0.3318 C   0  0  0  0  0  0  0  0  0  0  0  0
    3.4616    4.1910   -1.8159 C   0  0  0  0  0  0  0  0  0  0  0  0
    4.5587    2.9528   -2.0103 S   0  0  0  0  0  0  0  0  0  0  0  0
    4.4300    2.9159   -3.6963 C   0  0  0  0  0  0  0  0  0  0  0  0
    3.4455    3.8184   -4.1115 C   0  0  0  0  0  0  0  0  0  0  0  0
    2.9149    4.5347   -3.0217 C   0  0  0  0  0  0  0  0  0  0  0  0
    1.5486    5.1994   -2.8582 C   0  0  0  0  0  0  0  0  0  0  0  0
    1.6104    6.6962   -3.1916 C   0  0  0  0  0  0  0  0  0  0  0  0
    0.7139    7.6001   -2.5877 C   0  0  0  0  0  0  0  0  0  0  0  0
    0.7787    8.9688   -2.8618 C   0  0  0  0  0  0  0  0  0  0  0  0
    1.7257    9.4687   -3.7666 C   0  0  0  0  0  0  0  0  0  0  0  0
    1.8366   10.9499   -4.0227 C   0  0  0  0  0  0  0  0  0  0  0  0
    2.9676   11.5604   -3.2021 C   0  0  0  0  0  0  0  0  0  0  0  0
    2.6047    8.5770   -4.3978 C   0  0  0  0  0  0  0  0  0  0  0  0
    2.5396    7.2070   -4.1279 C   0  0  0  0  0  0  0  0  0  0  0  0
    0.4979    4.4041   -3.6453 C   0  0  0  0  0  0  0  0  0  0  0  0
    0.3185    3.0282   -3.3751 C   0  0  0  0  0  0  0  0  0  0  0  0
   -0.6203    2.2717   -4.0760 C   0  0  0  0  0  0  0  0  0  0  0  0
   -1.4036    2.8684   -5.0725 C   0  0  0  0  0  0  0  0  0  0  0  0
   -2.3817    2.0359   -5.8584 C   0  0  0  0  0  0  0  0  0  0  0  0
   -1.7096    1.4389   -7.0902 C   0  0  0  0  0  0  0  0  0  0  0  0
   -1.2183    4.2273   -5.3736 C   0  0  0  0  0  0  0  0  0  0  0  0
   -0.2791    4.9887   -4.6675 C   0  0  0  0  0  0  0  0  0  0  0  0
    5.0114    1.8250   -4.4844 C   0  0  0  0  0  0  0  0  0  0  0  0
    6.3744    1.8105   -4.7854 C   0  0  0  0  0  0  0  0  0  0  0  0
    6.9665    0.5399   -4.6706 C   0  0  0  0  0  0  0  0  0  0  0  0
    8.3552    0.3039   -4.6105 C   0  0  0  0  0  0  0  0  0  0  0  0
    9.3215    1.3313   -5.0463 C   0  0  0  0  0  0  0  0  0  0  0  0
    9.4279    1.8166   -6.3433 C   0  0  0  0  0  0  0  0  0  0  0  0
   10.3820    2.8317   -6.4823 C   0  0  0  0  0  0  0  0  0  0  0  0
   11.0152    3.1536   -5.2865 C   0  0  0  0  0  0  0  0  0  0  0  0
   12.0437    4.2309   -5.1042 C   0  0  0  0  0  0  0  0  0  0  0  0
   11.4167    5.6132   -5.2719 C   0  0  0  0  0  0  0  0  0  0  0  0
   10.3936    2.1762   -4.0584 S   0  0  0  0  0  0  0  0  0  0  0  0
    8.7680   -0.8921   -3.9936 C   0  0  0  0  0  0  0  0  0  0  0  0
    7.8555   -1.8679   -3.5642 C   0  0  0  0  0  0  0  0  0  0  0  0
    6.4710   -1.6979   -3.7705 C   0  0  0  0  0  0  0  0  0  0  0  0
    5.4878   -2.6643   -3.2382 C   0  0  0  0  0  0  0  0  0  0  0  0
    5.3885   -4.0020   -3.6075 C   0  0  0  0  0  0  0  0  0  0  0  0
    4.4018   -4.6997   -2.8951 C   0  0  0  0  0  0  0  0  0  0  0  0
    3.7313   -3.9088   -1.9686 C   0  0  0  0  0  0  0  0  0  0  0  0
    2.6913   -4.3726   -0.9997 C   0  0  0  0  0  0  0  0  0  0  0  0
    3.3407   -4.9238    0.2667 C   0  0  0  0  0  0  0  0  0  0  0  0
    4.3769   -2.3555   -2.0112 S   0  0  0  0  0  0  0  0  0  0  0  0
    6.0594   -0.4588   -4.2951 C   0  0  0  0  0  0  0  0  0  0  0  0
    4.5388    0.2377   -4.1605 S   0  0  0  0  0  0  0  0  0  0  0  0
    8.4272   -2.8126   -2.6938 C   0  0  0  0  0  0  0  0  0  0  0  0
    9.7575   -2.5421   -2.3878 C   0  0  0  0  0  0  0  0  0  0  0  0
   10.2622   -1.1990   -3.2782 S   0  0  0  0  0  0  0  0  0  0  0  0
   10.3447   -2.8921   -1.0894 C   0  0  0  0  0  0  0  0  0  0  0  0
   10.0069   -2.2352    0.0457 C   0  0  0  0  0  0  0  0  0  0  0  0
    8.9835   -1.1789    0.1466 C   0  0  0  0  0  0  0  0  0  0  0  0
    8.4249   -0.5707   -0.8016 O   0  0  0  0  0  0  0  0  0  0  0  0
    8.7048   -0.9381    1.5367 C   0  0  0  0  0  0  0  0  0  0  0  0
    7.7632   -0.0557    2.0658 C   0  0  0  0  0  0  0  0  0  0  0  0
    7.6437    0.0427    3.4627 C   0  0  0  0  0  0  0  0  0  0  0  0
    6.7222    0.9162    4.0555 O   0  0  0  0  0  0  0  0  0  0  0  0
    6.3290    2.1434    3.5078 C   0  0  0  0  0  0  0  0  0  0  0  0
    7.0621    2.7488    2.6747 O   0  0  0  0  0  0  0  0  0  0  0  0
    5.0486    2.7675    3.9433 C   0  0  0  0  0  0  0  0  0  0  0  0
    8.4304   -0.7857    4.2825 C   0  0  0  0  0  0  0  0  0  0  0  0
    9.3706   -1.6721    3.7252 C   0  0  0  0  0  0  0  0  0  0  0  0
    9.5126   -1.7310    2.3276 C   0  0  0  0  0  0  0  0  0  0  0  0
   10.4301   -2.5313    1.4514 C   0  0  0  0  0  0  0  0  0  0  0  0
   11.5258   -3.2303    1.8516 C   0  0  0  0  0  0  0  0  0  0  0  0
   12.5099   -3.7282    0.9253 C   0  0  0  0  0  0  0  0  0  0  0  0
   13.3229   -4.1289    0.2035 N   0  0  0  0  0  0  0  0  0  0  0  0
   11.8669   -3.4137    3.2390 C   0  0  0  0  0  0  0  0  0  0  0  0
   12.1657   -3.5699    4.3474 N   0  0  0  0  0  0  0  0  0  0  0  0
  -11.5616   -7.4795    5.6601 H   0  0  0  0  0  0  0  0  0  0  0  0
   -5.4822   -7.3113    7.0766 H   0  0  0  0  0  0  0  0  0  0  0  0
   -8.5191  -10.8277    8.8613 H   0  0  0  0  0  0  0  0  0  0  0  0
  -11.0584   -7.1354    3.0568 H   0  0  0  0  0  0  0  0  0  0  0  0
  -10.3238   -5.5129    1.3342 H   0  0  0  0  0  0  0  0  0  0  0  0
   -7.2348   -4.7110    1.6728 H   0  0  0  0  0  0  0  0  0  0  0  0
   -2.6915   -3.4913    1.7924 H   0  0  0  0  0  0  0  0  0  0  0  0
   -1.7916   -4.6477    3.7357 H   0  0  0  0  0  0  0  0  0  0  0  0
   -3.7696   -5.2533    6.9171 H   0  0  0  0  0  0  0  0  0  0  0  0
   -2.1143   -4.8496    6.3591 H   0  0  0  0  0  0  0  0  0  0  0  0
   -2.4728   -7.3161    6.6326 H   0  0  0  0  0  0  0  0  0  0  0  0
   -3.7751   -7.2725    5.3802 H   0  0  0  0  0  0  0  0  0  0  0  0
   -2.0632   -6.8950    4.9301 H   0  0  0  0  0  0  0  0  0  0  0  0
   -5.5939   -4.2898    5.7289 H   0  0  0  0  0  0  0  0  0  0  0  0
   -6.5007   -3.1017    3.8029 H   0  0  0  0  0  0  0  0  0  0  0  0
   -4.4352   -0.9927   -0.8635 H   0  0  0  0  0  0  0  0  0  0  0  0
   -3.4559   -1.7415   -2.9515 H   0  0  0  0  0  0  0  0  0  0  0  0
   -3.0740   -5.3744   -3.9118 H   0  0  0  0  0  0  0  0  0  0  0  0
   -3.3645   -3.7428   -4.5914 H   0  0  0  0  0  0  0  0  0  0  0  0
   -1.1910   -2.9367   -3.6502 H   0  0  0  0  0  0  0  0  0  0  0  0
   -0.9054   -4.5616   -2.9034 H   0  0  0  0  0  0  0  0  0  0  0  0
   -0.9470   -4.3834   -4.6997 H   0  0  0  0  0  0  0  0  0  0  0  0
   -3.7521   -5.8359   -1.6461 H   0  0  0  0  0  0  0  0  0  0  0  0
   -4.7271   -5.0964    0.4722 H   0  0  0  0  0  0  0  0  0  0  0  0
    0.4948    2.7108    3.7788 H   0  0  0  0  0  0  0  0  0  0  0  0
    2.3920    1.2476    4.7332 H   0  0  0  0  0  0  0  0  0  0  0  0
    3.6913   -1.4612    2.4854 H   0  0  0  0  0  0  0  0  0  0  0  0
    3.8267   -0.8157    4.1644 H   0  0  0  0  0  0  0  0  0  0  0  0
    1.8062   -2.9061    3.1292 H   0  0  0  0  0  0  0  0  0  0  0  0
    3.1798   -3.1874    4.2578 H   0  0  0  0  0  0  0  0  0  0  0  0
    1.7723   -2.1897    4.8021 H   0  0  0  0  0  0  0  0  0  0  0  0
   -5.3805    4.5072    1.5089 H   0  0  0  0  0  0  0  0  0  0  0  0
   -7.1835    5.5694   -0.0094 H   0  0  0  0  0  0  0  0  0  0  0  0
   -8.0199    5.3419   -2.5609 H   0  0  0  0  0  0  0  0  0  0  0  0
   -6.8533    4.6854   -3.7622 H   0  0  0  0  0  0  0  0  0  0  0  0
   -5.4757    6.7538   -3.6146 H   0  0  0  0  0  0  0  0  0  0  0  0
   -7.2029    7.1909   -3.9625 H   0  0  0  0  0  0  0  0  0  0  0  0
   -6.5505    7.3925   -2.2933 H   0  0  0  0  0  0  0  0  0  0  0  0
    3.0345    3.8529   -5.1121 H   0  0  0  0  0  0  0  0  0  0  0  0
   -0.0407    7.2505   -1.8959 H   0  0  0  0  0  0  0  0  0  0  0  0
    0.0931    9.6428   -2.3600 H   0  0  0  0  0  0  0  0  0  0  0  0
    0.8816   11.4579   -3.7606 H   0  0  0  0  0  0  0  0  0  0  0  0
    2.0243   11.1343   -5.1042 H   0  0  0  0  0  0  0  0  0  0  0  0
    2.7845   11.3938   -2.1173 H   0  0  0  0  0  0  0  0  0  0  0  0
    3.9422   11.1102   -3.4852 H   0  0  0  0  0  0  0  0  0  0  0  0
    3.0171   12.6565   -3.3872 H   0  0  0  0  0  0  0  0  0  0  0  0
    3.3482    8.9445   -5.0984 H   0  0  0  0  0  0  0  0  0  0  0  0
    3.2309    6.5548   -4.6415 H   0  0  0  0  0  0  0  0  0  0  0  0
    0.9176    2.5396   -2.6185 H   0  0  0  0  0  0  0  0  0  0  0  0
   -0.7220    1.2182   -3.8499 H   0  0  0  0  0  0  0  0  0  0  0  0
   -3.2455    2.6606   -6.1787 H   0  0  0  0  0  0  0  0  0  0  0  0
   -2.7823    1.2128   -5.2258 H   0  0  0  0  0  0  0  0  0  0  0  0
   -0.8328    0.8251   -6.7962 H   0  0  0  0  0  0  0  0  0  0  0  0
   -1.3726    2.2487   -7.7735 H   0  0  0  0  0  0  0  0  0  0  0  0
   -2.4283    0.7913   -7.6374 H   0  0  0  0  0  0  0  0  0  0  0  0
   -1.8011    4.6979   -6.1570 H   0  0  0  0  0  0  0  0  0  0  0  0
   -0.1645    6.0311   -4.9349 H   0  0  0  0  0  0  0  0  0  0  0  0
    6.9519    2.7237   -4.8597 H   0  0  0  0  0  0  0  0  0  0  0  0
    8.8289    1.4525   -7.1675 H   0  0  0  0  0  0  0  0  0  0  0  0
   10.5924    3.3234   -7.4260 H   0  0  0  0  0  0  0  0  0  0  0  0
   12.4873    4.1557   -4.0904 H   0  0  0  0  0  0  0  0  0  0  0  0
   12.8570    4.1032   -5.8527 H   0  0  0  0  0  0  0  0  0  0  0  0
   10.5818    5.7421   -4.5533 H   0  0  0  0  0  0  0  0  0  0  0  0
   11.0289    5.7417   -6.3041 H   0  0  0  0  0  0  0  0  0  0  0  0
   12.1799    6.3950   -5.0762 H   0  0  0  0  0  0  0  0  0  0  0  0
    6.0081   -4.4646   -4.3625 H   0  0  0  0  0  0  0  0  0  0  0  0
    4.1923   -5.7516   -3.0459 H   0  0  0  0  0  0  0  0  0  0  0  0
    2.0316   -3.5207   -0.7245 H   0  0  0  0  0  0  0  0  0  0  0  0
    2.0666   -5.1629   -1.4706 H   0  0  0  0  0  0  0  0  0  0  0  0
    2.5470   -5.2272    0.9865 H   0  0  0  0  0  0  0  0  0  0  0  0
    3.9527   -5.8208    0.0212 H   0  0  0  0  0  0  0  0  0  0  0  0
    3.9857   -4.1543    0.7453 H   0  0  0  0  0  0  0  0  0  0  0  0
    7.8435   -3.5358   -2.1389 H   0  0  0  0  0  0  0  0  0  0  0  0
   10.9852   -3.7559   -1.0654 H   0  0  0  0  0  0  0  0  0  0  0  0
    7.1313    0.5230    1.4017 H   0  0  0  0  0  0  0  0  0  0  0  0
    4.2476    2.4944    3.2269 H   0  0  0  0  0  0  0  0  0  0  0  0
    5.1499    3.8775    3.9763 H   0  0  0  0  0  0  0  0  0  0  0  0
    4.7790    2.4063    4.9561 H   0  0  0  0  0  0  0  0  0  0  0  0
    8.3285   -0.7276    5.3561 H   0  0  0  0  0  0  0  0  0  0  0  0
    9.9392   -2.2908    4.3957 H   0  0  0  0  0  0  0  0  0  0  0  0
  1  2  2  3
  2  3  1  0
  3  4  2  0
  3  5  1  0
  5  6  2  0
  6  7  1  0
  7  8  1  0
  7  9  2  0
  9 10  1  0
  9 11  1  0
 11 12  2  0
 12 13  1  0
 13 14  2  3
 14 15  1  0
 15 16  3  0
 14 17  1  0
 17 18  3  0
  1 19  1  0
 19 20  2  0
 20 21  1  0
 21 22  2  0
 22 23  1  0
 23 24  2  0
 22 25  1  0
 25 26  2  0
 26 27  1  0
 27 28  1  0
 28 29  1  0
 29 30  2  0
 30 31  1  0
 31 32  2  0
 32 33  1  0
 33 34  1  0
 32 35  1  0
 35 36  2  0
 28 37  1  0
 37 38  2  0
 38 39  1  0
 39 40  2  0
 40 41  1  0
 41 42  1  0
 40 43  1  0
 43 44  2  0
 28 45  1  0
 45 46  2  0
 46 47  1  0
 47 48  1  0
 46 49  1  0
 49 50  1  0
 50 51  2  0
 51 52  1  0
 52 53  1  0
 53 54  2  0
 54 55  1  0
 55 56  2  0
 56 57  1  0
 57 58  2  0
 58 59  1  0
 59 60  1  0
 58 61  1  0
 54 62  1  0
 62 63  2  0
 63 64  1  0
 64 65  1  0
 65 66  2  0
 66 67  1  0
 67 68  2  0
 68 69  1  0
 69 70  1  0
 68 71  1  0
 64 72  2  0
 63 73  1  0
 73 74  1  0
 74 75  1  0
 75 76  2  0
 76 77  1  0
 77 78  1  0
 76 79  1  0
 79 80  1  0
 80 81  1  0
 81 82  2  0
 82 83  1  0
 83 84  1  0
 84 85  1  0
 85 86  2  0
 86 87  1  0
 87 88  2  0
 88 89  1  0
 89 90  1  0
 88 91  1  0
 91 92  2  0
 84 93  1  0
 93 94  2  0
 94 95  1  0
 95 96  2  0
 96 97  1  0
 97 98  1  0
 96 99  1  0
 99100  2  0
 81101  1  0
101102  2  0
102103  1  0
103104  2  0
104105  1  0
105106  2  0
106107  1  0
107108  2  0
108109  1  0
109110  1  0
108111  1  0
104112  1  0
112113  2  0
113114  1  0
114115  1  0
115116  2  0
116117  1  0
117118  2  0
118119  1  0
119120  1  0
118121  1  0
114122  2  0
122123  1  0
113124  1  0
124125  2  0
125126  1  0
125127  1  0
127128  2  3
128129  1  0
129130  2  0
129131  1  0
131132  2  0
132133  1  0
133134  1  0
134135  1  0
135136  2  0
135137  1  0
133138  2  0
138139  1  0
139140  2  0
140141  1  0
141142  2  3
142143  1  0
143144  3  0
142145  1  0
145146  3  0
 13  2  1  0
 24 19  1  0
 48 25  1  0
 72 50  1  0
 78 74  2  0
 83 79  2  0
 92 85  1  0
100 93  1  0
123101  1  0
141128  1  0
 12  5  1  0
 47 27  2  0
 72 53  1  0
 84 75  1  0
122103  1  0
140131  1  0
 36 29  1  0
 44 37  1  0
 51 45  1  0
 61 55  1  0
 78 62  1  0
111105  1  0
126112  1  0
 71 65  1  0
121115  1  0
  1147  1  0
  6148  1  0
 11149  1  0
 20150  1  0
 21151  1  0
 26152  1  0
 30153  1  0
 31154  1  0
 33155  1  0
 33156  1  0
 34157  1  0
 34158  1  0
 34159  1  0
 35160  1  0
 36161  1  0
 38162  1  0
 39163  1  0
 41164  1  0
 41165  1  0
 42166  1  0
 42167  1  0
 42168  1  0
 43169  1  0
 44170  1  0
 56171  1  0
 57172  1  0
 59173  1  0
 59174  1  0
 60175  1  0
 60176  1  0
 60177  1  0
 66178  1  0
 67179  1  0
 69180  1  0
 69181  1  0
 70182  1  0
 70183  1  0
 70184  1  0
 82185  1  0
 86186  1  0
 87187  1  0
 89188  1  0
 89189  1  0
 90190  1  0
 90191  1  0
 90192  1  0
 91193  1  0
 92194  1  0
 94195  1  0
 95196  1  0
 97197  1  0
 97198  1  0
 98199  1  0
 98200  1  0
 98201  1  0
 99202  1  0
100203  1  0
102204  1  0
106205  1  0
107206  1  0
109207  1  0
109208  1  0
110209  1  0
110210  1  0
110211  1  0
116212  1  0
117213  1  0
119214  1  0
119215  1  0
120216  1  0
120217  1  0
120218  1  0
124219  1  0
127220  1  0
132221  1  0
137222  1  0
137223  1  0
137224  1  0
138225  1  0
139226  1  0
M  END

